#======================================================================

# CRYSTAL DATA

#----------------------------------------------------------------------

data_VESTA_phase_1


_pd_phase_name                         ALFFIVE_3_Cd
_cell_length_a                         15.04295
_cell_length_b                         15.04324
_cell_length_c                         8.03612
_cell_angle_alpha                      90.00064
_cell_angle_beta                       89.99875
_cell_angle_gamma                      89.95926
_symmetry_space_group_name_H-M         P 1
_symmetry_Int_Tables_number            1

loop_
_symmetry_equiv_pos_as_xyz
   x, y, z

loop_
   _atom_site_label
   _atom_site_fract_x
   _atom_site_fract_y
   _atom_site_fract_z
C	0.2581238831721597 0.4549761770581510 0.6363994455351829	
C	0.2353516578384437 0.0485833394878518 0.6475536212963141	
C	0.2357915857133389 0.4557386041788469 0.3512685031122171	
C	0.2588420083002480 0.0476238867597543 0.3633815353393917	
C	0.0476163060065749 0.2588620287175614 0.3633790323190493	
C	0.4557317039278126 0.2358065905518174 0.3512908217159427	
C	0.4549607124315701 0.2581352428651862 0.6364130056049290	
C	0.0485833064031012 0.2353442571432725 0.6475428382139196	
C	0.9557250565791442 0.2358111271371325 0.6487300963727530	
C	0.5476082257790557 0.2588607916395803 0.6366274974699124	
C	0.5485782753560147 0.2353401666306380 0.3524688678084363	
C	0.9549594363090708 0.2581333826688875 0.3636033009184712	
C	0.7353330053179468 0.0485760445865149 0.3524536224996271	
C	0.7581272501090035 0.4549643326402708 0.3635999118389409	
C	0.7588519348441060 0.0476093897173297 0.6366270904550488	
C	0.7358142892978847 0.4557245496131166 0.6487250435468891	
C	0.4557301611357007 0.7358120287143586 0.6487356099307593	
C	0.0476147343369155 0.7588596912195438 0.6366079746812071	
C	0.0485781205083246 0.7353475220313365 0.3524483706720914	
C	0.4549722970690497 0.7581396755914289 0.3636030690457271	
C	0.2353275306290354 0.5485879518997010 0.3524542519643518	
C	0.2581269313487934 0.9549735997526799 0.3635859504387148	
C	0.2588510077952961 0.5476233965839609 0.6366123281790795	
C	0.2358132911364624 0.9557322852759412 0.6487209685709264	
C	0.7581275280986232 0.9549686292008213 0.6364099178284851	
C	0.7353518707238552 0.5485787467678751 0.6475526282534343	
C	0.7357961800007140 0.9557328502764940 0.3512668385648484	
C	0.7588451321765163 0.5476173675744078 0.3633902749342663	
C	0.5476184241354596 0.7588644753690040 0.3633935631244178	
C	0.9557302962215759 0.7358063554360081 0.3512756970553944	
C	0.9549652059812597 0.7581329843004632 0.6364067382176857	
C	0.5485775573533560 0.7353444659723170 0.6475519853118232	
H	0.2646179593691967 0.4167414819466537 0.7512952704759662	
H	0.2241777318892808 0.0867592616148925 0.7615029664016369	
H	0.2271788260711424 0.4185897088049624 0.2351285155280152	
H	0.2672686644753475 0.0856368897803967 0.2488512730513821	
H	0.0856213338094793 0.2673122375020351 0.2488555817430268	
H	0.4185895723462522 0.2271903737138596 0.2351333216447055	
H	0.4167274449303673 0.2646389077005856 0.7513211276394075	
H	0.0867554511968208 0.2241654175900643 0.7614771097826187	
H	0.9185857535812009 0.2272036704815367 0.7648773465249217	
H	0.5856190706445182 0.2673081664784154 0.7511613449703523	
H	0.5867612903119537 0.2241528126800001 0.2385194567192465	
H	0.9167356869244775 0.2646360866769476 0.2487058427060510	
H	0.7241502104208081 0.0867613359043599 0.2385268731954767	
H	0.7646287669243519 0.4167344764030592 0.2486963811920673	
H	0.7672959763107556 0.0856245227766804 0.7511502196636458	
H	0.7272045187189992 0.4185818955334158 0.7648780208782470	
H	0.4185835872802899 0.7271966513206753 0.7648792903913394	
H	0.0856262440934355 0.7672989287424602 0.7511380279058498	
H	0.0867564989610067 0.7241644002607693 0.2384974724185275	
H	0.4167411667312375 0.7646395569838191 0.2487089385818731	
H	0.2241431903156840 0.5867683555859258 0.2385168808414942	
H	0.2646270829429180 0.9167441260045928 0.2486857287894606	
H	0.2673017399363644 0.5856343785545719 0.7511394128557186	
H	0.2272025205082688 0.9185883635989653 0.7648647445952749	
H	0.7646237203098747 0.9167280945649278 0.7512954300209901	
H	0.7241733738975887 0.5867556652758025 0.7615015902454828	
H	0.7271806456067245 0.9185840850560328 0.2351303074202721	
H	0.7672739257232511 0.5856267504464341 0.2488527384068953	
H	0.5856328071983878 0.7673131715466366 0.2488662916201456	
H	0.9185883134063292 0.7271869413740802 0.2351284182086474	
H	0.9167367941590838 0.7646340244566628 0.7513083425708823	
H	0.5867558904784472 0.7241595894799899 0.7614873120759291	
Cd	0.2516171051331590 0.2516224944209345 0.4963086429602908	
Cd	0.7516104868573137 0.2516193078357291 0.5036595453294167	
Cd	0.2516159477585416 0.7516301043801946 0.5036740188216896	
Cd	0.7516240945736561 0.7516194115250554 0.4963283824970668	
Al	0.2522801278789185 0.2522565032780906 -0.0050354504491299	
Al	0.7522785499006740 0.2522735646167985 0.0050180616704022	
Al	0.2522641146990425 0.7522625615330610 0.0050239060841556	
Al	0.7522789254315851 0.7522427497412240 -0.0050450753574617	
F	0.2660513938169051 0.2660690723362393 0.7701489886848231	
F	0.2399963140445924 0.2399832718376990 0.2204658983525937	
F	0.1718288160793015 0.1715945349298076 -0.0393231111210791	
F	0.2207136553014037 0.3632462787522580 0.0095397038559975	
F	0.3632834754222631 0.2207477473297904 0.0095400763113103	
F	0.7400040811112257 0.2399948981331864 0.7794808972982735	
F	0.7661027239220503 0.2661271794570327 0.2298720659127083	
F	0.6717421658771138 0.1717233420717917 0.0394193598522060	
F	0.7207457951034018 0.3632692823577008 -0.0095921800315569	
F	0.8632775666319248 0.2207405461121613 -0.0095706723390446	
F	0.2399290215369358 0.7400215033051407 0.7795072682764297	
F	0.2660831881937423 0.7660541942170606 0.2298422860420875	
F	0.1716636304934801 0.6717573519081156 0.0393337666194747	
F	0.2207477541629733 0.8632620052800509 -0.0095473167070279	
F	0.3632537343094444 0.7207071370106919 -0.0095973588467121	
F	0.7660777101155460 0.7660572318760026 0.7701226138632945	
F	0.7399893853047261 0.7399603307410366 0.2204918646265855	
F	0.6718086810432794 0.6716026968202450 -0.0393491334229994	
F	0.7207502849509457 0.8632398409368701 0.0095460931982637	
F	0.8632786882238329 0.7207270426569303 0.0095236511599120	
N	0.4097020272889906 0.2475078636860039 0.4932946588031881	
N	0.0937573808890577 0.2477472897378026 0.5050968131887109	
N	0.2474934406789401 0.4097145341659794 0.4932784788589007	
N	0.2477422882974591 0.0937642555420614 0.5051078132088793	
N	0.9097044118725505 0.2475062246860167 0.5067218525054031	
N	0.5937558978282315 0.2477460257338003 0.4949101448475919	
N	0.7475037868170930 0.4097078814281095 0.5067183094229055	
N	0.7477378839025633 0.0937602075769588 0.4949038641680554	
N	0.4097057867307647 0.7475131608806038 0.5067276664111887	
N	0.0937598479930519 0.7477541570725590 0.4948871882320559	
N	0.2475052813305608 0.9097128632311609 0.5067087661011628	
N	0.2477369368908413 0.5937676232555105 0.4948916555695436	
N	0.9097038646306008 0.7475047068282978 0.4932848529083182	
N	0.5937644341118054 0.7477498476262135 0.5051086512678439	
N	0.7474968122927691 0.9097034135707117 0.4932803220299819	
N	0.7477422280565420 0.5937558353749004 0.5051103174486001	
	  	
