####################################################################### 
# 
# This file contains crystal structure data downloaded from the 
# Cambridge Structural Database (CSD) hosted by the Cambridge 
# Crystallographic Data Centre (CCDC).
# 
# Full information about CCDC data access policies and citation 
# guidelines are available at http://www.ccdc.cam.ac.uk/access/V1 
# 
# Audit and citation data items may have been added by the CCDC. 
# Please retain this information to preserve the provenance of 
# this file and to allow appropriate attribution of the data. 
# 
#######################################################################
@<TRIPOS>MOLECULE
AHOKIR01
    38    39     2     0     0
SMALL
NO_CHARGES
****
Generated from the CSD

@<TRIPOS>ATOM
     1 Cu1      4.9610   1.6677   2.1994   Cu        1 RES1   0.0000
     2 P1       6.5255   3.3354   0.0853   P.3       1 RES1   0.0000
     3 O1       6.3615   2.0653   0.9145   O.co2     1 RES1   0.0000
     4 O2       5.5444   3.3354  -1.1217   O.co2     1 RES1   0.0000
     5 O3       6.3877   0.0000   3.2024   O.3       1 RES1   0.0000
     6 C1       8.2018   3.3354  -0.5982   C.3       1 RES1   0.0000
     7 H1       8.1968   2.7017  -1.0117   H         1 RES1   0.0000
     8 C2       9.3435   3.3354   0.3343   C.3       1 RES1   0.0000
     9 H2       9.3579   2.8618   0.8666   H         1 RES1   0.0000
    10 O1B      6.3615   4.6055   0.9145   O.co2     1 RES1   0.0000
    11 H1B      8.1968   3.9691  -1.0117   H         1 RES1   0.0000
    12 C2D     10.6925   3.3354  -0.3343   C.3       1 RES1   0.0000
    13 C1D     11.8342   3.3354   0.5982   C.3       1 RES1   0.0000
    14 P1D     13.5105   3.3354  -0.0853   P.3       1 RES1   0.0000
    15 O1D     13.6745   4.6055  -0.9145   O.co2     1 RES1   0.0000
    16 O1F     13.6745   2.0653  -0.9145   O.co2     1 RES1   0.0000
    17 O2D     14.4916   3.3354   1.1217   O.co2     1 RES1   0.0000
    18 H1D     11.8392   3.9691   1.0117   H         1 RES1   0.0000
    19 H1F     11.8392   2.7017   1.0117   H         1 RES1   0.0000
    20 H2D     10.6781   3.8090  -0.8666   H         1 RES1   0.0000
    21 H2F     10.6781   2.8618  -0.8666   H         1 RES1   0.0000
    22 H2B      9.3579   3.8090   0.8666   H         1 RES1   0.0000
    23 O3E      3.5343   3.3354   1.1965   O.3       1 RES1   0.0000
    24 Cu1B     4.9610   5.0031   2.1994   Cu        1 RES1   0.0000
    25 O1E      3.5604   1.2701   3.4843   O.3       1 RES1   0.0000
    26 O2       5.4484   3.3354   3.2771   O.3       1 RES1   0.0000
    27 O2E      4.4736   0.0000   1.1217   O.3       1 RES1   0.0000
    28 Cu1      5.0570   1.6677  -2.1994   Cu        1 RES1   0.0000
    29 Cu1B     5.0570   5.0031  -2.1994   Cu        1 RES1   0.0000
    30 Cu1B     4.9610  -1.6677   2.1994   Cu        1 RES1   0.0000
    31 Cu1A    15.0750   5.0031  -2.1994   Cu        1 RES1   0.0000
    32 Cu1C    15.0750   1.6677  -2.1994   Cu        1 RES1   0.0000
    33 Cu1A    14.9790   5.0031   2.1994   Cu        1 RES1   0.0000
    34 Cu1C    14.9790   1.6677   2.1994   Cu        1 RES1   0.0000
    35 O1G      3.5604   5.4007   3.4843   O.3       1 RES1   0.0000
    36 O2E      4.4736   6.6708   1.1217   O.3       1 RES1   0.0000
    37 O3       6.3877   6.6708   3.2024   O.3       1 RES1   0.0000
    38 O4       8.5217   0.0000   1.5440   O.3       2 RES2   0.0000
@<TRIPOS>BOND
     1     1     3    1
     2     2     3   un
     3     4     2    1
     4     5     1    1
     5     6     2    1
     6     7     6    1
     7     8     6    1
     8     9     8    1
     9    10     2   un
    10    11     6    1
    11    12     8    1
    12    13    12    1
    13    14    13    1
    14    15    14   un
    15    16    14   un
    16    17    14    1
    17    18    13    1
    18    19    13    1
    19    20    12    1
    20    21    12    1
    21    22     8    1
    22    23     1    1
    23    24    10    1
    24    25     1    1
    25    26     1    1
    26    27     1    1
    27    28     4    1
    28    29     4    1
    29    30     5    1
    30    31    15    1
    31    32    16    1
    32    33    17    1
    33    34    17    1
    34    35    24    1
    35    36    24    1
    36    37    24    1
    37    23    24    1
    38    24    26    1
    39    27    30    1
@<TRIPOS>SUBSTRUCTURE
     1 RES1        1 GROUP             0 ****  ****    0  
     2 RES2       38 GROUP             0 ****  ****    0  
@<TRIPOS>CRYSIN
   20.0360    6.6708    4.3999   90.0000   91.2510   90.0000    12     1
