####################################################################### 
# 
# This file contains crystal structure data downloaded from the 
# Cambridge Structural Database (CSD) hosted by the Cambridge 
# Crystallographic Data Centre (CCDC).
# 
# Full information about CCDC data access policies and citation 
# guidelines are available at http://www.ccdc.cam.ac.uk/access/V1 
# 
# Audit and citation data items may have been added by the CCDC. 
# Please retain this information to preserve the provenance of 
# this file and to allow appropriate attribution of the data. 
# 
#######################################################################
@<TRIPOS>MOLECULE
BOHGOU
    23    22     2     0     0
SMALL
NO_CHARGES
****
Generated from the CSD

@<TRIPOS>ATOM
     1 Mn1     -0.8275   1.9119   1.7466   Mn        1 RES1   0.0000
     2 O1      -1.0893  -1.6463  -0.6386   O.co2     1 RES1   0.0000
     3 O2      -0.7406  -0.1054   0.9215   O.co2     1 RES1   0.0000
     4 O3      -1.9138   2.3427  -0.0629   O.co2     1 RES1   0.0000
     5 O4      -3.6372   2.6469  -1.4029   O.co2     1 RES1   0.0000
     6 O5       0.0916   1.1940   3.5778   O.3       1 RES1   0.0000
     7 O6       1.1316   2.1799   0.8475   O.3       1 RES1   0.0000
     8 C1      -1.4887  -0.7217   0.1313   C.2       1 RES1   0.0000
     9 C2      -2.9630  -0.4816   0.1188   C.2       1 RES1   0.0000
    10 C3      -3.6050   0.6444  -0.1928   C.2       1 RES1   0.0000
    11 C4      -2.9812   1.9585  -0.5610   C.2       1 RES1   0.0000
    12 H1      -3.5373  -1.2541   0.3703   H         1 RES1   0.0000
    13 H2      -4.6089   0.6003  -0.1747   H         1 RES1   0.0000
    14 H3       0.2475   1.6943   4.2199   H         1 RES1   0.0000
    15 H4      -0.7254   0.5870   4.0592   H         1 RES1   0.0000
    16 H5       1.1547   2.7349   0.0559   H         1 RES1   0.0000
    17 H6       1.9952   1.4408   0.5310   H         1 RES1   0.0000
    18 O4C     -1.1622   4.0236   2.0904   O.3       1 RES1   0.0000
    19 O1B     -2.7443   1.6463   2.8547   O.3       1 RES1   0.0000
    20 Mn1C    -3.3025   4.7586  -1.7466   Mn        1 RES1   0.0000
    21 Mn1B     0.8275  -1.9119  -1.7466   Mn        1 RES1   0.0000
    22 O7       3.5618   3.2992   1.7990   O.3       2 RES2   0.0000
    23 H7       4.1945   2.8283   1.8864   H         2 RES2   0.0000
@<TRIPOS>BOND
     1     1     3    1
     2     2     8   un
     3     3     8   un
     4     4     1    1
     5     5    11   un
     6     6     1    1
     7     7     1    1
     8     8     9    1
     9     9    10    2
    10    10    11    1
    11    11     4   un
    12    12     9    1
    13    13    10    1
    14    14     6    1
    15    15     6    1
    16    16     7    1
    17    17     7    1
    18    18     1    1
    19    19     1    1
    20    20     5    1
    21    21     2    1
    22    22    23    1
@<TRIPOS>SUBSTRUCTURE
     1 RES1        1 GROUP             0 ****  ****    0  
     2 RES2       22 GROUP             0 ****  ****    0  
@<TRIPOS>CRYSIN
    8.2600   13.3410    7.7310   90.0000  115.3500   90.0000     9     1
