####################################################################### 
# 
# This file contains crystal structure data downloaded from the 
# Cambridge Structural Database (CSD) hosted by the Cambridge 
# Crystallographic Data Centre (CCDC).
# 
# Full information about CCDC data access policies and citation 
# guidelines are available at http://www.ccdc.cam.ac.uk/access/V1 
# 
# Audit and citation data items may have been added by the CCDC. 
# Please retain this information to preserve the provenance of 
# this file and to allow appropriate attribution of the data. 
# 
#######################################################################
@<TRIPOS>MOLECULE
FIGXEY
    31    30     1     0     0
SMALL
NO_CHARGES
****
Generated from the CSD

@<TRIPOS>ATOM
     1 Dy1      0.0000   0.0000   0.0000   Dy        1 RES1   0.0000
     2 O1       2.0025   1.1260  -0.7473   O.co2     1 RES1   0.0000
     3 O2      -1.6916  -1.4134  -0.7255   O.co2     1 RES1   0.0000
     4 O3      -0.6617  -1.0573   2.0914   O.co2     1 RES1   0.0000
     5 O4       0.6791   1.5571   1.6734   O.2       1 RES1   0.0000
     6 N1       0.7804   3.4265   2.8927   N.am      1 RES1   0.0000
     7 C1       3.0718   1.4491  -0.2168   C.2       1 RES1   0.0000
     8 C2      -1.1035  -0.5011   3.1058   C.2       1 RES1   0.0000
     9 C3       0.3703   2.7309   1.8585   C.2       1 RES1   0.0000
    10 H1       3.2404   1.1081   0.7081   H         1 RES1   0.0000
    11 H2      -1.1035   0.5004   3.1058   H         1 RES1   0.0000
    12 H3      -0.1886   3.1956   1.1988   H         1 RES1   0.0000
    13 H4       1.4559   3.0598   3.4723   H         1 RES1   0.0000
    14 H5       0.3907   4.3108   3.1306   H         1 RES1   0.0000
    15 O1B     -2.0025   1.1260   0.7473   O.3       1 RES1   0.0000
    16 O2B      1.6916  -1.4134   0.7255   O.3       1 RES1   0.0000
    17 O3B      0.6617  -1.0573  -2.0914   O.3       1 RES1   0.0000
    18 O4B     -0.6791   1.5571  -1.6734   O.2       1 RES1   0.0000
    19 C1A     -2.5787  -2.1254  -0.2168   C.2       1 RES1   0.0000
    20 O2A      3.9589   2.1611  -0.7255   O.co2     1 RES1   0.0000
    21 O3B     -1.5452  -1.0573   4.1201   O.co2     1 RES1   0.0000
    22 Dy1A     5.6505   3.5745   0.0000   Dy        1 RES1   0.0000
    23 Dy1     -2.2070   0.0000   6.2116   Dy        1 RES1   0.0000
    24 O1A     -3.6480  -2.4485  -0.7473   O.co2     1 RES1   0.0000
    25 H1A     -2.4101  -2.4664   0.7081   H         1 RES1   0.0000
    26 Dy1A    -5.6505  -3.5745   0.0000   Dy        1 RES1   0.0000
    27 C3B     -0.3703   2.7309  -1.8585   C.2       1 RES1   0.0000
    28 N1B     -0.7804   3.4265  -2.8927   N.am      1 RES1   0.0000
    29 H3B      0.1886   3.1956  -1.1988   H         1 RES1   0.0000
    30 H4B     -1.4559   3.0598  -3.4723   H         1 RES1   0.0000
    31 H5B     -0.3907   4.3108  -3.1306   H         1 RES1   0.0000
@<TRIPOS>BOND
     1     1     2    1
     2     2     7   un
     3     3     1    1
     4     4     1    1
     5     5     1    1
     6     6     9   am
     7     7    10    1
     8     8     4   un
     9     9     5    2
    10    11     8    1
    11    12     9    1
    12    13     6    1
    13    14     6    1
    14    15     1    1
    15    16     1    1
    16    17     1    1
    17    18     1    1
    18    19     3   un
    19    20     7   un
    20    21     8   un
    21    22    20    1
    22    23    21    1
    23    24    19   un
    24    25    19    1
    25    26    24    1
    26    27    18    2
    27    28    27   am
    28    29    27    1
    29    30    28    1
    30    31    28    1
@<TRIPOS>SUBSTRUCTURE
     1 RES1        1 GROUP             0 ****  ****    0  
@<TRIPOS>CRYSIN
   11.3010    7.1490    6.5920   90.0000  109.5600   90.0000     5     1
