####################################################################### 
# 
# This file contains crystal structure data downloaded from the 
# Cambridge Structural Database (CSD) hosted by the Cambridge 
# Crystallographic Data Centre (CCDC).
# 
# Full information about CCDC data access policies and citation 
# guidelines are available at http://www.ccdc.cam.ac.uk/access/V1 
# 
# Audit and citation data items may have been added by the CCDC. 
# Please retain this information to preserve the provenance of 
# this file and to allow appropriate attribution of the data. 
# 
#######################################################################
@<TRIPOS>MOLECULE
FIGXAU
    31    30     1     0     0
SMALL
NO_CHARGES
****
Generated from the CSD

@<TRIPOS>ATOM
     1 Er1      0.0000   0.0000   0.0000   Er        1 RES1   0.0000
     2 O1      -1.9933   1.1293   0.7455   O.co2     1 RES1   0.0000
     3 O2       1.6760  -1.3987   0.7103   O.co2     1 RES1   0.0000
     4 O3      -0.6501  -1.0419   2.0668   O.co2     1 RES1   0.0000
     5 O4       0.6444   1.5515   1.6373   O.2       1 RES1   0.0000
     6 N1       0.6726   3.4057   2.8574   N.am      1 RES1   0.0000
     7 C1      -3.0477   1.4427   0.2061   C.2       1 RES1   0.0000
     8 C2      -1.0927  -0.4662   3.0857   C.2       1 RES1   0.0000
     9 C3       0.3164   2.7298   1.8391   C.2       1 RES1   0.0000
    10 H1      -3.2073   1.0803  -0.7159   H         1 RES1   0.0000
    11 H2      -1.0927   0.4975   3.0857   H         1 RES1   0.0000
    12 H3      -0.3185   3.1982   1.2158   H         1 RES1   0.0000
    13 H4       1.4439   3.0418   3.4499   H         1 RES1   0.0000
    14 H5       0.3881   4.2855   3.1104   H         1 RES1   0.0000
    15 O1B      1.9933   1.1293  -0.7455   O.3       1 RES1   0.0000
    16 O2B     -1.6760  -1.3987  -0.7103   O.3       1 RES1   0.0000
    17 O3B      0.6501  -1.0419  -2.0668   O.3       1 RES1   0.0000
    18 O4B     -0.6444   1.5515  -1.6373   O.2       1 RES1   0.0000
    19 C1A      2.5523  -2.1108   0.2061   C.2       1 RES1   0.0000
    20 O2A     -3.9240   2.1548   0.7103   O.co2     1 RES1   0.0000
    21 O3B     -1.5353  -1.0419   4.1046   O.co2     1 RES1   0.0000
    22 Er1     -2.1854   0.0000   6.1715   Er        1 RES1   0.0000
    23 Er1A    -5.6000   3.5535   0.0000   Er        1 RES1   0.0000
    24 O1A      3.6067  -2.4242   0.7455   O.co2     1 RES1   0.0000
    25 H1A      2.3927  -2.4732  -0.7159   H         1 RES1   0.0000
    26 C3B     -0.3164   2.7298  -1.8391   C.2       1 RES1   0.0000
    27 Er1A     5.6000  -3.5535   0.0000   Er        1 RES1   0.0000
    28 N1B     -0.6726   3.4057  -2.8574   N.am      1 RES1   0.0000
    29 H3B      0.3185   3.1982  -1.2158   H         1 RES1   0.0000
    30 H4B     -1.4439   3.0418  -3.4499   H         1 RES1   0.0000
    31 H5B     -0.3881   4.2855  -3.1104   H         1 RES1   0.0000
@<TRIPOS>BOND
     1     1     2    1
     2     2     7   un
     3     3     1    1
     4     4     1    1
     5     5     1    1
     6     6     9   am
     7     7    10    1
     8     8     4   un
     9     9     5    2
    10    11     8    1
    11    12     9    1
    12    13     6    1
    13    14     6    1
    14    15     1    1
    15    16     1    1
    16    17     1    1
    17    18     1    1
    18    19     3   un
    19    20     7   un
    20    21     8   un
    21    22    21    1
    22    23    20    1
    23    24    19   un
    24    25    19    1
    25    26    18    2
    26    27    24    1
    27    28    26   am
    28    29    26    1
    29    30    28    1
    30    31    28    1
@<TRIPOS>SUBSTRUCTURE
     1 RES1        1 GROUP             0 ****  ****    0  
@<TRIPOS>CRYSIN
   11.2000    7.1070    6.5470   90.0000  109.5000   90.0000     5     1
