####################################################################### 
# 
# This file contains crystal structure data downloaded from the 
# Cambridge Structural Database (CSD) hosted by the Cambridge 
# Crystallographic Data Centre (CCDC).
# 
# Full information about CCDC data access policies and citation 
# guidelines are available at http://www.ccdc.cam.ac.uk/access/V1 
# 
# Audit and citation data items may have been added by the CCDC. 
# Please retain this information to preserve the provenance of 
# this file and to allow appropriate attribution of the data. 
# 
#######################################################################
@<TRIPOS>MOLECULE
FIVNAZ
    22    22     2     0     0
SMALL
NO_CHARGES
****
Generated from the CSD

@<TRIPOS>ATOM
     1 Ho1     -1.2934   0.7438   1.5791   Ho        1 RES1   0.0000
     2 F1       0.0000   0.0000   0.0000   F         1 RES1   0.0000
     3 O1      -3.4921   1.6884   1.2463   O.co2     1 RES1   0.0000
     4 O2      -1.2874   2.5400   0.0194   O.co2     1 RES1   0.0000
     5 O3      -2.4670  -0.8677   0.3206   O.3       1 RES1   0.0000
     6 C1      -3.6489   2.5503   0.3564   C.2       1 RES1   0.0000
     7 H1      -3.3986  -1.0032   0.1868   H         1 RES1   0.0000
     8 H2      -2.0257  -1.2233  -0.2946   H         1 RES1   0.0000
     9 F1B     -2.5869   0.0000   3.1583   F         1 RES1   0.0000
    10 O1B      0.9052   1.6884   1.9120   O.3       1 RES1   0.0000
    11 O2B     -1.2995   2.5400   3.1389   O.3       1 RES1   0.0000
    12 O3B     -0.1199  -0.8677   2.8377   O.3       1 RES1   0.0000
    13 Ho1D     1.2934  -0.7438  -1.5791   Ho        1 RES1   0.0000
    14 O2E     -4.7296   3.0530  -0.0194   O.co2     1 RES1   0.0000
    15 C1E     -2.3681   3.0427  -0.3564   C.2       1 RES1   0.0000
    16 H1B      0.8117  -1.0032   2.9715   H         1 RES1   0.0000
    17 H2B     -0.5612  -1.2233   3.4529   H         1 RES1   0.0000
    18 Ho1E    -4.7236   4.8492  -1.5791   Ho        1 RES1   0.0000
    19 O1E     -2.5249   3.9046  -1.2463   O.co2     1 RES1   0.0000
    20 O4      -3.3944   4.4672   3.4087   O.3       2 RES2   0.0000
    21 H3      -2.8463   3.7316   3.2886   H         2 RES2   0.0000
    22 H4      -3.8827   4.3529   4.0656   H         2 RES2   0.0000
@<TRIPOS>BOND
     1     1     2    1
     2     2    13    1
     3     3     1    1
     4     4     1    1
     5     5     1    1
     6     6     3   un
     7     7     5    1
     8     8     5    1
     9     9     1    1
    10    10     1    1
    11    11     1    1
    12    12     1    1
    13    14     6   un
    14    15     4   un
    15    16    12    1
    16    17    12    1
    17    18    14    1
    18    19    15   un
    19     6    15    1
    20    18    19    1
    21    20    21    1
    22    22    20    1
@<TRIPOS>SUBSTRUCTURE
     1 RES1        1 GROUP             0 ****  ****    0  
     2 RES2       20 GROUP             0 ****  ****    0  
@<TRIPOS>CRYSIN
   12.0340   11.1860    8.1650   90.0000  129.3200   90.0000    15     1
