####################################################################### 
# 
# This file contains crystal structure data downloaded from the 
# Cambridge Structural Database (CSD) hosted by the Cambridge 
# Crystallographic Data Centre (CCDC).
# 
# Full information about CCDC data access policies and citation 
# guidelines are available at http://www.ccdc.cam.ac.uk/access/V1 
# 
# Audit and citation data items may have been added by the CCDC. 
# Please retain this information to preserve the provenance of 
# this file and to allow appropriate attribution of the data. 
# 
#######################################################################
@<TRIPOS>MOLECULE
FUTJOV
    44    34     4     0     0
SMALL
NO_CHARGES
****
Generated from the CSD

@<TRIPOS>ATOM
     1 Cu1     -0.3231   2.2726   2.7972   Cu        1 RES1   0.0000
     2 Cu2     -0.0404   2.4072  -2.2095   Cu        1 RES1   0.0000
     3 N1      -1.3962   5.1601   2.9667   N.1       1 RES1   0.0000
     4 N2       1.1105  -0.4524   3.1736   N.2       1 RES1   0.0000
     5 C3'     -0.2177   2.2576  -0.3007   C.2       1 RES1   0.0000
     6 C4'      1.6799   2.2995  -3.1391   C.1       1 RES1   0.0000
     7 C1      -1.2019   4.0552   2.8461   C.1       1 RES1   0.0000
     8 C3      -0.2825   2.2292   0.8408   C.2       1 RES1   0.0000
     9 N2'      0.6755   0.5718   2.9610   N.2       1 RES1   0.0000
    10 N4'      2.6975   2.2482  -3.6390   N.1       1 RES1   0.0000
    11 O1      -0.3586   2.3181   4.7479   O.3       1 RES1   0.0000
    12 H1A      0.2622   2.7128   5.1740   H         1 RES1   0.0000
    13 H1B     -0.9944   1.9452   5.1721   H         1 RES1   0.0000
    14 O2      -2.3357   0.9089   2.8336   O.3       1 RES1   0.0000
    15 H2A     -2.3489   0.1809   3.2722   H         1 RES1   0.0000
    16 H2B     -3.0266   1.1622   2.4084   H         1 RES1   0.0000
    17 O3       1.8689   3.6182   2.8393   O.3       1 RES1   0.0000
    18 H3A      2.4656   3.7281   3.4379   H         1 RES1   0.0000
    19 H3B      2.0209   3.8518   2.0330   H         1 RES1   0.0000
    20 Cu3     -0.7084   6.9862   3.7348   Cu        1 RES1   0.0000
    21 Cu2      0.0404  -2.4072   2.2095   Cu        1 RES1   0.0000
    22 Cu2     -2.6843   6.6874   2.2095   Cu        1 RES1   0.0000
    23 N1      -1.3285   3.9345  -2.9667   N.3       1 RES1   0.0000
    24 N2      -1.6142   8.6422   3.1736   N.2       1 RES1   0.0000
    25 N2      -1.1105   0.4524  -3.1736   N.3       1 RES1   0.0000
    26 N4'     -1.3066   6.7860   5.9373   N.3       1 RES1   0.0000
    27 N4'      1.2978   6.8465   3.6390   N.3       1 RES1   0.0000
    28 Cu3      3.2958   2.4484  -5.8414   Cu        1 RES1   0.0000
    29 Cu3      2.0164  -2.1084   3.7348   Cu        1 RES1   0.0000
    30 Cu3      4.7036   2.1084  -3.7348   Cu        1 RES1   0.0000
    31 O4       2.8150   1.0271   0.6014   O.3       2 RES2   0.0000
    32 H4A      3.3147   0.4404   0.2021   H         2 RES2   0.0000
    33 H4B      1.9380   1.0788   0.2997   H         2 RES2   0.0000
    34 O5       3.1070   3.6444   0.2768   O.3       3 RES3   0.0000
    35 H5B      3.1953   2.7935   0.3447   H         3 RES3   0.0000
    36 H5A      2.3251   3.9867   0.4252   H         3 RES3   0.0000
    37 C1'?    -1.3962   5.1601   2.9667   C.3       4 RES4   0.0000
    38 C2'?     1.1105  -0.4524   3.1736   C.3       4 RES4   0.0000
    39 N3?     -0.2177   2.2576  -0.3007   N.3       4 RES4   0.0000
    40 N4?      1.6799   2.2995  -3.1391   N.3       4 RES4   0.0000
    41 N1'?    -1.2019   4.0552   2.8461   N.3       4 RES4   0.0000
    42 C2?      0.6755   0.5718   2.9610   C.3       4 RES4   0.0000
    43 N3'?    -0.2825   2.2292   0.8408   N.3       4 RES4   0.0000
    44 C4?      2.6975   2.2482  -3.6390   C.3       4 RES4   0.0000
@<TRIPOS>BOND
     1     1     7    1
     2     1     8    2
     3     1     9    1
     4     1    11    1
     5     1    14    1
     6     1    17    1
     7     2     5    2
     8     2     6    1
     9     2    23    1
    10     2    25    1
    11     3     7    3
    12     3    20    1
    13     3    22    1
    14     4     9    2
    15     4    21    1
    16     4    29    1
    17     5     8    2
    18     6    10    3
    19    10    28    1
    20    10    30    1
    21    11    12    1
    22    11    13    1
    23    14    15    1
    24    14    16    1
    25    17    18    1
    26    17    19    1
    27    20    24    1
    28    20    26    1
    29    20    27    1
    30    22    24    1
    31    31    32    1
    32    31    33    1
    33    34    35    1
    34    34    36    1
@<TRIPOS>SUBSTRUCTURE
     1 RES1        1 GROUP             0 ****  ****    0  
     2 RES2       31 GROUP             0 ****  ****    0  
     3 RES3       34 GROUP             0 ****  ****    0  
     4 RES4       37 GROUP             0 ****  ****    0  
@<TRIPOS>CRYSIN
    6.7200    9.4940   10.6820  111.9790   96.8790  106.6780     2     1
