####################################################################### 
# 
# This file contains crystal structure data downloaded from the 
# Cambridge Structural Database (CSD) hosted by the Cambridge 
# Crystallographic Data Centre (CCDC).
# 
# Full information about CCDC data access policies and citation 
# guidelines are available at http://www.ccdc.cam.ac.uk/access/V1 
# 
# Audit and citation data items may have been added by the CCDC. 
# Please retain this information to preserve the provenance of 
# this file and to allow appropriate attribution of the data. 
# 
#######################################################################
@<TRIPOS>MOLECULE
HAKWUM
    37    36     2     0     0
SMALL
NO_CHARGES
****
Generated from the CSD

@<TRIPOS>ATOM
     1 O1      -1.0970   4.9170   3.4884   O.3       1 RES1   0.0000
     2 H1      -1.1871   4.5272   4.2379   H         1 RES1   0.0000
     3 H2      -0.8975   4.3251   2.9120   H         1 RES1   0.0000
     4 P1      -6.1537   9.3162   1.7613   P.3       2 RES2   0.0000
     5 Ga1     -3.5996  10.2569   0.0000   Ga        2 RES2   0.0000
     6 Ga2     -4.9213   6.8379   0.0000   Ga        2 RES2   0.0000
     7 F1      -3.8473   8.3887  -0.4632   F         2 RES2   0.0000
     8 O2      -5.1669  10.3092   1.1348   O.co2     2 RES2   0.0000
     9 O3      -5.9735   7.8783   1.2834   O.co2     2 RES2   0.0000
    10 C1      -5.8505   9.3351   3.5364   C.3       2 RES2   0.0000
    11 H3      -4.9249   9.0913   3.6976   H         2 RES2   0.0000
    12 H4      -5.9781  10.2380   3.8659   H         2 RES2   0.0000
    13 O4      -7.5997   9.7650   1.5767   O.co2     2 RES2   0.0000
    14 O5      -3.6064   6.3573   1.4580   O.3       2 RES2   0.0000
    15 H5      -3.2757   5.3907   1.7198   H         2 RES2   0.0000
    16 H6      -2.7948   6.9609   1.4721   H         2 RES2   0.0000
    17 C1A     -6.7479   8.3944   4.3275   C.3       2 RES2   0.0000
    18 P1A     -6.4447   8.4133   6.1027   P.3       2 RES2   0.0000
    19 O2A     -7.4315   7.4203   6.7292   O.co2     2 RES2   0.0000
    20 O3A     -6.6249   9.8512   6.5805   O.co2     2 RES2   0.0000
    21 O4A     -4.9987   7.9645   6.2872   O.co2     2 RES2   0.0000
    22 H3A     -7.6735   8.6382   4.1663   H         2 RES2   0.0000
    23 H4A     -6.6203   7.4916   3.9980   H         2 RES2   0.0000
    24 F1A     -3.3518  12.1252   0.4632   F         2 RES2   0.0000
    25 O5A     -6.2363   7.3186  -1.4580   O.3       2 RES2   0.0000
    26 H5A     -6.5669   8.2852  -1.7198   H         2 RES2   0.0000
    27 H6A     -7.0478   6.7150  -1.4721   H         2 RES2   0.0000
    28 O2A     -2.0322  10.2047  -1.1348   O.3       2 RES2   0.0000
    29 O4      -2.5565   9.7650   1.5767   O.3       2 RES2   0.0000
    30 O4A     -4.6426  10.7488  -1.5767   O.3       2 RES2   0.0000
    31 F1A     -5.9953   5.2872   0.4632   F         2 RES2   0.0000
    32 O3A     -3.8691   5.7976  -1.2834   O.3       2 RES2   0.0000
    33 Ga1     -8.6428  10.2569   0.0000   Ga        2 RES2   0.0000
    34 Ga1     -8.9988   7.4726   7.8639   Ga        2 RES2   0.0000
    35 Ga2     -7.6771  10.8916   7.8639   Ga        2 RES2   0.0000
    36 Ga1     -3.9556   7.4726   7.8639   Ga        2 RES2   0.0000
    37 Ga2     -2.2778  13.6759   0.0000   Ga        2 RES2   0.0000
@<TRIPOS>BOND
     1     1     2    1
     2     3     1    1
     3     4     8   un
     4     5     7    1
     5     6     7    1
     6     8     5    1
     7     9     4    1
     8    10     4    1
     9    11    10    1
    10    12    10    1
    11    13     4   un
    12    14     6    1
    13    15    14    1
    14    16    14    1
    15    17    10    1
    16    18    17    1
    17    19    18   un
    18    20    18    1
    19    21    18   un
    20    22    17    1
    21    23    17    1
    22    24     5    1
    23    25     6    1
    24    26    25    1
    25    27    25    1
    26    28     5    1
    27    29     5    1
    28    30     5    1
    29    31     6    1
    30    32     6    1
    31    33    13    1
    32    34    19    1
    33    35    20    1
    34    36    21    1
    35    37    24    1
    36     6     9    1
@<TRIPOS>SUBSTRUCTURE
     1 RES1        1 GROUP             0 ****  ****    0  
     2 RES2        4 GROUP             0 ****  ****    0  
@<TRIPOS>CRYSIN
    5.0432    7.2468    8.3499  107.4890   92.4440  109.3380     2     1
