####################################################################### 
# 
# This file contains crystal structure data downloaded from the 
# Cambridge Structural Database (CSD) hosted by the Cambridge 
# Crystallographic Data Centre (CCDC).
# 
# Full information about CCDC data access policies and citation 
# guidelines are available at http://www.ccdc.cam.ac.uk/access/V1 
# 
# Audit and citation data items may have been added by the CCDC. 
# Please retain this information to preserve the provenance of 
# this file and to allow appropriate attribution of the data. 
# 
#######################################################################
@<TRIPOS>MOLECULE
KECRAL10
    62    47    15     0     0
SMALL
NO_CHARGES
****
Generated from the CSD

@<TRIPOS>ATOM
     1 Cd1      0.0000   0.0000   0.0000   Cd        1 RES1   0.0000
     2 Cd2      4.3475  -0.0000  -3.4760   Cd        1 RES1   0.0000
     3 Cd3      4.3475   0.0000   3.5329   Cd        1 RES1   0.0000
     4 C1       2.5581  -0.0000  -2.2653   C.1       1 RES1   0.0000
     5 N1       1.6477  -0.0000  -1.5777   N.1       1 RES1   0.0000
     6 C2       1.5034   0.0000   1.5650   C.1       1 RES1   0.0000
     7 N2       2.3868   0.0000   2.2822   N.1       1 RES1   0.0000
     8 C3       4.3475  -1.7609  -4.7436   C.1       1 RES1   0.0000
     9 N3       4.3475   1.6771   5.0241   N.1       1 RES1   0.0000
    10 O1      -0.0000  -2.3285   0.0801   O.3       1 RES1   0.0000
    11 N1B     -1.6477  -0.0000  -1.5777   N.1       1 RES1   0.0000
    12 C2B     -1.5034   0.0000   1.5650   C.1       1 RES1   0.0000
    13 O1D      0.0000   2.3285   0.0801   O.3       1 RES1   0.0000
    14 C1B      6.1369  -0.0000  -2.2653   C.1       1 RES1   0.0000
    15 C3D      4.3475   1.7609  -4.7436   C.1       1 RES1   0.0000
    16 N2B      6.3082   0.0000   2.2822   N.1       1 RES1   0.0000
    17 N3D      4.3475  -1.6771   5.0241   N.1       1 RES1   0.0000
    18 N3A      4.3475  -2.5969  -5.5219   N.1       1 RES1   0.0000
    19 C3A      4.3475   2.5131   5.8024   C.1       1 RES1   0.0000
    20 C1B     -2.5581  -0.0000  -2.2653   C.1       1 RES1   0.0000
    21 N2B     -2.3868   0.0000   2.2822   N.1       1 RES1   0.0000
    22 N1B      7.0473  -0.0000  -1.5777   N.1       1 RES1   0.0000
    23 N3E      4.3475   2.5969  -5.5219   N.1       1 RES1   0.0000
    24 C2B      7.1916   0.0000   1.5650   C.1       1 RES1   0.0000
    25 C3E      4.3475  -2.5131   5.8024   C.1       1 RES1   0.0000
    26 Cd3A     4.3475  -4.2740  -7.0131   Cd        1 RES1   0.0000
    27 Cd2A     4.3475   4.2740   7.0700   Cd        1 RES1   0.0000
    28 Cd3A     4.3475   4.2740  -7.0131   Cd        1 RES1   0.0000
    29 Cd2A     4.3475  -4.2740   7.0700   Cd        1 RES1   0.0000
    30 N2A      2.3868  -4.2740  -8.2638   N.1       1 RES1   0.0000
    31 N2C      6.3082  -4.2740  -8.2638   N.1       1 RES1   0.0000
    32 N3E      4.3475  -5.9511  -5.5219   N.3       1 RES1   0.0000
    33 C1A      2.5581   4.2740   8.2807   C.1       1 RES1   0.0000
    34 C1C      6.1369   4.2740   8.2807   C.1       1 RES1   0.0000
    35 C3E      4.3475   6.0349   5.8024   C.3       1 RES1   0.0000
    36 C2A      1.5034  -4.2740  -8.9810   C.1       1 RES1   0.0000
    37 C2C      7.1916  -4.2740  -8.9810   C.1       1 RES1   0.0000
    38 N1A      1.6477   4.2740   8.9683   N.1       1 RES1   0.0000
    39 N1C      7.0473   4.2740   8.9683   N.1       1 RES1   0.0000
    40 Cd1A    -0.0000  -4.2740 -10.5460   Cd        1 RES1   0.0000
    41 Cd1A     8.6950  -4.2740 -10.5460   Cd        1 RES1   0.0000
    42 Cd1A     0.0000   4.2740  10.5460   Cd        1 RES1   0.0000
    43 Cd1A     8.6950   4.2740  10.5460   Cd        1 RES1   0.0000
    44 N1A      1.6477  -4.2740 -12.1237   N.3       1 RES1   0.0000
    45 N1C     -1.6477  -4.2740 -12.1237   N.3       1 RES1   0.0000
    46 C2C     -1.5034  -4.2740  -8.9810   C.3       1 RES1   0.0000
    47 O1A     -0.0000  -6.6025 -10.4659   O.3       1 RES1   0.0000
    48 O1E     -0.0000  -1.9455 -10.4659   O.3       1 RES1   0.0000
    49 C4?      4.0527  -4.2740   0.0548   C.3       2 RES2   0.0000
    50 O2?      2.6024  -4.2740  -0.2426   O.3       3 RES3   0.0000
    51 C5?      4.3475  -5.5212   0.5442   C.3       4 RES4   0.0000
    52 C6?      4.3475  -4.2740   1.1558   C.3       5 RES5   0.0000
    53 C7?      4.3475  -5.3220  -1.2360   C.3       6 RES6   0.0000
    54 C8?      4.3475  -4.2740  -1.8793   C.3       7 RES7   0.0000
    55 C9?     -0.0000  -4.2740   3.4443   C.3       8 RES8   0.0000
    56 O3?      0.4095  -4.2740   1.9784   O.3       9 RES9   0.0000
    57 C10?    -0.4695  -5.7263   3.6088   C.3      10 RES10   0.0000
    58 C11?     1.2608  -4.2740   4.2690   C.3      11 RES11   0.0000
    59 C12?    -0.0000  -4.2740  -3.1343   C.3      12 RES12   0.0000
    60 O4?      0.5182  -4.2740  -1.8498   O.3      13 RES13   0.0000
    61 C13?    -1.0086  -3.2602  -3.7185   C.3      14 RES14   0.0000
    62 C14?     1.3225  -4.2740  -3.6236   C.3      15 RES15   0.0000
@<TRIPOS>BOND
     1     1     5    1
     2     2     4    1
     3     3     7    1
     4     4     5    3
     5     6     1    1
     6     7     6    3
     7     8     2    1
     8     9     3    1
     9    10     1    1
    10    11     1    1
    11    12     1    1
    12    13     1    1
    13    14     2    1
    14    15     2    1
    15    16     3    1
    16    17     3    1
    17    18     8    3
    18    19     9    3
    19    20    11    3
    20    21    12    3
    21    22    14    3
    22    23    15    3
    23    24    16    3
    24    25    17    3
    25    26    18    1
    26    27    19    1
    27    28    23    1
    28    29    25    1
    29    30    26    1
    30    31    26    1
    31    32    26    1
    32    33    27    1
    33    34    27    1
    34    35    27    1
    35    36    30    3
    36    37    31    3
    37    38    33    3
    38    39    34    3
    39    40    36    1
    40    41    37    1
    41    42    38    1
    42    43    39    1
    43    44    40    1
    44    45    40    1
    45    46    40    1
    46    47    40    1
    47    48    40    1
@<TRIPOS>SUBSTRUCTURE
     1 RES1        1 GROUP             0 ****  ****    0  
     2 RES2       49 GROUP             0 ****  ****    0  
     3 RES3       50 GROUP             0 ****  ****    0  
     4 RES4       51 GROUP             0 ****  ****    0  
     5 RES5       52 GROUP             0 ****  ****    0  
     6 RES6       53 GROUP             0 ****  ****    0  
     7 RES7       54 GROUP             0 ****  ****    0  
     8 RES8       55 GROUP             0 ****  ****    0  
     9 RES9       56 GROUP             0 ****  ****    0  
    10 RES10      57 GROUP             0 ****  ****    0  
    11 RES11      58 GROUP             0 ****  ****    0  
    12 RES12      59 GROUP             0 ****  ****    0  
    13 RES13      60 GROUP             0 ****  ****    0  
    14 RES14      61 GROUP             0 ****  ****    0  
    15 RES15      62 GROUP             0 ****  ****    0  
@<TRIPOS>CRYSIN
    8.6950    8.5480   21.0920   90.0000   90.0000   90.0000    38     1
