####################################################################### 
# 
# This file contains crystal structure data downloaded from the 
# Cambridge Structural Database (CSD) hosted by the Cambridge 
# Crystallographic Data Centre (CCDC).
# 
# Full information about CCDC data access policies and citation 
# guidelines are available at http://www.ccdc.cam.ac.uk/access/V1 
# 
# Audit and citation data items may have been added by the CCDC. 
# Please retain this information to preserve the provenance of 
# this file and to allow appropriate attribution of the data. 
# 
#######################################################################
@<TRIPOS>MOLECULE
LUFQUZ01
    32    28     5     0     0
SMALL
NO_CHARGES
****
Generated from the CSD

@<TRIPOS>ATOM
     1 Ni1     -3.5140   3.5050   6.7250   Ni        1 RES1   0.0000
     2 Fe1      0.0000   0.0000   6.7250   Fe        1 RES1   0.0000
     3 N1      -1.3712   1.3803   6.7250   N.1       1 RES1   0.0000
     4 N2       0.0000   0.0000   4.7539   N.2       1 RES1   0.0000
     5 C1      -2.2033   2.1759   6.7250   C.1       1 RES1   0.0000
     6 C2       0.0000   1.1468   4.0498   C.2       1 RES1   0.0000
     7 H1       0.0000   1.9754   4.5131   H         1 RES1   0.0000
     8 Fe1      0.0000   0.0000   0.0000   Fe        1 RES1   0.0000
     9 Fe1     -7.0280   7.0100   6.7250   Fe        1 RES1   0.0000
    10 Fe1      0.0000   7.0100   6.7250   Fe        1 RES1   0.0000
    11 Fe1     -7.0280   0.0000   6.7250   Fe        1 RES1   0.0000
    12 N1A     -5.6568   5.6297   6.7250   N.1       1 RES1   0.0000
    13 N1B     -1.3712   5.6297   6.7250   N.1       1 RES1   0.0000
    14 N1C     -5.6568   1.3803   6.7250   N.1       1 RES1   0.0000
    15 N1A      1.3712  -1.3803   6.7250   N.3       1 RES1   0.0000
    16 N1B     -1.3712  -1.3803   6.7250   N.3       1 RES1   0.0000
    17 N1C      1.3712   1.3803   6.7250   N.3       1 RES1   0.0000
    18 N2B      0.0000   0.0000   1.9711   N.2       1 RES1   0.0000
    19 N2B      0.0000   0.0000   8.6961   N.3       1 RES1   0.0000
    20 C1A     -4.8247   4.8341   6.7250   C.1       1 RES1   0.0000
    21 C1B     -2.2033   4.8341   6.7250   C.1       1 RES1   0.0000
    22 C1C     -4.8247   2.1759   6.7250   C.1       1 RES1   0.0000
    23 C2C      0.0000   1.1468   2.6752   C.2       1 RES1   0.0000
    24 C2B      0.0000  -1.1468   2.6752   C.2       1 RES1   0.0000
    25 C2A      0.0000  -1.1468   4.0498   C.2       1 RES1   0.0000
    26 H1B      0.0000  -1.9754   2.2119   H         1 RES1   0.0000
    27 H1A      0.0000  -1.9754   4.5131   H         1 RES1   0.0000
    28 H1C      0.0000   1.9754   2.2119   H         1 RES1   0.0000
    29 O1       3.5140   1.4293   3.3625   O.3       2 RES2   0.0000
    30 O4       1.0753   3.5050   3.3625   O.3       3 RES3   0.0000
    31 O2?      3.5140   0.0000   2.8003   O.3       4 RES4   0.0000
    32 O3?      3.5140   2.9092   3.3625   O.3       5 RES5   0.0000
@<TRIPOS>BOND
     1     1     5    1
     2     2     3    1
     3     3     5    3
     4     4     2    1
     5     6     4    1
     6     7     6    1
     7     8    18    1
     8     9    12    1
     9    10    13    1
    10    11    14    1
    11    12    20    3
    12    13    21    3
    13    14    22    3
    14    15     2    1
    15    16     2    1
    16    17     2    1
    17    18    23    1
    18    19     2    1
    19    20     1    1
    20    21     1    1
    21    22     1    1
    22    23     6    2
    23    24    18    1
    24    25     4    1
    25    26    24    1
    26    27    25    1
    27    28    23    1
    28    24    25    2
@<TRIPOS>SUBSTRUCTURE
     1 RES1        1 GROUP             0 ****  ****    0  
     2 RES2       29 GROUP             0 ****  ****    0  
     3 RES3       30 GROUP             0 ****  ****    0  
     4 RES4       31 GROUP             0 ****  ****    0  
     5 RES5       32 GROUP             0 ****  ****    0  
@<TRIPOS>CRYSIN
    7.0280    7.0100    6.7250   90.0000   90.0000   90.0000    47     1
