####################################################################### 
# 
# This file contains crystal structure data downloaded from the 
# Cambridge Structural Database (CSD) hosted by the Cambridge 
# Crystallographic Data Centre (CCDC).
# 
# Full information about CCDC data access policies and citation 
# guidelines are available at http://www.ccdc.cam.ac.uk/access/V1 
# 
# Audit and citation data items may have been added by the CCDC. 
# Please retain this information to preserve the provenance of 
# this file and to allow appropriate attribution of the data. 
# 
#######################################################################
@<TRIPOS>MOLECULE
MOCJEU
    38    43     2     0     0
SMALL
NO_CHARGES
****
Generated from the CSD

@<TRIPOS>ATOM
     1 Er1      0.8184   1.6923  -0.4846   Er        1 RES1   0.0000
     2 P1      -2.1755   1.6650   0.1474   P.3       1 RES1   0.0000
     3 H1      -2.5248   1.3343   1.4327   H         1 RES1   0.0000
     4 O1      -1.2546   0.4999  -0.2529   O.co2     1 RES1   0.0000
     5 O2      -3.3847   1.8087  -0.7475   O.co2     1 RES1   0.0000
     6 O3      -1.2432   2.8713   0.1665   O.co2     1 RES1   0.0000
     7 O4      -0.0934   2.6773  -2.4551   O.co2     1 RES1   0.0000
     8 O5       1.2205   0.4087  -2.4536   O.co2     1 RES1   0.0000
     9 O6       1.0680   1.8312   1.7890   O.3       1 RES1   0.0000
    10 H2       1.4562   1.2900   2.3828   H         1 RES1   0.0000
    11 H3       0.7852   2.5257   2.4288   H         1 RES1   0.0000
    12 C1       0.0108   2.0896  -3.5476   C.2       1 RES1   0.0000
    13 Er1A    -0.8184  -1.6923   0.4846   Er        1 RES1   0.0000
    14 Er1A     5.6216  -1.6923   0.4846   Er        1 RES1   0.0000
    15 Er1A    -0.9491   5.1390   0.4846   Er        1 RES1   0.0000
    16 Er1      0.9491  -5.1390  -0.4846   Er        1 RES1   0.0000
    17 Er1     -5.6216   1.6923  -0.4846   Er        1 RES1   0.0000
    18 Er1A    -0.0485   1.1549  -6.6007   Er        1 RES1   0.0000
    19 P1A      2.1755  -1.6650  -0.1474   P.3       1 RES1   0.0000
    20 H1A      2.5248  -1.3343  -1.4327   H         1 RES1   0.0000
    21 O1A      1.2546  -0.4999   0.2529   O.co2     1 RES1   0.0000
    22 O2A     -3.0553  -1.8087   0.7475   O.3       1 RES1   0.0000
    23 O2       3.0553   1.8087  -0.7475   O.3       1 RES1   0.0000
    24 O2A      3.3847  -1.8087   0.7475   O.co2     1 RES1   0.0000
    25 O3A      1.1125   3.9601  -0.1665   O.3       1 RES1   0.0000
    26 O3A      1.2432  -2.8713  -0.1665   O.co2     1 RES1   0.0000
    27 O3      -1.1125  -3.9601   0.1665   O.3       1 RES1   0.0000
    28 O4A      0.0934  -2.6773   2.4551   O.3       1 RES1   0.0000
    29 O4A      0.8632   0.1699  -4.6303   O.co2     1 RES1   0.0000
    30 O5A     -1.2205  -0.4087   2.4536   O.3       1 RES1   0.0000
    31 O5A     -0.4506   2.4385  -4.6317   O.co2     1 RES1   0.0000
    32 O6A     -1.0680  -1.8312  -1.7890   O.3       1 RES1   0.0000
    33 H2A     -1.4562  -1.2900  -2.3828   H         1 RES1   0.0000
    34 H3A     -0.7852  -2.5257  -2.4288   H         1 RES1   0.0000
    35 C1A      0.7590   0.7576  -3.5377   C.2       1 RES1   0.0000
    36 O7       2.3057   0.0406   3.4739   O.3       2 RES2   0.0000
    37 H4       2.7285   0.1181   4.4099   H         2 RES2   0.0000
    38 H5       2.8295  -0.5598   2.8228   H         2 RES2   0.0000
@<TRIPOS>BOND
     1     1     4    1
     2     2     3    1
     3     4     2    2
     4     5     2    1
     5     6     1    1
     6     7     1    1
     7     8     1    1
     8     9     1    1
     9    10     9    1
    10    11     9    1
    11    12     7   un
    12    13     4    1
    13    14    24    1
    14    15     6    1
    15    16    26    1
    16    17     5    1
    17    18    29    1
    18    19    20    1
    19    21     1    1
    20    22    13    1
    21    23     1    1
    22    24    19    1
    23    25     1    1
    24    26    13    1
    25    27    13    1
    26    28    13    1
    27    29    35   un
    28    30    13    1
    29    31    12   un
    30    32    13    1
    31    33    32    1
    32    34    32    1
    33    35     8   un
    34     2     6    1
    35    12    35    1
    36    13    21    1
    37    15    25    1
    38    16    27    1
    39    18    31    1
    40    19    21    1
    41    19    26    2
    42    36    37    1
    43    38    36    1
@<TRIPOS>SUBSTRUCTURE
     1 RES1        1 GROUP             0 ****  ****    0  
     2 RES2       36 GROUP             0 ****  ****    0  
@<TRIPOS>CRYSIN
    6.4400    6.8326    7.6747  111.6540   95.7570   91.0960     2     1
