####################################################################### 
# 
# This file contains crystal structure data downloaded from the 
# Cambridge Structural Database (CSD) hosted by the Cambridge 
# Crystallographic Data Centre (CCDC).
# 
# Full information about CCDC data access policies and citation 
# guidelines are available at http://www.ccdc.cam.ac.uk/access/V1 
# 
# Audit and citation data items may have been added by the CCDC. 
# Please retain this information to preserve the provenance of 
# this file and to allow appropriate attribution of the data. 
# 
#######################################################################
@<TRIPOS>MOLECULE
OLOKEF
    45    45     3     0     0
SMALL
NO_CHARGES
****
Generated from the CSD

@<TRIPOS>ATOM
     1 Ni1     -0.2172   3.6881   0.0000   Ni        1 RES1   0.0000
     2 Ni2      3.4550   0.0000   0.0000   Ni        1 RES1   0.0000
     3 O1       3.2991   1.7116   1.1523   O.co2     1 RES1   0.0000
     4 O2       1.4967   2.6642   0.2977   O.co2     1 RES1   0.0000
     5 O3       0.5708   5.3640   0.8089   O.co2     1 RES1   0.0000
     6 O4       2.4089   6.2985   1.6263   O.co2     1 RES1   0.0000
     7 O5       0.6792   4.3425  -1.7903   O.3       1 RES1   0.0000
     8 O6       1.5741   0.1168  -0.8244   O.3       1 RES1   0.0000
     9 C1       2.3027   2.4703   1.2350   C.2       1 RES1   0.0000
    10 C2       2.0664   3.1029   2.5768   C.2       1 RES1   0.0000
    11 C3       1.6335   4.4212   2.7624   C.2       1 RES1   0.0000
    12 C4       2.2739   2.2986   3.6919   C.2       1 RES1   0.0000
    13 C5       1.5225   5.4175   1.6395   C.2       1 RES1   0.0000
    14 H1       1.3841   4.8199  -1.7632   H         1 RES1   0.0000
    15 H2       0.8491   3.6125  -2.1886   H         1 RES1   0.0000
    16 H3       1.1430  -0.5063  -0.4408   H         1 RES1   0.0000
    17 H4       1.2397   0.8699  -0.6264   H         1 RES1   0.0000
    18 H5       2.5669   1.4235   3.5767   H         1 RES1   0.0000
    19 C4A      1.4122   4.9018   4.0415   C.2       1 RES1   0.0000
    20 C2A      1.6197   4.0976   5.1566   C.2       1 RES1   0.0000
    21 C1A      1.3835   4.7302   6.4984   C.2       1 RES1   0.0000
    22 O1A      0.3870   5.4888   6.5811   O.co2     1 RES1   0.0000
    23 O2A      2.1895   4.5363   7.4357   O.co2     1 RES1   0.0000
    24 C3A      2.0527   2.7792   4.9710   C.2       1 RES1   0.0000
    25 C5A      2.1636   1.7830   6.0939   C.2       1 RES1   0.0000
    26 O3A      3.1153   1.8364   6.9245   O.co2     1 RES1   0.0000
    27 O4A      1.2772   0.9020   6.1071   O.co2     1 RES1   0.0000
    28 H5A      1.1193   5.7770   4.1567   H         1 RES1   0.0000
    29 O2A     -1.9310   4.7121  -0.2977   O.3       1 RES1   0.0000
    30 O3A     -1.0052   2.0122  -0.8089   O.3       1 RES1   0.0000
    31 O5A     -1.1136   3.0337   1.7903   O.3       1 RES1   0.0000
    32 H1A     -1.8185   2.5564   1.7632   H         1 RES1   0.0000
    33 H2A     -1.2835   3.7638   2.1886   H         1 RES1   0.0000
    34 Ni1A     3.9033   3.5123   7.7334   Ni        1 RES1   0.0000
    35 Ni2A     0.2312   7.2005   7.7334   Ni        1 RES1   0.0000
    36 Ni2      3.0206   7.3762   0.0000   Ni        1 RES1   0.0000
    37 Ni2A     0.6655  -0.1758   7.7334   Ni        1 RES1   0.0000
    38 O1A      3.6109  -1.7116  -1.1523   O.3       1 RES1   0.0000
    39 O4       2.8433  -1.0777   1.6263   O.3       1 RES1   0.0000
    40 O4A      4.0667   1.0777  -1.6263   O.3       1 RES1   0.0000
    41 O6A      5.3359  -0.1168   0.8244   O.3       1 RES1   0.0000
    42 H3A      5.7670   0.5063   0.4408   H         1 RES1   0.0000
    43 H4A      5.6703  -0.8699   0.6264   H         1 RES1   0.0000
    44 O7       2.4623   0.3938  -4.0214   O.3       2 RES2   0.0000
    45 O8       1.7226   2.1249  -3.2712   O.3       3 RES3   0.0000
@<TRIPOS>BOND
     1     1     4    1
     2     2     3    1
     3     3     9    2
     4     4     9    1
     5     5     1    1
     6     6    13    2
     7     7     1    1
     8     8     2    1
     9     9    10    1
    10    10    11    1
    11    11    13    1
    12    12    10    2
    13    13     5    1
    14    14     7    1
    15    15     7    1
    16    16     8    1
    17    17     8    1
    18    18    12    1
    19    19    11    2
    20    20    19    1
    21    21    20    1
    22    22    21    2
    23    23    21    1
    24    24    12    1
    25    25    24    1
    26    26    25    1
    27    27    25    2
    28    28    19    1
    29    29     1    1
    30    30     1    1
    31    31     1    1
    32    32    31    1
    33    33    31    1
    34    34    23    1
    35    35    22    1
    36    36     6    1
    37    37    27    1
    38    38     2    1
    39    39     2    1
    40    40     2    1
    41    41     2    1
    42    42    41    1
    43    43    41    1
    44    20    24    2
    45    26    34    1
@<TRIPOS>SUBSTRUCTURE
     1 RES1        1 GROUP             0 ****  ****    0  
     2 RES2       44 GROUP             0 ****  ****    0  
     3 RES3       45 GROUP             0 ****  ****    0  
@<TRIPOS>CRYSIN
    6.9100    7.3890    8.2230   90.0800  109.8300   93.3700     2     1
