####################################################################### 
# 
# This file contains crystal structure data downloaded from the 
# Cambridge Structural Database (CSD) hosted by the Cambridge 
# Crystallographic Data Centre (CCDC).
# 
# Full information about CCDC data access policies and citation 
# guidelines are available at http://www.ccdc.cam.ac.uk/access/V1 
# 
# Audit and citation data items may have been added by the CCDC. 
# Please retain this information to preserve the provenance of 
# this file and to allow appropriate attribution of the data. 
# 
#######################################################################
@<TRIPOS>MOLECULE
PIYZAZ
    10     8     2     0     0
SMALL
NO_CHARGES
****
Generated from the CSD

@<TRIPOS>ATOM
     1 Cd1      7.9505   1.5901   1.5901   Cd        1 RES1   0.0000
     2 C1       9.2030   2.8426   0.3376   C.2       1 RES1   0.0000
     3 Cd1H    11.1307   4.7703  -1.5901   Cd        1 RES1   0.0000
     4 Cd1E     4.7703   4.7703   4.7703   Cd        1 RES1   0.0000
     5 C1T      9.8782   3.5178  -0.3376   C.2       1 RES1   0.0000
     6 C1M      6.6980   2.8426   2.8426   C.2       1 RES1   0.0000
     7 C1F      6.0228   3.5178   3.5178   C.2       1 RES1   0.0000
     8 C1Y      6.6980   0.3376   0.3376   C.3       1 RES1   0.0000
     9 C1BA     9.2030   0.3376   2.8426   C.3       1 RES1   0.0000
    10 N1?      9.2030   2.8426   0.3376   N.3       2 RES2   0.0000
@<TRIPOS>BOND
     1     1     2    2
     2     2     5    2
     3     3     5    2
     4     4     7    2
     5     6     1    2
     6     7     6    2
     7     8     1    1
     8     9     1    1
@<TRIPOS>SUBSTRUCTURE
     1 RES1        1 GROUP             0 ****  ****    0  
     2 RES2       10 GROUP             0 ****  ****    0  
