####################################################################### 
# 
# This file contains crystal structure data downloaded from the 
# Cambridge Structural Database (CSD) hosted by the Cambridge 
# Crystallographic Data Centre (CCDC).
# 
# Full information about CCDC data access policies and citation 
# guidelines are available at http://www.ccdc.cam.ac.uk/access/V1 
# 
# Audit and citation data items may have been added by the CCDC. 
# Please retain this information to preserve the provenance of 
# this file and to allow appropriate attribution of the data. 
# 
#######################################################################
@<TRIPOS>MOLECULE
REGJIW
    46    54     3     0     0
SMALL
NO_CHARGES
****
Generated from the CSD

@<TRIPOS>ATOM
     1 Co1      4.6467   6.4325   2.7529   Co.oh     1 RES1   0.0000
     2 Co2      4.6284   7.9834   5.5059   Co.oh     1 RES1   0.0000
     3 O1       5.7498   9.4841   4.6750   O.3       1 RES1   0.0000
     4 O2       5.8742   7.8779   1.8092   O.3       1 RES1   0.0000
     5 O3       5.5809   6.4325   4.5407   O.3       1 RES1   0.0000
     6 H1       6.3017   6.4325   4.6018   H         1 RES1   0.0000
     7 C1       6.4192   9.5497   3.6245   C.2       1 RES1   0.0000
     8 C2       6.4781   8.8550   2.3400   C.2       1 RES1   0.0000
     9 C1E      7.5391   9.7478   1.8814   C.2       1 RES1   0.0000
    10 O1E      8.2085   9.8134   0.8308   O.3       1 RES1   0.0000
    11 C2E      7.4802  10.4425   3.1659   C.2       1 RES1   0.0000
    12 O2E      8.0841  11.4196   3.6966   O.3       1 RES1   0.0000
    13 O1F      5.7498   3.3809   4.6750   O.3       1 RES1   0.0000
    14 O2F      5.8742   4.9871   1.8092   O.3       1 RES1   0.0000
    15 C1F      6.4192   3.3153   3.6245   C.2       1 RES1   0.0000
    16 C2F      6.4781   4.0100   2.3400   C.2       1 RES1   0.0000
    17 C1C      7.5391   3.1172   1.8814   C.2       1 RES1   0.0000
    18 O1C      8.2085   3.0516   0.8308   O.3       1 RES1   0.0000
    19 C2C      7.4802   2.4225   3.1659   C.2       1 RES1   0.0000
    20 O2C      8.0841   1.4454   3.6966   O.3       1 RES1   0.0000
    21 O3D      3.7125   6.4325   0.9652   O.3       1 RES1   0.0000
    22 H1D      2.9917   6.4325   0.9041   H         1 RES1   0.0000
    23 Co2G     9.3299  11.3141   0.0000   Co.oh     1 RES1   0.0000
    24 O2D      3.4191   4.9871   3.6966   O.3       1 RES1   0.0000
    25 O2B      3.4191   7.8779   3.6966   O.3       1 RES1   0.0000
    26 O1B      3.5071   9.4841   6.3367   O.3       1 RES1   0.0000
    27 O2       5.8377   7.8779   7.3151   O.3       1 RES1   0.0000
    28 O3D      3.6760   6.4325   6.4711   O.3       1 RES1   0.0000
    29 Co2      4.6650   7.9834   0.0000   Co.oh     1 RES1   0.0000
    30 Co2F     4.6284   4.8816   5.5059   Co.oh     1 RES1   0.0000
    31 Co1A     9.3116  12.8650   2.7529   Co.oh     1 RES1   0.0000
    32 Co2G     9.2934  11.3141   5.5059   Co.oh     1 RES1   0.0000
    33 Co2F     4.6650   4.8816   0.0000   Co.oh     1 RES1   0.0000
    34 Co2A     9.3299   1.5509   0.0000   Co.oh     1 RES1   0.0000
    35 Co1A     9.3116   0.0000   2.7529   Co.oh     1 RES1   0.0000
    36 Co2A     9.2934   1.5509   5.5059   Co.oh     1 RES1   0.0000
    37 O1G     10.4513   9.8134  -0.8308   O.3       1 RES1   0.0000
    38 O2G     10.5392  11.4196   1.8092   O.3       1 RES1   0.0000
    39 O2E      8.1206  11.4196  -1.8092   O.3       1 RES1   0.0000
    40 O3A     10.2824  12.8650  -0.9652   O.3       1 RES1   0.0000
    41 O3E      8.3774  12.8650   0.9652   O.3       1 RES1   0.0000
    42 H1D      2.9552   6.4325   6.4099   H         1 RES1   0.0000
    43 H1A     11.0031  12.8650  -0.9041   H         1 RES1   0.0000
    44 H1E      7.6567  12.8650   0.9041   H         1 RES1   0.0000
    45 O4       5.6350  12.0687   6.0829   O.3       2 RES2   0.0000
    46 O5       3.9375  12.8650   7.8338   O.3       3 RES3   0.0000
@<TRIPOS>BOND
     1     1     4    1
     2     2     3    1
     3     3     7    1
     4     4     8    1
     5     5     1    1
     6     6     5    1
     7     7     8   un
     8     8     9   un
     9     9    10    1
    10    10    23    1
    11    11     7   un
    12    12    11    1
    13    13    15    1
    14    14     1    1
    15    15    16   un
    16    16    14    1
    17    17    16   un
    18    18    17    1
    19    19    15   un
    20    20    19    1
    21    21     1    1
    22    22    21    1
    23    23    37    1
    24    24     1    1
    25    25     1    1
    26    26     2    1
    27    27     2    1
    28    28     2    1
    29    29     4    1
    30    30     5    1
    31    31    12    1
    32    32    12    1
    33    33    14    1
    34    34    18    1
    35    35    20    1
    36    36    20    1
    37    38    23    1
    38    39    23    1
    39    40    23    1
    40    41    23    1
    41    42    28    1
    42    43    40    1
    43    44    41    1
    44     2     5    1
    45     2    25    1
    46     9    11   un
    47    13    30    1
    48    17    19   un
    49    21    29    1
    50    21    33    1
    51    24    30    1
    52    28    30    1
    53    31    38    1
    54    31    41    1
@<TRIPOS>SUBSTRUCTURE
     1 RES1        1 GROUP             0 ****  ****    0  
     2 RES2       45 GROUP             0 ****  ****    0  
     3 RES3       46 GROUP             0 ****  ****    0  
@<TRIPOS>CRYSIN
    9.3299   12.8650    5.5060   90.0000   90.3800   90.0000    12     1
