####################################################################### 
# 
# This file contains crystal structure data downloaded from the 
# Cambridge Structural Database (CSD) hosted by the Cambridge 
# Crystallographic Data Centre (CCDC).
# 
# Full information about CCDC data access policies and citation 
# guidelines are available at http://www.ccdc.cam.ac.uk/access/V1 
# 
# Audit and citation data items may have been added by the CCDC. 
# Please retain this information to preserve the provenance of 
# this file and to allow appropriate attribution of the data. 
# 
#######################################################################
@<TRIPOS>MOLECULE
RENWEM01
    24    23     2     0     0
SMALL
NO_CHARGES
****
Generated from the CSD

@<TRIPOS>ATOM
     1 Co1      2.4817   4.7512   3.3954   Co.oh     1 RES1   0.0000
     2 O2       2.3629   6.6913   4.1518   O.co2     1 RES1   0.0000
     3 O3       2.7382   8.1777   5.7491   O.co2     1 RES1   0.0000
     4 O4       3.4548   4.2604   5.1520   O.co2     1 RES1   0.0000
     5 O5       5.2356   3.8507   6.3930   O.co2     1 RES1   0.0000
     6 O6       1.5148   5.3579   1.6481   O.3       1 RES1   0.0000
     7 O7       0.6307   4.4993   4.2964   O.3       1 RES1   0.0000
     8 C1       3.1206   7.2727   4.9579   C.2       1 RES1   0.0000
     9 C2       4.5902   7.0221   4.9884   C.2       1 RES1   0.0000
    10 C3       5.2099   5.8886   5.2884   C.2       1 RES1   0.0000
    11 C4       4.5621   4.5933   5.6235   C.2       1 RES1   0.0000
    12 H3      -0.0004   4.1014   3.8757   H         1 RES1   0.0000
    13 H4       0.6644   4.0803   5.1316   H         1 RES1   0.0000
    14 H5       1.2272   4.8444   1.1026   H         1 RES1   0.0000
    15 H6       1.9777   5.8207   0.9913   H         1 RES1   0.0000
    16 H7       5.1740   7.9498   4.9070   H         1 RES1   0.0000
    17 H8       6.1062   5.8787   5.2985   H         1 RES1   0.0000
    18 O3A      4.3325   4.9973   2.3565   O.3       1 RES1   0.0000
    19 O5C      2.7708   2.7368   3.0004   O.3       1 RES1   0.0000
    20 Co1A     0.8875   8.4238   6.7880   Co.oh     1 RES1   0.0000
    21 Co1C     4.9465   1.8363   6.7880   Co.oh     1 RES1   0.0000
    22 O1       0.6529   3.2465   6.7472   O.3       2 RES2   0.0000
    23 H1       0.5255   3.7127   7.4053   H         2 RES2   0.0000
    24 H2       0.0338   2.6403   6.5341   H         2 RES2   0.0000
@<TRIPOS>BOND
     1     1     2    1
     2     2     8   un
     3     3     8   un
     4     4     1    1
     5     5    11   un
     6     6     1    1
     7     7     1    1
     8     8     9    1
     9     9    10    2
    10    10    11    1
    11    11     4   un
    12    12     7    1
    13    13     7    1
    14    14     6    1
    15    15     6    1
    16    16     9    1
    17    17    10    1
    18    18     1    1
    19    19     1    1
    20    20     3    1
    21    21     5    1
    22    22    23    1
    23    24    22    1
@<TRIPOS>SUBSTRUCTURE
     1 RES1        1 GROUP             0 ****  ****    0  
     2 RES2       22 GROUP             0 ****  ****    0  
@<TRIPOS>CRYSIN
    8.1180   13.1750    7.4970   90.0000  115.1700   90.0000     9     1
