####################################################################### 
# 
# This file contains crystal structure data downloaded from the 
# Cambridge Structural Database (CSD) hosted by the Cambridge 
# Crystallographic Data Centre (CCDC).
# 
# Full information about CCDC data access policies and citation 
# guidelines are available at http://www.ccdc.cam.ac.uk/access/V1 
# 
# Audit and citation data items may have been added by the CCDC. 
# Please retain this information to preserve the provenance of 
# this file and to allow appropriate attribution of the data. 
# 
#######################################################################
@<TRIPOS>MOLECULE
RURPEA
    38    38     2     0     0
SMALL
NO_CHARGES
****
Generated from the CSD

@<TRIPOS>ATOM
     1 Pt1      0.0000   0.0000   0.0000   Pt        1 RES1   0.0000
     2 Fe1      0.3769   3.7300  -3.7014   Fe        1 RES1   0.0000
     3 N1       2.6279   3.7300  -3.6199   N.2       1 RES1   0.0000
     4 N2       0.2953   2.2029  -2.2208   N.1       1 RES1   0.0000
     5 C1       3.3146   2.5886  -3.6643   C.2       1 RES1   0.0000
     6 H1       2.8574   1.7814  -3.6362   H         1 RES1   0.0000
     7 C2       0.2051   1.4099  -1.3991   C.1       1 RES1   0.0000
     8 Fe1      7.6579   3.7300  -3.7014   Fe        1 RES1   0.0000
     9 Fe1     -0.3769   3.7300   3.7014   Fe        1 RES1   0.0000
    10 Fe1      0.3769  -3.7300  -3.7014   Fe        1 RES1   0.0000
    11 Fe1     -0.3769  -3.7300   3.7014   Fe        1 RES1   0.0000
    12 N1A      5.4069   3.7300  -3.7828   N.2       1 RES1   0.0000
    13 N1A     -1.8741   3.7300  -3.7828   N.3       1 RES1   0.0000
    14 N2A     -0.2953   2.2029   2.2208   N.1       1 RES1   0.0000
    15 N2C      0.2953  -2.2029  -2.2208   N.1       1 RES1   0.0000
    16 N2B     -0.2953  -2.2029   2.2208   N.1       1 RES1   0.0000
    17 N2C      0.2953   5.2571  -2.2208   N.3       1 RES1   0.0000
    18 N2B      0.4585   5.2571  -5.1819   N.3       1 RES1   0.0000
    19 N2A      0.4585   2.2029  -5.1819   N.3       1 RES1   0.0000
    20 C1A      4.7201   2.5886  -3.7384   C.2       1 RES1   0.0000
    21 C1B      4.7201   4.8714  -3.7384   C.2       1 RES1   0.0000
    22 C1C      3.3146   4.8714  -3.6643   C.2       1 RES1   0.0000
    23 H1B      5.1773   5.6786  -3.7665   H         1 RES1   0.0000
    24 H1C      2.8574   5.6786  -3.6362   H         1 RES1   0.0000
    25 H1A      5.1773   1.7814  -3.7665   H         1 RES1   0.0000
    26 C2A     -0.2051   1.4099   1.3991   C.1       1 RES1   0.0000
    27 C2C      0.2051  -1.4099  -1.3991   C.1       1 RES1   0.0000
    28 C2B     -0.2051  -1.4099   1.3991   C.1       1 RES1   0.0000
    29 N3       2.3781   3.7300   0.3849   N.2       2 RES2   0.0000
    30 C3       3.0165   2.5737   0.2221   C.2       2 RES2   0.0000
    31 H2       2.5883   1.7732   0.4160   H         2 RES2   0.0000
    32 N3A      4.9029   3.7300  -0.3849   N.2       2 RES2   0.0000
    33 C3A      4.2645   2.5737  -0.2221   C.2       2 RES2   0.0000
    34 C3B      4.2645   4.8863  -0.2221   C.2       2 RES2   0.0000
    35 C3C      3.0165   4.8863   0.2221   C.2       2 RES2   0.0000
    36 H2B      4.6927   5.6868  -0.4160   H         2 RES2   0.0000
    37 H2C      2.5883   5.6868   0.4160   H         2 RES2   0.0000
    38 H2A      4.6927   1.7732  -0.4160   H         2 RES2   0.0000
@<TRIPOS>BOND
     1     1     7    1
     2     2     3    1
     3     3     5    2
     4     4     2    1
     5     5     6    1
     6     7     4    3
     7     8    12    1
     8     9    14    1
     9    10    15    1
    10    11    16    1
    11    12    20    2
    12    13     2    1
    13    14    26    3
    14    15    27    3
    15    16    28    3
    16    17     2    1
    17    18     2    1
    18    19     2    1
    19    20     5    1
    20    21    12    1
    21    22     3    1
    22    23    21    1
    23    24    22    1
    24    25    20    1
    25    26     1    1
    26    27     1    1
    27    28     1    1
    28    21    22    2
    29    29    30    2
    30    30    31    1
    31    32    33    2
    32    33    30    1
    33    34    32    1
    34    35    29    1
    35    36    34    1
    36    37    35    1
    37    38    33    1
    38    34    35    2
@<TRIPOS>SUBSTRUCTURE
     1 RES1        1 GROUP             0 ****  ****    0  
     2 RES2       29 GROUP             0 ****  ****    0  
@<TRIPOS>CRYSIN
    7.2810    7.4600    7.4410   90.0000   95.8140   90.0000    10     1
