####################################################################### 
# 
# This file contains crystal structure data downloaded from the 
# Cambridge Structural Database (CSD) hosted by the Cambridge 
# Crystallographic Data Centre (CCDC).
# 
# Full information about CCDC data access policies and citation 
# guidelines are available at http://www.ccdc.cam.ac.uk/access/V1 
# 
# Audit and citation data items may have been added by the CCDC. 
# Please retain this information to preserve the provenance of 
# this file and to allow appropriate attribution of the data. 
# 
#######################################################################
@<TRIPOS>MOLECULE
RURPAW
    35    34     2     0     0
SMALL
NO_CHARGES
****
Generated from the CSD

@<TRIPOS>ATOM
     1 S1       0.0000   7.1220   3.5875   S.3       1 RES1   0.0000
     2 S2       0.0000   4.0581   3.5875   S.3       1 RES1   0.0000
     3 C3       0.0000   5.5908   3.5875   C.2       1 RES1   0.0000
     4 S2A      0.0000   3.0639   3.5875   S.3       1 RES1   0.0000
     5 S2A      0.0000  10.1859   3.5875   S.2       1 RES1   0.0000
     6 C3A      0.0000   8.6532   3.5875   C.1       1 RES1   0.0000
     7 C3A      0.0000   1.5312   3.5875   C.3       1 RES1   0.0000
     8 Pt1     10.1055   3.5610  -3.5875   Pt        2 RES2   0.0000
     9 Fe1     10.1055   0.0000   0.0000   Fe        2 RES2   0.0000
    10 N1      10.1055   1.3624  -1.3625   N.1       2 RES2   0.0000
    11 N2       8.1343   0.0000   0.0000   N.2       2 RES2   0.0000
    12 C1      10.1055   2.1630  -2.1869   C.1       2 RES2   0.0000
    13 C2       7.4242  -1.1338   0.0000   C.2       2 RES2   0.0000
    14 H1       7.8850  -1.9642   0.0000   H         2 RES2   0.0000
    15 Fe1     10.1055   7.1220   0.0000   Fe        2 RES2   0.0000
    16 Fe1     10.1055   7.1220  -7.1750   Fe        2 RES2   0.0000
    17 Fe1     10.1055  -0.0000  -7.1750   Fe        2 RES2   0.0000
    18 Fe1      3.3685   0.0000   0.0000   Fe        2 RES2   0.0000
    19 N1A     10.1055   5.7596  -1.3625   N.1       2 RES2   0.0000
    20 N1B     10.1055   5.7596  -5.8125   N.1       2 RES2   0.0000
    21 N1C     10.1055   1.3624  -5.8125   N.1       2 RES2   0.0000
    22 N1B     10.1055  -1.3624   1.3625   N.3       2 RES2   0.0000
    23 N1A     10.1055  -1.3624  -1.3625   N.3       2 RES2   0.0000
    24 N1C     10.1055   1.3624   1.3625   N.3       2 RES2   0.0000
    25 N2A     12.0767   0.0000   0.0000   N.3       2 RES2   0.0000
    26 N2A      5.3397   0.0000   0.0000   N.2       2 RES2   0.0000
    27 C1A     10.1055   4.9590  -2.1869   C.1       2 RES2   0.0000
    28 C1B     10.1055   4.9590  -4.9881   C.1       2 RES2   0.0000
    29 C1C     10.1055   2.1630  -4.9881   C.1       2 RES2   0.0000
    30 C2B      7.4242   1.1338   0.0000   C.2       2 RES2   0.0000
    31 C2C      6.0498  -1.1338   0.0000   C.2       2 RES2   0.0000
    32 C2A      6.0498   1.1338   0.0000   C.2       2 RES2   0.0000
    33 H1B      7.8850   1.9642   0.0000   H         2 RES2   0.0000
    34 H1C      5.5890  -1.9642   0.0000   H         2 RES2   0.0000
    35 H1A      5.5890   1.9642   0.0000   H         2 RES2   0.0000
@<TRIPOS>BOND
     1     1     3    1
     2     2     3    1
     3     4     2    1
     4     5     6    3
     5     6     1    1
     6     7     4    1
     7     8    12    1
     8     9    10    1
     9    10    12    3
    10    11     9    1
    11    13    11    1
    12    14    13    1
    13    15    19    1
    14    16    20    1
    15    17    21    1
    16    18    26    1
    17    19    27    3
    18    20    28    3
    19    21    29    3
    20    22     9    1
    21    23     9    1
    22    24     9    1
    23    25     9    1
    24    26    31    1
    25    27     8    1
    26    28     8    1
    27    29     8    1
    28    30    11    1
    29    31    13    2
    30    32    26    1
    31    33    30    1
    32    34    31    1
    33    35    32    1
    34    30    32    2
@<TRIPOS>SUBSTRUCTURE
     1 RES1        1 GROUP             0 ****  ****    0  
     2 RES2        8 GROUP             0 ****  ****    0  
@<TRIPOS>CRYSIN
    6.7370    7.1220    7.1750   90.0000   90.0000   90.0000    47     1
