####################################################################### 
# 
# This file contains crystal structure data downloaded from the 
# Cambridge Structural Database (CSD) hosted by the Cambridge 
# Crystallographic Data Centre (CCDC).
# 
# Full information about CCDC data access policies and citation 
# guidelines are available at http://www.ccdc.cam.ac.uk/access/V1 
# 
# Audit and citation data items may have been added by the CCDC. 
# Please retain this information to preserve the provenance of 
# this file and to allow appropriate attribution of the data. 
# 
#######################################################################
@<TRIPOS>MOLECULE
SOBZOY
    33    27     6     0     0
SMALL
NO_CHARGES
****
Generated from the CSD

@<TRIPOS>ATOM
     1 Cd1      0.0000   0.0000   0.0000   Cd        1 RES1   0.0000
     2 Ni1     -0.9747   3.8260   3.3834   Ni        1 RES1   0.0000
     3 N1      -1.0286   1.6957   1.2742   N.1       1 RES1   0.0000
     4 N2       1.8125   0.0000   1.4251   N.3       1 RES1   0.0000
     5 C1      -1.0351   2.5137   2.0686   C.1       1 RES1   0.0000
     6 C2       1.5638   0.0000   2.8915   C.3       1 RES1   0.0000
     7 C3       2.8234   0.0000   3.7109   C.3       1 RES1   0.0000
     8 C4       2.5732   0.0000   5.2017   C.3       1 RES1   0.0000
     9 C5       3.8706   0.0000   6.0042   C.3       1 RES1   0.0000
    10 N1A      1.0286   1.6957  -1.2742   N.1       1 RES1   0.0000
    11 N1B      1.0286  -1.6957  -1.2742   N.1       1 RES1   0.0000
    12 N1C     -1.0286  -1.6957   1.2742   N.1       1 RES1   0.0000
    13 N2A     -1.8125  -0.0000  -1.4251   N.3       1 RES1   0.0000
    14 C1A     -0.9142   2.5137   4.6982   C.3       1 RES1   0.0000
    15 C1B     -0.9142   5.1383   4.6982   C.3       1 RES1   0.0000
    16 C1C     -1.0351   5.1383   2.0686   C.3       1 RES1   0.0000
    17 C5A      3.5788   0.0000   7.5294   C.3       1 RES1   0.0000
    18 C1A      1.0351   2.5137  -2.0686   C.1       1 RES1   0.0000
    19 C1B      1.0351  -2.5137  -2.0686   C.1       1 RES1   0.0000
    20 C1C     -1.0351  -2.5137   2.0686   C.1       1 RES1   0.0000
    21 C4A      4.8762   0.0000   8.3320   C.3       1 RES1   0.0000
    22 Ni1      0.9747   3.8260  -3.3834   Ni        1 RES1   0.0000
    23 Ni1      0.9747  -3.8260  -3.3834   Ni        1 RES1   0.0000
    24 Ni1     -0.9747  -3.8260   3.3834   Ni        1 RES1   0.0000
    25 C3A      4.6260   0.0000   9.8227   C.3       1 RES1   0.0000
    26 C2A      5.8856   0.0000  10.6422   C.3       1 RES1   0.0000
    27 N2A      5.6368   0.0000  12.1086   N.3       1 RES1   0.0000
    28 Cd1      7.4494   0.0000  13.5337   Cd        1 RES1   0.0000
    29 C6?      5.2248   3.8260   2.9774   C.3       2 RES2   0.0000
    30 C7?      4.5658   3.8260   5.5014   C.3       3 RES3   0.0000
    31 C8?      6.1929   3.8260   5.8804   C.3       4 RES4   0.0000
    32 C9?      6.6442   3.8260   3.7624   C.3       5 RES5   0.0000
    33 C10?     6.8281   3.8260   5.2511   C.3       6 RES6   0.0000
@<TRIPOS>BOND
     1     1     3    1
     2     2     5    1
     3     3     5    3
     4     4     1    1
     5     6     4    1
     6     7     6    1
     7     8     7    1
     8     9     8    1
     9    10     1    1
    10    11     1    1
    11    12     1    1
    12    13     1    1
    13    14     2    1
    14    15     2    1
    15    16     2    1
    16    17     9    1
    17    18    10    3
    18    19    11    3
    19    20    12    3
    20    21    17    1
    21    22    18    1
    22    23    19    1
    23    24    20    1
    24    25    21    1
    25    26    25    1
    26    27    26    1
    27    28    27    1
@<TRIPOS>SUBSTRUCTURE
     1 RES1        1 GROUP             0 ****  ****    0  
     2 RES2       29 GROUP             0 ****  ****    0  
     3 RES3       30 GROUP             0 ****  ****    0  
     4 RES4       31 GROUP             0 ****  ****    0  
     5 RES5       32 GROUP             0 ****  ****    0  
     6 RES6       33 GROUP             0 ****  ****    0  
@<TRIPOS>CRYSIN
   11.3480    7.6520    7.0420   90.0000  106.0700   90.0000    10     1
