####################################################################### 
# 
# This file contains crystal structure data downloaded from the 
# Cambridge Structural Database (CSD) hosted by the Cambridge 
# Crystallographic Data Centre (CCDC).
# 
# Full information about CCDC data access policies and citation 
# guidelines are available at http://www.ccdc.cam.ac.uk/access/V1 
# 
# Audit and citation data items may have been added by the CCDC. 
# Please retain this information to preserve the provenance of 
# this file and to allow appropriate attribution of the data. 
# 
#######################################################################
@<TRIPOS>MOLECULE
TILVUF
    14    18     2     0     0
SMALL
NO_CHARGES
****
Generated from the CSD

@<TRIPOS>ATOM
     1 Cd1      2.6602   2.6602   0.0000   Cd        1 RES1   0.0000
     2 C1       2.3433   1.0953   1.5156   C.2       1 RES1   0.0000
     3 C2       4.6147   2.3881  -0.9070   C.2       1 RES1   0.0000
     4 C1D      1.0953   2.3433  -1.5156   C.3       1 RES1   0.0000
     5 C2D      2.3881   4.6147   0.9070   C.3       1 RES1   0.0000
     6 C2A      2.1009   0.1257   2.0765   C.2       1 RES1   0.0000
     7 C1E      5.5843   2.1457  -1.4679   C.2       1 RES1   0.0000
     8 Cl1      7.9725   8.1790  11.6834   Cl        2 RES2   0.0000
     9 Cl2      5.4748   7.6008  13.4246   Cl        2 RES2   0.0000
    10 C3       7.0926   6.6437  12.2920   C.3       2 RES2   0.0000
    11 C4       6.1050   6.1948  12.4472   C.3       2 RES2   0.0000
    12 Cl1D     8.1790   7.9725  12.1846   Cl        2 RES2   0.0000
    13 C3D      6.6437   7.0926  11.5760   C.3       2 RES2   0.0000
    14 C4D      6.1948   6.1050  11.4208   C.3       2 RES2   0.0000
@<TRIPOS>BOND
     1     1     2    2
     2     2     6    2
     3     3     1    2
     4     4     1    1
     5     5     1    1
     6     7     3    2
     7     8    10    1
     8     9    11    1
     9    10    11    1
    10    11    13    1
    11    12     8    1
    12    13     8    1
    13    14    10    1
    14    10    12    1
    15    10    13    1
    16    11    14    1
    17    12    13    1
    18    13    14    1
@<TRIPOS>SUBSTRUCTURE
     1 RES1        1 GROUP             0 ****  ****    0  
     2 RES2        8 GROUP             0 ****  ****    0  
@<TRIPOS>CRYSIN
    8.9780    8.9780   11.9340   90.0000   90.0000   90.0000    92     1
