####################################################################### 
# 
# This file contains crystal structure data downloaded from the 
# Cambridge Structural Database (CSD) hosted by the Cambridge 
# Crystallographic Data Centre (CCDC).
# 
# Full information about CCDC data access policies and citation 
# guidelines are available at http://www.ccdc.cam.ac.uk/access/V1 
# 
# Audit and citation data items may have been added by the CCDC. 
# Please retain this information to preserve the provenance of 
# this file and to allow appropriate attribution of the data. 
# 
#######################################################################
@<TRIPOS>MOLECULE
UHISOU
    49    49     3     0     0
SMALL
NO_CHARGES
****
Generated from the CSD

@<TRIPOS>ATOM
     1 Mg1      6.3091  -3.5432  -7.8156   Mg        1 RES1   0.0000
     2 Mg2      6.9007   0.0000   0.0000   Mg        1 RES1   0.0000
     3 O1       3.3818   2.0002  -1.1443   O.co2     1 RES1   0.0000
     4 O2       4.3065  -2.6300  -1.6364   O.co2     1 RES1   0.0000
     5 O3       6.1819  -1.6663  -0.9261   O.co2     1 RES1   0.0000
     6 O4       5.1404   0.9309  -0.3254   O.co2     1 RES1   0.0000
     7 C1       4.3442   1.1963  -1.2508   C.2       1 RES1   0.0000
     8 C2       4.5540   0.5716  -2.6057   C.2       1 RES1   0.0000
     9 C3       4.3166   1.3856  -3.7170   C.2       1 RES1   0.0000
    10 H1       4.0110   2.2541  -3.5882   H         1 RES1   0.0000
    11 C4       5.0143  -0.7367  -2.8039   C.2       1 RES1   0.0000
    12 C5       5.1834  -1.7387  -1.6911   C.2       1 RES1   0.0000
    13 O5       4.3837  -3.4033  -8.5830   O.3       1 RES1   0.0000
    14 H2       3.9259  -4.0245  -8.1853   H         1 RES1   0.0000
    15 H3       3.9878  -2.7377  -8.5925   H         1 RES1   0.0000
    16 O6       6.0206  -0.7676   1.7892   O.3       1 RES1   0.0000
    17 H4       5.2956  -1.1352   1.6811   H         1 RES1   0.0000
    18 H5       6.2476  -0.9847   2.5956   H         1 RES1   0.0000
    19 Mg1      3.6675  -3.7298   0.0000   Mg        1 RES1   0.0000
    20 Mg1      3.2332   3.7298   0.0000   Mg        1 RES1   0.0000
    21 Mg1      5.8748   3.9163  -7.8156   Mg        1 RES1   0.0000
    22 Mg2      2.6416   0.1865  -7.8156   Mg        1 RES1   0.0000
    23 O1A      6.1605  -1.8137  -6.6713   O.co2     1 RES1   0.0000
    24 O1       6.4578  -5.2728  -8.9599   O.3       1 RES1   0.0000
    25 O2A      5.2359   2.8166  -6.1792   O.co2     1 RES1   0.0000
    26 O2       6.9481  -2.4435  -9.4521   O.3       1 RES1   0.0000
    27 O2A      5.6702  -4.6430  -6.1792   O.3       1 RES1   0.0000
    28 O3A      3.3604   1.8528  -6.8896   O.co2     1 RES1   0.0000
    29 O3A      7.6195   1.6663   0.9261   O.3       1 RES1   0.0000
    30 O4A      4.4019  -0.7443  -7.4902   O.co2     1 RES1   0.0000
    31 O4A      8.6610  -0.9309   0.3254   O.3       1 RES1   0.0000
    32 C1A      5.1982  -1.0098  -6.5648   C.2       1 RES1   0.0000
    33 C2A      4.9884  -0.3851  -5.2100   C.2       1 RES1   0.0000
    34 C3A      5.2258  -1.1990  -4.0986   C.2       1 RES1   0.0000
    35 H1A      5.5313  -2.0676  -4.2275   H         1 RES1   0.0000
    36 C4A      4.5280   0.9232  -5.0117   C.2       1 RES1   0.0000
    37 C5A      4.3590   1.9252  -6.1246   C.2       1 RES1   0.0000
    38 O5A      8.2346  -3.6831  -7.0482   O.3       1 RES1   0.0000
    39 H2A      8.6924  -3.0620  -7.4460   H         1 RES1   0.0000
    40 H3A      8.6305  -4.3488  -7.0388   H         1 RES1   0.0000
    41 O6A      7.7808   0.7676  -1.7892   O.3       1 RES1   0.0000
    42 H4A      8.5058   1.1352  -1.6811   H         1 RES1   0.0000
    43 H5A      7.5538   0.9847  -2.5956   H         1 RES1   0.0000
    44 O7       0.7380   1.8252  -4.4924   O.3       2 RES2   0.0000
    45 H6       0.9238   1.1697  -4.3439   H         2 RES2   0.0000
    46 H7       0.0100   2.0753  -4.9074   H         2 RES2   0.0000
    47 O8       0.1640   3.2973  -3.7898   O.3       3 RES3   0.0000
    48 H8      -0.0258   3.8583  -3.1356   H         3 RES3   0.0000
    49 H9      -0.2152   3.1510  -4.5362   H         3 RES3   0.0000
@<TRIPOS>BOND
     1     1    13    1
     2     2     5    1
     3     3     7   un
     4     4    12   un
     5     5    12   un
     6     6     2    1
     7     7     6   un
     8     8     7    1
     9     9     8    1
    10    10     9    1
    11    11     8    2
    12    12    11    1
    13    13    14    1
    14    15    13    1
    15    16     2    1
    16    17    16    1
    17    18    16    1
    18    19     4    1
    19    20     3    1
    20    21    25    1
    21    22    28    1
    22    23     1    1
    23    24     1    1
    24    25    37   un
    25    26     1    1
    26    27     1    1
    27    28    37   un
    28    29     2    1
    29    30    22    1
    30    31     2    1
    31    32    23   un
    32    33    32    1
    33    34    11    1
    34    35    34    1
    35    36     9    2
    36    37    36    1
    37    38     1    1
    38    39    38    1
    39    40    38    1
    40    41     2    1
    41    42    41    1
    42    43    41    1
    43    30    32   un
    44    33    34    2
    45    33    36    1
    46    44    45    1
    47    46    44    1
    48    47    48    1
    49    49    47    1
@<TRIPOS>SUBSTRUCTURE
     1 RES1        1 GROUP             0 ****  ****    0  
     2 RES2       44 GROUP             0 ****  ****    0  
     3 RES3       47 GROUP             0 ****  ****    0  
@<TRIPOS>CRYSIN
    6.9007    7.4722    8.2521   90.2270  108.6700   93.3320     2     1
