####################################################################### 
# 
# This file contains crystal structure data downloaded from the 
# Cambridge Structural Database (CSD) hosted by the Cambridge 
# Crystallographic Data Centre (CCDC).
# 
# Full information about CCDC data access policies and citation 
# guidelines are available at http://www.ccdc.cam.ac.uk/access/V1 
# 
# Audit and citation data items may have been added by the CCDC. 
# Please retain this information to preserve the provenance of 
# this file and to allow appropriate attribution of the data. 
# 
#######################################################################
@<TRIPOS>MOLECULE
XOMCIL
    31    38     1     0     0
SMALL
NO_CHARGES
****
Generated from the CSD

@<TRIPOS>ATOM
     1 Er1      0.0132  11.8360  -0.0095   Er        1 RES1   0.0000
     2 O1      -0.4063  12.2463  -2.3654   O.co2     1 RES1   0.0000
     3 O2      -1.3291  13.8159  -0.0662   O.co2     1 RES1   0.0000
     4 C1      -1.5031  11.5779  -2.3607   C.2       1 RES1   0.0000
     5 C2      -0.7774  14.9200   0.0237   C.2       1 RES1   0.0000
     6 C3       0.7540  14.9200   0.0142   C.2       1 RES1   0.0000
     7 O3       1.3138  13.7861  -0.0662   O.co2     1 RES1   0.0000
     8 O4      -1.9718  11.2198  -1.2679   O.co2     1 RES1   0.0000
     9 O5      -1.9670  11.2348  -3.5339   O.co2     1 RES1   0.0000
    10 O6       0.0146   9.5369   0.4400   O.3       1 RES1   0.0000
    11 O2A     -1.3291  16.0241  -0.0662   O.co2     1 RES1   0.0000
    12 O3A      1.3138  16.0539  -0.0662   O.co2     1 RES1   0.0000
    13 O1      -0.4162  12.2463   2.3654   O.co2     1 RES1   0.0000
    14 C1      -1.5130  11.5779   2.3701   C.2       1 RES1   0.0000
    15 O4      -1.9817  11.2198   3.4629   O.co2     1 RES1   0.0000
    16 O5      -1.9770  11.2348   1.1969   O.co2     1 RES1   0.0000
    17 Er1      0.0033  11.8360   4.7213   Er        1 RES1   0.0000
    18 O6       0.0047   9.5369   5.1708   O.3       1 RES1   0.0000
    19 O4C      1.9149  11.1602  -1.2679   O.3       1 RES1   0.0000
    20 O5C      1.9097  11.1452   1.1969   O.3       1 RES1   0.0000
    21 Er1      0.0231  11.8360  -4.7403   Er        1 RES1   0.0000
    22 Er1C    -3.8735  10.5440  -0.0095   Er        1 RES1   0.0000
    23 Er1C    -3.8636  10.5440  -4.7403   Er        1 RES1   0.0000
    24 Er1A     0.0132  18.0040  -0.0095   Er        1 RES1   0.0000
    25 Er1C    -3.8834  10.5440   4.7213   Er        1 RES1   0.0000
    26 O1      -0.4261  12.2463   7.0962   O.3       1 RES1   0.0000
    27 O2      -1.3390  13.8159   4.6646   O.3       1 RES1   0.0000
    28 O3       1.3039  13.7861   4.6646   O.3       1 RES1   0.0000
    29 O4C      1.9050  11.1602   3.4629   O.3       1 RES1   0.0000
    30 O5      -1.9869  11.2348   5.9277   O.3       1 RES1   0.0000
    31 O5C      1.8998  11.1452   5.9277   O.3       1 RES1   0.0000
@<TRIPOS>BOND
     1     1     2    1
     2     2     4   un
     3     3     1    1
     4     4     8   un
     5     5     3   un
     6     6     5   un
     7     7     1    1
     8     8     1    1
     9     9     4   un
    10    10     1    1
    11    11     5   un
    12    12     6   un
    13    13     1    1
    14    14    13   un
    15    15    14   un
    16    16     1    1
    17    17    13    1
    18    18    17    1
    19    19     1    1
    20    20     1    1
    21    21     2    1
    22    22     8    1
    23    23     9    1
    24    24    11    1
    25    25    15    1
    26    26    17    1
    27    27    17    1
    28    28    17    1
    29    29    17    1
    30    30    17    1
    31    31    17    1
    32     6     7   un
    33     9    21    1
    34    12    24    1
    35    14    16   un
    36    15    17    1
    37    16    22    1
    38    25    30    1
@<TRIPOS>SUBSTRUCTURE
     1 RES1        1 GROUP             0 ****  ****    0  
@<TRIPOS>CRYSIN
    7.7734   14.9200    4.7308   90.0000   90.1200   90.0000     8     1
