data_image0
_cell_length_a       46.73
_cell_length_b       46.73
_cell_length_c       46.73
_cell_angle_alpha    90
_cell_angle_beta     90
_cell_angle_gamma    90

_symmetry_space_group_name_H-M    "P 1"
_symmetry_int_tables_number       1

loop_
  _symmetry_equiv_pos_as_xyz
  'x, y, z'

loop_
  _atom_site_label
  _atom_site_occupancy
  _atom_site_fract_x
  _atom_site_fract_y
  _atom_site_fract_z
  _atom_site_thermal_displace_type
  _atom_site_B_iso_or_equiv
  _atom_site_type_symbol
  C1       1.0000 0.69750  0.21560  0.02040  Biso   1.000  C
  H1       1.0000 0.68370  0.21500  0.03480  Biso   1.000  H
  C2       1.0000 0.71920  0.23722  0.02101  Biso   1.000  C
  H2       1.0000 0.71970  0.25020  0.03600  Biso   1.000  H
  C3       1.0000 0.69750  0.71560  0.52040  Biso   1.000  C
  H3       1.0000 0.68370  0.71500  0.53480  Biso   1.000  H
  C4       1.0000 0.71920  0.73722  0.52101  Biso   1.000  C
  H4       1.0000 0.71970  0.75020  0.53600  Biso   1.000  H
  C5       1.0000 0.19750  0.21560  0.52040  Biso   1.000  C
  H5       1.0000 0.18370  0.21500  0.53480  Biso   1.000  H
  C6       1.0000 0.21920  0.23722  0.52101  Biso   1.000  C
  H6       1.0000 0.21970  0.25020  0.53600  Biso   1.000  H
  C7       1.0000 0.19750  0.71560  0.02040  Biso   1.000  C
  H7       1.0000 0.18370  0.71500  0.03480  Biso   1.000  H
  C8       1.0000 0.21920  0.73722  0.02101  Biso   1.000  C
  H8       1.0000 0.21970  0.75020  0.03600  Biso   1.000  H
  C9       1.0000 0.30250  0.78440  0.02040  Biso   1.000  C
  H9       1.0000 0.31630  0.78500  0.03480  Biso   1.000  H
  C10      1.0000 0.28080  0.76278  0.02101  Biso   1.000  C
  H10      1.0000 0.28030  0.74980  0.03600  Biso   1.000  H
  C11      1.0000 0.30250  0.28440  0.52040  Biso   1.000  C
  H11      1.0000 0.31630  0.28500  0.53480  Biso   1.000  H
  C12      1.0000 0.28080  0.26278  0.52101  Biso   1.000  C
  H12      1.0000 0.28030  0.24980  0.53600  Biso   1.000  H
  C13      1.0000 0.80250  0.78440  0.52040  Biso   1.000  C
  H13      1.0000 0.81630  0.78500  0.53480  Biso   1.000  H
  C14      1.0000 0.78080  0.76278  0.52101  Biso   1.000  C
  H14      1.0000 0.78030  0.74980  0.53600  Biso   1.000  H
  C15      1.0000 0.80250  0.28440  0.02040  Biso   1.000  C
  H15      1.0000 0.81630  0.28500  0.03480  Biso   1.000  H
  C16      1.0000 0.78080  0.26278  0.02101  Biso   1.000  C
  H16      1.0000 0.78030  0.24980  0.03600  Biso   1.000  H
  C17      1.0000 0.30250  0.21560  0.97960  Biso   1.000  C
  H17      1.0000 0.31630  0.21500  0.96520  Biso   1.000  H
  C18      1.0000 0.28080  0.23722  0.97899  Biso   1.000  C
  H18      1.0000 0.28030  0.25020  0.96400  Biso   1.000  H
  C19      1.0000 0.30250  0.71560  0.47960  Biso   1.000  C
  H19      1.0000 0.31630  0.71500  0.46520  Biso   1.000  H
  C20      1.0000 0.28080  0.73722  0.47899  Biso   1.000  C
  H20      1.0000 0.28030  0.75020  0.46400  Biso   1.000  H
  C21      1.0000 0.80250  0.21560  0.47960  Biso   1.000  C
  H21      1.0000 0.81630  0.21500  0.46520  Biso   1.000  H
  C22      1.0000 0.78080  0.23722  0.47899  Biso   1.000  C
  H22      1.0000 0.78030  0.25020  0.46400  Biso   1.000  H
  C23      1.0000 0.80250  0.71560  0.97960  Biso   1.000  C
  H23      1.0000 0.81630  0.71500  0.96520  Biso   1.000  H
  C24      1.0000 0.78080  0.73722  0.97899  Biso   1.000  C
  H24      1.0000 0.78030  0.75020  0.96400  Biso   1.000  H
  C25      1.0000 0.69750  0.78440  0.97960  Biso   1.000  C
  H25      1.0000 0.68370  0.78500  0.96520  Biso   1.000  H
  C26      1.0000 0.71920  0.76278  0.97899  Biso   1.000  C
  H26      1.0000 0.71970  0.74980  0.96400  Biso   1.000  H
  C27      1.0000 0.69750  0.28440  0.47960  Biso   1.000  C
  H27      1.0000 0.68370  0.28500  0.46520  Biso   1.000  H
  C28      1.0000 0.71920  0.26278  0.47899  Biso   1.000  C
  H28      1.0000 0.71970  0.24980  0.46400  Biso   1.000  H
  C29      1.0000 0.19750  0.78440  0.47960  Biso   1.000  C
  H29      1.0000 0.18370  0.78500  0.46520  Biso   1.000  H
  C30      1.0000 0.21920  0.76278  0.47899  Biso   1.000  C
  H30      1.0000 0.21970  0.74980  0.46400  Biso   1.000  H
  C31      1.0000 0.19750  0.28440  0.97960  Biso   1.000  C
  H31      1.0000 0.18370  0.28500  0.96520  Biso   1.000  H
  C32      1.0000 0.21920  0.26278  0.97899  Biso   1.000  C
  H32      1.0000 0.21970  0.24980  0.96400  Biso   1.000  H
  C33      1.0000 0.02040  0.69750  0.21560  Biso   1.000  C
  H33      1.0000 0.03480  0.68370  0.21500  Biso   1.000  H
  C34      1.0000 0.02101  0.71920  0.23722  Biso   1.000  C
  H34      1.0000 0.03600  0.71970  0.25020  Biso   1.000  H
  C35      1.0000 0.02040  0.19750  0.71560  Biso   1.000  C
  H35      1.0000 0.03480  0.18370  0.71500  Biso   1.000  H
  C36      1.0000 0.02101  0.21920  0.73722  Biso   1.000  C
  H36      1.0000 0.03600  0.21970  0.75020  Biso   1.000  H
  C37      1.0000 0.52040  0.69750  0.71560  Biso   1.000  C
  H37      1.0000 0.53480  0.68370  0.71500  Biso   1.000  H
  C38      1.0000 0.52101  0.71920  0.73722  Biso   1.000  C
  H38      1.0000 0.53600  0.71970  0.75020  Biso   1.000  H
  C39      1.0000 0.52040  0.19750  0.21560  Biso   1.000  C
  H39      1.0000 0.53480  0.18370  0.21500  Biso   1.000  H
  C40      1.0000 0.52101  0.21920  0.23722  Biso   1.000  C
  H40      1.0000 0.53600  0.21970  0.25020  Biso   1.000  H
  C41      1.0000 0.02040  0.30250  0.78440  Biso   1.000  C
  H41      1.0000 0.03480  0.31630  0.78500  Biso   1.000  H
  C42      1.0000 0.02101  0.28080  0.76278  Biso   1.000  C
  H42      1.0000 0.03600  0.28030  0.74980  Biso   1.000  H
  C43      1.0000 0.02040  0.80250  0.28440  Biso   1.000  C
  H43      1.0000 0.03480  0.81630  0.28500  Biso   1.000  H
  C44      1.0000 0.02101  0.78080  0.26278  Biso   1.000  C
  H44      1.0000 0.03600  0.78030  0.24980  Biso   1.000  H
  C45      1.0000 0.52040  0.30250  0.28440  Biso   1.000  C
  H45      1.0000 0.53480  0.31630  0.28500  Biso   1.000  H
  C46      1.0000 0.52101  0.28080  0.26278  Biso   1.000  C
  H46      1.0000 0.53600  0.28030  0.24980  Biso   1.000  H
  C47      1.0000 0.52040  0.80250  0.78440  Biso   1.000  C
  H47      1.0000 0.53480  0.81630  0.78500  Biso   1.000  H
  C48      1.0000 0.52101  0.78080  0.76278  Biso   1.000  C
  H48      1.0000 0.53600  0.78030  0.74980  Biso   1.000  H
  C49      1.0000 0.97960  0.30250  0.21560  Biso   1.000  C
  H49      1.0000 0.96520  0.31630  0.21500  Biso   1.000  H
  C50      1.0000 0.97899  0.28080  0.23722  Biso   1.000  C
  H50      1.0000 0.96400  0.28030  0.25020  Biso   1.000  H
  C51      1.0000 0.97960  0.80250  0.71560  Biso   1.000  C
  H51      1.0000 0.96520  0.81630  0.71500  Biso   1.000  H
  C52      1.0000 0.97899  0.78080  0.73722  Biso   1.000  C
  H52      1.0000 0.96400  0.78030  0.75020  Biso   1.000  H
  C53      1.0000 0.47960  0.30250  0.71560  Biso   1.000  C
  H53      1.0000 0.46520  0.31630  0.71500  Biso   1.000  H
  C54      1.0000 0.47899  0.28080  0.73722  Biso   1.000  C
  H54      1.0000 0.46400  0.28030  0.75020  Biso   1.000  H
  C55      1.0000 0.47960  0.80250  0.21560  Biso   1.000  C
  H55      1.0000 0.46520  0.81630  0.21500  Biso   1.000  H
  C56      1.0000 0.47899  0.78080  0.23722  Biso   1.000  C
  H56      1.0000 0.46400  0.78030  0.25020  Biso   1.000  H
  C57      1.0000 0.97960  0.69750  0.78440  Biso   1.000  C
  H57      1.0000 0.96520  0.68370  0.78500  Biso   1.000  H
  C58      1.0000 0.97899  0.71920  0.76278  Biso   1.000  C
  H58      1.0000 0.96400  0.71970  0.74980  Biso   1.000  H
  C59      1.0000 0.97960  0.19750  0.28440  Biso   1.000  C
  H59      1.0000 0.96520  0.18370  0.28500  Biso   1.000  H
  C60      1.0000 0.97899  0.21920  0.26278  Biso   1.000  C
  H60      1.0000 0.96400  0.21970  0.24980  Biso   1.000  H
  C61      1.0000 0.47960  0.69750  0.28440  Biso   1.000  C
  H61      1.0000 0.46520  0.68370  0.28500  Biso   1.000  H
  C62      1.0000 0.47899  0.71920  0.26278  Biso   1.000  C
  H62      1.0000 0.46400  0.71970  0.24980  Biso   1.000  H
  C63      1.0000 0.47960  0.19750  0.78440  Biso   1.000  C
  H63      1.0000 0.46520  0.18370  0.78500  Biso   1.000  H
  C64      1.0000 0.47899  0.21920  0.76278  Biso   1.000  C
  H64      1.0000 0.46400  0.21970  0.74980  Biso   1.000  H
  C65      1.0000 0.21560  0.02040  0.69750  Biso   1.000  C
  H65      1.0000 0.21500  0.03480  0.68370  Biso   1.000  H
  C66      1.0000 0.23722  0.02101  0.71920  Biso   1.000  C
  H66      1.0000 0.25020  0.03600  0.71970  Biso   1.000  H
  C67      1.0000 0.21560  0.52040  0.19750  Biso   1.000  C
  H67      1.0000 0.21500  0.53480  0.18370  Biso   1.000  H
  C68      1.0000 0.23722  0.52101  0.21920  Biso   1.000  C
  H68      1.0000 0.25020  0.53600  0.21970  Biso   1.000  H
  C69      1.0000 0.71560  0.02040  0.19750  Biso   1.000  C
  H69      1.0000 0.71500  0.03480  0.18370  Biso   1.000  H
  C70      1.0000 0.73722  0.02101  0.21920  Biso   1.000  C
  H70      1.0000 0.75020  0.03600  0.21970  Biso   1.000  H
  C71      1.0000 0.71560  0.52040  0.69750  Biso   1.000  C
  H71      1.0000 0.71500  0.53480  0.68370  Biso   1.000  H
  C72      1.0000 0.73722  0.52101  0.71920  Biso   1.000  C
  H72      1.0000 0.75020  0.53600  0.71970  Biso   1.000  H
  C73      1.0000 0.78440  0.02040  0.30250  Biso   1.000  C
  H73      1.0000 0.78500  0.03480  0.31630  Biso   1.000  H
  C74      1.0000 0.76278  0.02101  0.28080  Biso   1.000  C
  H74      1.0000 0.74980  0.03600  0.28030  Biso   1.000  H
  C75      1.0000 0.78440  0.52040  0.80250  Biso   1.000  C
  H75      1.0000 0.78500  0.53480  0.81630  Biso   1.000  H
  C76      1.0000 0.76278  0.52101  0.78080  Biso   1.000  C
  H76      1.0000 0.74980  0.53600  0.78030  Biso   1.000  H
  C77      1.0000 0.28440  0.02040  0.80250  Biso   1.000  C
  H77      1.0000 0.28500  0.03480  0.81630  Biso   1.000  H
  C78      1.0000 0.26278  0.02101  0.78080  Biso   1.000  C
  H78      1.0000 0.24980  0.03600  0.78030  Biso   1.000  H
  C79      1.0000 0.28440  0.52040  0.30250  Biso   1.000  C
  H79      1.0000 0.28500  0.53480  0.31630  Biso   1.000  H
  C80      1.0000 0.26278  0.52101  0.28080  Biso   1.000  C
  H80      1.0000 0.24980  0.53600  0.28030  Biso   1.000  H
  C81      1.0000 0.21560  0.97960  0.30250  Biso   1.000  C
  H81      1.0000 0.21500  0.96520  0.31630  Biso   1.000  H
  C82      1.0000 0.23722  0.97899  0.28080  Biso   1.000  C
  H82      1.0000 0.25020  0.96400  0.28030  Biso   1.000  H
  C83      1.0000 0.21560  0.47960  0.80250  Biso   1.000  C
  H83      1.0000 0.21500  0.46520  0.81630  Biso   1.000  H
  C84      1.0000 0.23722  0.47899  0.78080  Biso   1.000  C
  H84      1.0000 0.25020  0.46400  0.78030  Biso   1.000  H
  C85      1.0000 0.71560  0.97960  0.80250  Biso   1.000  C
  H85      1.0000 0.71500  0.96520  0.81630  Biso   1.000  H
  C86      1.0000 0.73722  0.97899  0.78080  Biso   1.000  C
  H86      1.0000 0.75020  0.96400  0.78030  Biso   1.000  H
  C87      1.0000 0.71560  0.47960  0.30250  Biso   1.000  C
  H87      1.0000 0.71500  0.46520  0.31630  Biso   1.000  H
  C88      1.0000 0.73722  0.47899  0.28080  Biso   1.000  C
  H88      1.0000 0.75020  0.46400  0.28030  Biso   1.000  H
  C89      1.0000 0.78440  0.97960  0.69750  Biso   1.000  C
  H89      1.0000 0.78500  0.96520  0.68370  Biso   1.000  H
  C90      1.0000 0.76278  0.97899  0.71920  Biso   1.000  C
  H90      1.0000 0.74980  0.96400  0.71970  Biso   1.000  H
  C91      1.0000 0.78440  0.47960  0.19750  Biso   1.000  C
  H91      1.0000 0.78500  0.46520  0.18370  Biso   1.000  H
  C92      1.0000 0.76278  0.47899  0.21920  Biso   1.000  C
  H92      1.0000 0.74980  0.46400  0.21970  Biso   1.000  H
  C93      1.0000 0.28440  0.97960  0.19750  Biso   1.000  C
  H93      1.0000 0.28500  0.96520  0.18370  Biso   1.000  H
  C94      1.0000 0.26278  0.97899  0.21920  Biso   1.000  C
  H94      1.0000 0.24980  0.96400  0.21970  Biso   1.000  H
  C95      1.0000 0.28440  0.47960  0.69750  Biso   1.000  C
  H95      1.0000 0.28500  0.46520  0.68370  Biso   1.000  H
  C96      1.0000 0.26278  0.47899  0.71920  Biso   1.000  C
  H96      1.0000 0.24980  0.46400  0.71970  Biso   1.000  H
  C97      1.0000 0.21560  0.69750  0.97960  Biso   1.000  C
  H97      1.0000 0.21500  0.68370  0.96520  Biso   1.000  H
  C98      1.0000 0.23722  0.71920  0.97899  Biso   1.000  C
  H98      1.0000 0.25020  0.71970  0.96400  Biso   1.000  H
  C99      1.0000 0.21560  0.19750  0.47960  Biso   1.000  C
  H99      1.0000 0.21500  0.18370  0.46520  Biso   1.000  H
  C100     1.0000 0.23722  0.21920  0.47899  Biso   1.000  C
  H100     1.0000 0.25020  0.21970  0.46400  Biso   1.000  H
  C101     1.0000 0.71560  0.69750  0.47960  Biso   1.000  C
  H101     1.0000 0.71500  0.68370  0.46520  Biso   1.000  H
  C102     1.0000 0.73722  0.71920  0.47899  Biso   1.000  C
  H102     1.0000 0.75020  0.71970  0.46400  Biso   1.000  H
  C103     1.0000 0.71560  0.19750  0.97960  Biso   1.000  C
  H103     1.0000 0.71500  0.18370  0.96520  Biso   1.000  H
  C104     1.0000 0.73722  0.21920  0.97899  Biso   1.000  C
  H104     1.0000 0.75020  0.21970  0.96400  Biso   1.000  H
  C105     1.0000 0.78440  0.30250  0.97960  Biso   1.000  C
  H105     1.0000 0.78500  0.31630  0.96520  Biso   1.000  H
  C106     1.0000 0.76278  0.28080  0.97899  Biso   1.000  C
  H106     1.0000 0.74980  0.28030  0.96400  Biso   1.000  H
  C107     1.0000 0.78440  0.80250  0.47960  Biso   1.000  C
  H107     1.0000 0.78500  0.81630  0.46520  Biso   1.000  H
  C108     1.0000 0.76278  0.78080  0.47899  Biso   1.000  C
  H108     1.0000 0.74980  0.78030  0.46400  Biso   1.000  H
  C109     1.0000 0.28440  0.30250  0.47960  Biso   1.000  C
  H109     1.0000 0.28500  0.31630  0.46520  Biso   1.000  H
  C110     1.0000 0.26278  0.28080  0.47899  Biso   1.000  C
  H110     1.0000 0.24980  0.28030  0.46400  Biso   1.000  H
  C111     1.0000 0.28440  0.80250  0.97960  Biso   1.000  C
  H111     1.0000 0.28500  0.81630  0.96520  Biso   1.000  H
  C112     1.0000 0.26278  0.78080  0.97899  Biso   1.000  C
  H112     1.0000 0.24980  0.78030  0.96400  Biso   1.000  H
  C113     1.0000 0.21560  0.30250  0.02040  Biso   1.000  C
  H113     1.0000 0.21500  0.31630  0.03480  Biso   1.000  H
  C114     1.0000 0.23722  0.28080  0.02101  Biso   1.000  C
  H114     1.0000 0.25020  0.28030  0.03600  Biso   1.000  H
  C115     1.0000 0.21560  0.80250  0.52040  Biso   1.000  C
  H115     1.0000 0.21500  0.81630  0.53480  Biso   1.000  H
  C116     1.0000 0.23722  0.78080  0.52101  Biso   1.000  C
  H116     1.0000 0.25020  0.78030  0.53600  Biso   1.000  H
  C117     1.0000 0.71560  0.30250  0.52040  Biso   1.000  C
  H117     1.0000 0.71500  0.31630  0.53480  Biso   1.000  H
  C118     1.0000 0.73722  0.28080  0.52101  Biso   1.000  C
  H118     1.0000 0.75020  0.28030  0.53600  Biso   1.000  H
  C119     1.0000 0.71560  0.80250  0.02040  Biso   1.000  C
  H119     1.0000 0.71500  0.81630  0.03480  Biso   1.000  H
  C120     1.0000 0.73722  0.78080  0.02101  Biso   1.000  C
  H120     1.0000 0.75020  0.78030  0.03600  Biso   1.000  H
  C121     1.0000 0.78440  0.69750  0.02040  Biso   1.000  C
  H121     1.0000 0.78500  0.68370  0.03480  Biso   1.000  H
  C122     1.0000 0.76278  0.71920  0.02101  Biso   1.000  C
  H122     1.0000 0.74980  0.71970  0.03600  Biso   1.000  H
  C123     1.0000 0.78440  0.19750  0.52040  Biso   1.000  C
  H123     1.0000 0.78500  0.18370  0.53480  Biso   1.000  H
  C124     1.0000 0.76278  0.21920  0.52101  Biso   1.000  C
  H124     1.0000 0.74980  0.21970  0.53600  Biso   1.000  H
  C125     1.0000 0.28440  0.69750  0.52040  Biso   1.000  C
  H125     1.0000 0.28500  0.68370  0.53480  Biso   1.000  H
  C126     1.0000 0.26278  0.71920  0.52101  Biso   1.000  C
  H126     1.0000 0.24980  0.71970  0.53600  Biso   1.000  H
  C127     1.0000 0.28440  0.19750  0.02040  Biso   1.000  C
  H127     1.0000 0.28500  0.18370  0.03480  Biso   1.000  H
  C128     1.0000 0.26278  0.21920  0.02101  Biso   1.000  C
  H128     1.0000 0.24980  0.21970  0.03600  Biso   1.000  H
  C129     1.0000 0.69750  0.02040  0.78440  Biso   1.000  C
  H129     1.0000 0.68370  0.03480  0.78500  Biso   1.000  H
  C130     1.0000 0.71920  0.02101  0.76278  Biso   1.000  C
  H130     1.0000 0.71970  0.03600  0.74980  Biso   1.000  H
  C131     1.0000 0.69750  0.52040  0.28440  Biso   1.000  C
  H131     1.0000 0.68370  0.53480  0.28500  Biso   1.000  H
  C132     1.0000 0.71920  0.52101  0.26278  Biso   1.000  C
  H132     1.0000 0.71970  0.53600  0.24980  Biso   1.000  H
  C133     1.0000 0.19750  0.02040  0.28440  Biso   1.000  C
  H133     1.0000 0.18370  0.03480  0.28500  Biso   1.000  H
  C134     1.0000 0.21920  0.02101  0.26278  Biso   1.000  C
  H134     1.0000 0.21970  0.03600  0.24980  Biso   1.000  H
  C135     1.0000 0.19750  0.52040  0.78440  Biso   1.000  C
  H135     1.0000 0.18370  0.53480  0.78500  Biso   1.000  H
  C136     1.0000 0.21920  0.52101  0.76278  Biso   1.000  C
  H136     1.0000 0.21970  0.53600  0.74980  Biso   1.000  H
  C137     1.0000 0.30250  0.02040  0.21560  Biso   1.000  C
  H137     1.0000 0.31630  0.03480  0.21500  Biso   1.000  H
  C138     1.0000 0.28080  0.02101  0.23722  Biso   1.000  C
  H138     1.0000 0.28030  0.03600  0.25020  Biso   1.000  H
  C139     1.0000 0.30250  0.52040  0.71560  Biso   1.000  C
  H139     1.0000 0.31630  0.53480  0.71500  Biso   1.000  H
  C140     1.0000 0.28080  0.52101  0.73722  Biso   1.000  C
  H140     1.0000 0.28030  0.53600  0.75020  Biso   1.000  H
  C141     1.0000 0.80250  0.02040  0.71560  Biso   1.000  C
  H141     1.0000 0.81630  0.03480  0.71500  Biso   1.000  H
  C142     1.0000 0.78080  0.02101  0.73722  Biso   1.000  C
  H142     1.0000 0.78030  0.03600  0.75020  Biso   1.000  H
  C143     1.0000 0.80250  0.52040  0.21560  Biso   1.000  C
  H143     1.0000 0.81630  0.53480  0.21500  Biso   1.000  H
  C144     1.0000 0.78080  0.52101  0.23722  Biso   1.000  C
  H144     1.0000 0.78030  0.53600  0.25020  Biso   1.000  H
  C145     1.0000 0.30250  0.97960  0.78440  Biso   1.000  C
  H145     1.0000 0.31630  0.96520  0.78500  Biso   1.000  H
  C146     1.0000 0.28080  0.97899  0.76278  Biso   1.000  C
  H146     1.0000 0.28030  0.96400  0.74980  Biso   1.000  H
  C147     1.0000 0.30250  0.47960  0.28440  Biso   1.000  C
  H147     1.0000 0.31630  0.46520  0.28500  Biso   1.000  H
  C148     1.0000 0.28080  0.47899  0.26278  Biso   1.000  C
  H148     1.0000 0.28030  0.46400  0.24980  Biso   1.000  H
  C149     1.0000 0.80250  0.97960  0.28440  Biso   1.000  C
  H149     1.0000 0.81630  0.96520  0.28500  Biso   1.000  H
  C150     1.0000 0.78080  0.97899  0.26278  Biso   1.000  C
  H150     1.0000 0.78030  0.96400  0.24980  Biso   1.000  H
  C151     1.0000 0.80250  0.47960  0.78440  Biso   1.000  C
  H151     1.0000 0.81630  0.46520  0.78500  Biso   1.000  H
  C152     1.0000 0.78080  0.47899  0.76278  Biso   1.000  C
  H152     1.0000 0.78030  0.46400  0.74980  Biso   1.000  H
  C153     1.0000 0.69750  0.97960  0.21560  Biso   1.000  C
  H153     1.0000 0.68370  0.96520  0.21500  Biso   1.000  H
  C154     1.0000 0.71920  0.97899  0.23722  Biso   1.000  C
  H154     1.0000 0.71970  0.96400  0.25020  Biso   1.000  H
  C155     1.0000 0.69750  0.47960  0.71560  Biso   1.000  C
  H155     1.0000 0.68370  0.46520  0.71500  Biso   1.000  H
  C156     1.0000 0.71920  0.47899  0.73722  Biso   1.000  C
  H156     1.0000 0.71970  0.46400  0.75020  Biso   1.000  H
  C157     1.0000 0.19750  0.97960  0.71560  Biso   1.000  C
  H157     1.0000 0.18370  0.96520  0.71500  Biso   1.000  H
  C158     1.0000 0.21920  0.97899  0.73722  Biso   1.000  C
  H158     1.0000 0.21970  0.96400  0.75020  Biso   1.000  H
  C159     1.0000 0.19750  0.47960  0.21560  Biso   1.000  C
  H159     1.0000 0.18370  0.46520  0.21500  Biso   1.000  H
  C160     1.0000 0.21920  0.47899  0.23722  Biso   1.000  C
  H160     1.0000 0.21970  0.46400  0.25020  Biso   1.000  H
  C161     1.0000 0.02040  0.21560  0.30250  Biso   1.000  C
  H161     1.0000 0.03480  0.21500  0.31630  Biso   1.000  H
  C162     1.0000 0.02101  0.23722  0.28080  Biso   1.000  C
  H162     1.0000 0.03600  0.25020  0.28030  Biso   1.000  H
  C163     1.0000 0.02040  0.71560  0.80250  Biso   1.000  C
  H163     1.0000 0.03480  0.71500  0.81630  Biso   1.000  H
  C164     1.0000 0.02101  0.73722  0.78080  Biso   1.000  C
  H164     1.0000 0.03600  0.75020  0.78030  Biso   1.000  H
  C165     1.0000 0.52040  0.21560  0.80250  Biso   1.000  C
  H165     1.0000 0.53480  0.21500  0.81630  Biso   1.000  H
  C166     1.0000 0.52101  0.23722  0.78080  Biso   1.000  C
  H166     1.0000 0.53600  0.25020  0.78030  Biso   1.000  H
  C167     1.0000 0.52040  0.71560  0.30250  Biso   1.000  C
  H167     1.0000 0.53480  0.71500  0.31630  Biso   1.000  H
  C168     1.0000 0.52101  0.73722  0.28080  Biso   1.000  C
  H168     1.0000 0.53600  0.75020  0.28030  Biso   1.000  H
  C169     1.0000 0.02040  0.78440  0.69750  Biso   1.000  C
  H169     1.0000 0.03480  0.78500  0.68370  Biso   1.000  H
  C170     1.0000 0.02101  0.76278  0.71920  Biso   1.000  C
  H170     1.0000 0.03600  0.74980  0.71970  Biso   1.000  H
  C171     1.0000 0.02040  0.28440  0.19750  Biso   1.000  C
  H171     1.0000 0.03480  0.28500  0.18370  Biso   1.000  H
  C172     1.0000 0.02101  0.26278  0.21920  Biso   1.000  C
  H172     1.0000 0.03600  0.24980  0.21970  Biso   1.000  H
  C173     1.0000 0.52040  0.78440  0.19750  Biso   1.000  C
  H173     1.0000 0.53480  0.78500  0.18370  Biso   1.000  H
  C174     1.0000 0.52101  0.76278  0.21920  Biso   1.000  C
  H174     1.0000 0.53600  0.74980  0.21970  Biso   1.000  H
  C175     1.0000 0.52040  0.28440  0.69750  Biso   1.000  C
  H175     1.0000 0.53480  0.28500  0.68370  Biso   1.000  H
  C176     1.0000 0.52101  0.26278  0.71920  Biso   1.000  C
  H176     1.0000 0.53600  0.24980  0.71970  Biso   1.000  H
  C177     1.0000 0.97960  0.21560  0.69750  Biso   1.000  C
  H177     1.0000 0.96520  0.21500  0.68370  Biso   1.000  H
  C178     1.0000 0.97899  0.23722  0.71920  Biso   1.000  C
  H178     1.0000 0.96400  0.25020  0.71970  Biso   1.000  H
  C179     1.0000 0.97960  0.71560  0.19750  Biso   1.000  C
  H179     1.0000 0.96520  0.71500  0.18370  Biso   1.000  H
  C180     1.0000 0.97899  0.73722  0.21920  Biso   1.000  C
  H180     1.0000 0.96400  0.75020  0.21970  Biso   1.000  H
  C181     1.0000 0.47960  0.21560  0.19750  Biso   1.000  C
  H181     1.0000 0.46520  0.21500  0.18370  Biso   1.000  H
  C182     1.0000 0.47899  0.23722  0.21920  Biso   1.000  C
  H182     1.0000 0.46400  0.25020  0.21970  Biso   1.000  H
  C183     1.0000 0.47960  0.71560  0.69750  Biso   1.000  C
  H183     1.0000 0.46520  0.71500  0.68370  Biso   1.000  H
  C184     1.0000 0.47899  0.73722  0.71920  Biso   1.000  C
  H184     1.0000 0.46400  0.75020  0.71970  Biso   1.000  H
  C185     1.0000 0.97960  0.78440  0.30250  Biso   1.000  C
  H185     1.0000 0.96520  0.78500  0.31630  Biso   1.000  H
  C186     1.0000 0.97899  0.76278  0.28080  Biso   1.000  C
  H186     1.0000 0.96400  0.74980  0.28030  Biso   1.000  H
  C187     1.0000 0.97960  0.28440  0.80250  Biso   1.000  C
  H187     1.0000 0.96520  0.28500  0.81630  Biso   1.000  H
  C188     1.0000 0.97899  0.26278  0.78080  Biso   1.000  C
  H188     1.0000 0.96400  0.24980  0.78030  Biso   1.000  H
  C189     1.0000 0.47960  0.78440  0.80250  Biso   1.000  C
  H189     1.0000 0.46520  0.78500  0.81630  Biso   1.000  H
  C190     1.0000 0.47899  0.76278  0.78080  Biso   1.000  C
  H190     1.0000 0.46400  0.74980  0.78030  Biso   1.000  H
  C191     1.0000 0.47960  0.28440  0.30250  Biso   1.000  C
  H191     1.0000 0.46520  0.28500  0.31630  Biso   1.000  H
  C192     1.0000 0.47899  0.26278  0.28080  Biso   1.000  C
  H192     1.0000 0.46400  0.24980  0.28030  Biso   1.000  H
  C193     1.0000 0.30250  0.78440  0.97960  Biso   1.000  C
  H193     1.0000 0.31630  0.78500  0.96520  Biso   1.000  H
  C194     1.0000 0.28080  0.76278  0.97899  Biso   1.000  C
  H194     1.0000 0.28030  0.74980  0.96400  Biso   1.000  H
  C195     1.0000 0.30250  0.28440  0.47960  Biso   1.000  C
  H195     1.0000 0.31630  0.28500  0.46520  Biso   1.000  H
  C196     1.0000 0.28080  0.26278  0.47899  Biso   1.000  C
  H196     1.0000 0.28030  0.24980  0.46400  Biso   1.000  H
  C197     1.0000 0.80250  0.78440  0.47960  Biso   1.000  C
  H197     1.0000 0.81630  0.78500  0.46520  Biso   1.000  H
  C198     1.0000 0.78080  0.76278  0.47899  Biso   1.000  C
  H198     1.0000 0.78030  0.74980  0.46400  Biso   1.000  H
  C199     1.0000 0.80250  0.28440  0.97960  Biso   1.000  C
  H199     1.0000 0.81630  0.28500  0.96520  Biso   1.000  H
  C200     1.0000 0.78080  0.26278  0.97899  Biso   1.000  C
  H200     1.0000 0.78030  0.24980  0.96400  Biso   1.000  H
  C201     1.0000 0.69750  0.21560  0.97960  Biso   1.000  C
  H201     1.0000 0.68370  0.21500  0.96520  Biso   1.000  H
  C202     1.0000 0.71920  0.23722  0.97899  Biso   1.000  C
  H202     1.0000 0.71970  0.25020  0.96400  Biso   1.000  H
  C203     1.0000 0.69750  0.71560  0.47960  Biso   1.000  C
  H203     1.0000 0.68370  0.71500  0.46520  Biso   1.000  H
  C204     1.0000 0.71920  0.73722  0.47899  Biso   1.000  C
  H204     1.0000 0.71970  0.75020  0.46400  Biso   1.000  H
  C205     1.0000 0.19750  0.21560  0.47960  Biso   1.000  C
  H205     1.0000 0.18370  0.21500  0.46520  Biso   1.000  H
  C206     1.0000 0.21920  0.23722  0.47899  Biso   1.000  C
  H206     1.0000 0.21970  0.25020  0.46400  Biso   1.000  H
  C207     1.0000 0.19750  0.71560  0.97960  Biso   1.000  C
  H207     1.0000 0.18370  0.71500  0.96520  Biso   1.000  H
  C208     1.0000 0.21920  0.73722  0.97899  Biso   1.000  C
  H208     1.0000 0.21970  0.75020  0.96400  Biso   1.000  H
  C209     1.0000 0.69750  0.78440  0.02040  Biso   1.000  C
  H209     1.0000 0.68370  0.78500  0.03480  Biso   1.000  H
  C210     1.0000 0.71920  0.76278  0.02101  Biso   1.000  C
  H210     1.0000 0.71970  0.74980  0.03600  Biso   1.000  H
  C211     1.0000 0.69750  0.28440  0.52040  Biso   1.000  C
  H211     1.0000 0.68370  0.28500  0.53480  Biso   1.000  H
  C212     1.0000 0.71920  0.26278  0.52101  Biso   1.000  C
  H212     1.0000 0.71970  0.24980  0.53600  Biso   1.000  H
  C213     1.0000 0.19750  0.78440  0.52040  Biso   1.000  C
  H213     1.0000 0.18370  0.78500  0.53480  Biso   1.000  H
  C214     1.0000 0.21920  0.76278  0.52101  Biso   1.000  C
  H214     1.0000 0.21970  0.74980  0.53600  Biso   1.000  H
  C215     1.0000 0.19750  0.28440  0.02040  Biso   1.000  C
  H215     1.0000 0.18370  0.28500  0.03480  Biso   1.000  H
  C216     1.0000 0.21920  0.26278  0.02101  Biso   1.000  C
  H216     1.0000 0.21970  0.24980  0.03600  Biso   1.000  H
  C217     1.0000 0.30250  0.21560  0.02040  Biso   1.000  C
  H217     1.0000 0.31630  0.21500  0.03480  Biso   1.000  H
  C218     1.0000 0.28080  0.23722  0.02101  Biso   1.000  C
  H218     1.0000 0.28030  0.25020  0.03600  Biso   1.000  H
  C219     1.0000 0.30250  0.71560  0.52040  Biso   1.000  C
  H219     1.0000 0.31630  0.71500  0.53480  Biso   1.000  H
  C220     1.0000 0.28080  0.73722  0.52101  Biso   1.000  C
  H220     1.0000 0.28030  0.75020  0.53600  Biso   1.000  H
  C221     1.0000 0.80250  0.21560  0.52040  Biso   1.000  C
  H221     1.0000 0.81630  0.21500  0.53480  Biso   1.000  H
  C222     1.0000 0.78080  0.23722  0.52101  Biso   1.000  C
  H222     1.0000 0.78030  0.25020  0.53600  Biso   1.000  H
  C223     1.0000 0.80250  0.71560  0.02040  Biso   1.000  C
  H223     1.0000 0.81630  0.71500  0.03480  Biso   1.000  H
  C224     1.0000 0.78080  0.73722  0.02101  Biso   1.000  C
  H224     1.0000 0.78030  0.75020  0.03600  Biso   1.000  H
  C225     1.0000 0.97960  0.30250  0.78440  Biso   1.000  C
  H225     1.0000 0.96520  0.31630  0.78500  Biso   1.000  H
  C226     1.0000 0.97899  0.28080  0.76278  Biso   1.000  C
  H226     1.0000 0.96400  0.28030  0.74980  Biso   1.000  H
  C227     1.0000 0.97960  0.80250  0.28440  Biso   1.000  C
  H227     1.0000 0.96520  0.81630  0.28500  Biso   1.000  H
  C228     1.0000 0.97899  0.78080  0.26278  Biso   1.000  C
  H228     1.0000 0.96400  0.78030  0.24980  Biso   1.000  H
  C229     1.0000 0.47960  0.30250  0.28440  Biso   1.000  C
  H229     1.0000 0.46520  0.31630  0.28500  Biso   1.000  H
  C230     1.0000 0.47899  0.28080  0.26278  Biso   1.000  C
  H230     1.0000 0.46400  0.28030  0.24980  Biso   1.000  H
  C231     1.0000 0.47960  0.80250  0.78440  Biso   1.000  C
  H231     1.0000 0.46520  0.81630  0.78500  Biso   1.000  H
  C232     1.0000 0.47899  0.78080  0.76278  Biso   1.000  C
  H232     1.0000 0.46400  0.78030  0.74980  Biso   1.000  H
  C233     1.0000 0.97960  0.69750  0.21560  Biso   1.000  C
  H233     1.0000 0.96520  0.68370  0.21500  Biso   1.000  H
  C234     1.0000 0.97899  0.71920  0.23722  Biso   1.000  C
  H234     1.0000 0.96400  0.71970  0.25020  Biso   1.000  H
  C235     1.0000 0.97960  0.19750  0.71560  Biso   1.000  C
  H235     1.0000 0.96520  0.18370  0.71500  Biso   1.000  H
  C236     1.0000 0.97899  0.21920  0.73722  Biso   1.000  C
  H236     1.0000 0.96400  0.21970  0.75020  Biso   1.000  H
  C237     1.0000 0.47960  0.69750  0.71560  Biso   1.000  C
  H237     1.0000 0.46520  0.68370  0.71500  Biso   1.000  H
  C238     1.0000 0.47899  0.71920  0.73722  Biso   1.000  C
  H238     1.0000 0.46400  0.71970  0.75020  Biso   1.000  H
  C239     1.0000 0.47960  0.19750  0.21560  Biso   1.000  C
  H239     1.0000 0.46520  0.18370  0.21500  Biso   1.000  H
  C240     1.0000 0.47899  0.21920  0.23722  Biso   1.000  C
  H240     1.0000 0.46400  0.21970  0.25020  Biso   1.000  H
  C241     1.0000 0.02040  0.69750  0.78440  Biso   1.000  C
  H241     1.0000 0.03480  0.68370  0.78500  Biso   1.000  H
  C242     1.0000 0.02101  0.71920  0.76278  Biso   1.000  C
  H242     1.0000 0.03600  0.71970  0.74980  Biso   1.000  H
  C243     1.0000 0.02040  0.19750  0.28440  Biso   1.000  C
  H243     1.0000 0.03480  0.18370  0.28500  Biso   1.000  H
  C244     1.0000 0.02101  0.21920  0.26278  Biso   1.000  C
  H244     1.0000 0.03600  0.21970  0.24980  Biso   1.000  H
  C245     1.0000 0.52040  0.69750  0.28440  Biso   1.000  C
  H245     1.0000 0.53480  0.68370  0.28500  Biso   1.000  H
  C246     1.0000 0.52101  0.71920  0.26278  Biso   1.000  C
  H246     1.0000 0.53600  0.71970  0.24980  Biso   1.000  H
  C247     1.0000 0.52040  0.19750  0.78440  Biso   1.000  C
  H247     1.0000 0.53480  0.18370  0.78500  Biso   1.000  H
  C248     1.0000 0.52101  0.21920  0.76278  Biso   1.000  C
  H248     1.0000 0.53600  0.21970  0.74980  Biso   1.000  H
  C249     1.0000 0.02040  0.30250  0.21560  Biso   1.000  C
  H249     1.0000 0.03480  0.31630  0.21500  Biso   1.000  H
  C250     1.0000 0.02101  0.28080  0.23722  Biso   1.000  C
  H250     1.0000 0.03600  0.28030  0.25020  Biso   1.000  H
  C251     1.0000 0.02040  0.80250  0.71560  Biso   1.000  C
  H251     1.0000 0.03480  0.81630  0.71500  Biso   1.000  H
  C252     1.0000 0.02101  0.78080  0.73722  Biso   1.000  C
  H252     1.0000 0.03600  0.78030  0.75020  Biso   1.000  H
  C253     1.0000 0.52040  0.30250  0.71560  Biso   1.000  C
  H253     1.0000 0.53480  0.31630  0.71500  Biso   1.000  H
  C254     1.0000 0.52101  0.28080  0.73722  Biso   1.000  C
  H254     1.0000 0.53600  0.28030  0.75020  Biso   1.000  H
  C255     1.0000 0.52040  0.80250  0.21560  Biso   1.000  C
  H255     1.0000 0.53480  0.81630  0.21500  Biso   1.000  H
  C256     1.0000 0.52101  0.78080  0.23722  Biso   1.000  C
  H256     1.0000 0.53600  0.78030  0.25020  Biso   1.000  H
  C257     1.0000 0.78440  0.97960  0.30250  Biso   1.000  C
  H257     1.0000 0.78500  0.96520  0.31630  Biso   1.000  H
  C258     1.0000 0.76278  0.97899  0.28080  Biso   1.000  C
  H258     1.0000 0.74980  0.96400  0.28030  Biso   1.000  H
  C259     1.0000 0.78440  0.47960  0.80250  Biso   1.000  C
  H259     1.0000 0.78500  0.46520  0.81630  Biso   1.000  H
  C260     1.0000 0.76278  0.47899  0.78080  Biso   1.000  C
  H260     1.0000 0.74980  0.46400  0.78030  Biso   1.000  H
  C261     1.0000 0.28440  0.97960  0.80250  Biso   1.000  C
  H261     1.0000 0.28500  0.96520  0.81630  Biso   1.000  H
  C262     1.0000 0.26278  0.97899  0.78080  Biso   1.000  C
  H262     1.0000 0.24980  0.96400  0.78030  Biso   1.000  H
  C263     1.0000 0.28440  0.47960  0.30250  Biso   1.000  C
  H263     1.0000 0.28500  0.46520  0.31630  Biso   1.000  H
  C264     1.0000 0.26278  0.47899  0.28080  Biso   1.000  C
  H264     1.0000 0.24980  0.46400  0.28030  Biso   1.000  H
  C265     1.0000 0.21560  0.97960  0.69750  Biso   1.000  C
  H265     1.0000 0.21500  0.96520  0.68370  Biso   1.000  H
  C266     1.0000 0.23722  0.97899  0.71920  Biso   1.000  C
  H266     1.0000 0.25020  0.96400  0.71970  Biso   1.000  H
  C267     1.0000 0.21560  0.47960  0.19750  Biso   1.000  C
  H267     1.0000 0.21500  0.46520  0.18370  Biso   1.000  H
  C268     1.0000 0.23722  0.47899  0.21920  Biso   1.000  C
  H268     1.0000 0.25020  0.46400  0.21970  Biso   1.000  H
  C269     1.0000 0.71560  0.97960  0.19750  Biso   1.000  C
  H269     1.0000 0.71500  0.96520  0.18370  Biso   1.000  H
  C270     1.0000 0.73722  0.97899  0.21920  Biso   1.000  C
  H270     1.0000 0.75020  0.96400  0.21970  Biso   1.000  H
  C271     1.0000 0.71560  0.47960  0.69750  Biso   1.000  C
  H271     1.0000 0.71500  0.46520  0.68370  Biso   1.000  H
  C272     1.0000 0.73722  0.47899  0.71920  Biso   1.000  C
  H272     1.0000 0.75020  0.46400  0.71970  Biso   1.000  H
  C273     1.0000 0.78440  0.02040  0.69750  Biso   1.000  C
  H273     1.0000 0.78500  0.03480  0.68370  Biso   1.000  H
  C274     1.0000 0.76278  0.02101  0.71920  Biso   1.000  C
  H274     1.0000 0.74980  0.03600  0.71970  Biso   1.000  H
  C275     1.0000 0.78440  0.52040  0.19750  Biso   1.000  C
  H275     1.0000 0.78500  0.53480  0.18370  Biso   1.000  H
  C276     1.0000 0.76278  0.52101  0.21920  Biso   1.000  C
  H276     1.0000 0.74980  0.53600  0.21970  Biso   1.000  H
  C277     1.0000 0.28440  0.02040  0.19750  Biso   1.000  C
  H277     1.0000 0.28500  0.03480  0.18370  Biso   1.000  H
  C278     1.0000 0.26278  0.02101  0.21920  Biso   1.000  C
  H278     1.0000 0.24980  0.03600  0.21970  Biso   1.000  H
  C279     1.0000 0.28440  0.52040  0.69750  Biso   1.000  C
  H279     1.0000 0.28500  0.53480  0.68370  Biso   1.000  H
  C280     1.0000 0.26278  0.52101  0.71920  Biso   1.000  C
  H280     1.0000 0.24980  0.53600  0.71970  Biso   1.000  H
  C281     1.0000 0.21560  0.02040  0.30250  Biso   1.000  C
  H281     1.0000 0.21500  0.03480  0.31630  Biso   1.000  H
  C282     1.0000 0.23722  0.02101  0.28080  Biso   1.000  C
  H282     1.0000 0.25020  0.03600  0.28030  Biso   1.000  H
  C283     1.0000 0.21560  0.52040  0.80250  Biso   1.000  C
  H283     1.0000 0.21500  0.53480  0.81630  Biso   1.000  H
  C284     1.0000 0.23722  0.52101  0.78080  Biso   1.000  C
  H284     1.0000 0.25020  0.53600  0.78030  Biso   1.000  H
  C285     1.0000 0.71560  0.02040  0.80250  Biso   1.000  C
  H285     1.0000 0.71500  0.03480  0.81630  Biso   1.000  H
  C286     1.0000 0.73722  0.02101  0.78080  Biso   1.000  C
  H286     1.0000 0.75020  0.03600  0.78030  Biso   1.000  H
  C287     1.0000 0.71560  0.52040  0.30250  Biso   1.000  C
  H287     1.0000 0.71500  0.53480  0.31630  Biso   1.000  H
  C288     1.0000 0.73722  0.52101  0.28080  Biso   1.000  C
  H288     1.0000 0.75020  0.53600  0.28030  Biso   1.000  H
  C289     1.0000 0.78440  0.30250  0.02040  Biso   1.000  C
  H289     1.0000 0.78500  0.31630  0.03480  Biso   1.000  H
  C290     1.0000 0.76278  0.28080  0.02101  Biso   1.000  C
  H290     1.0000 0.74980  0.28030  0.03600  Biso   1.000  H
  C291     1.0000 0.78440  0.80250  0.52040  Biso   1.000  C
  H291     1.0000 0.78500  0.81630  0.53480  Biso   1.000  H
  C292     1.0000 0.76278  0.78080  0.52101  Biso   1.000  C
  H292     1.0000 0.74980  0.78030  0.53600  Biso   1.000  H
  C293     1.0000 0.28440  0.30250  0.52040  Biso   1.000  C
  H293     1.0000 0.28500  0.31630  0.53480  Biso   1.000  H
  C294     1.0000 0.26278  0.28080  0.52101  Biso   1.000  C
  H294     1.0000 0.24980  0.28030  0.53600  Biso   1.000  H
  C295     1.0000 0.28440  0.80250  0.02040  Biso   1.000  C
  H295     1.0000 0.28500  0.81630  0.03480  Biso   1.000  H
  C296     1.0000 0.26278  0.78080  0.02101  Biso   1.000  C
  H296     1.0000 0.24980  0.78030  0.03600  Biso   1.000  H
  C297     1.0000 0.21560  0.69750  0.02040  Biso   1.000  C
  H297     1.0000 0.21500  0.68370  0.03480  Biso   1.000  H
  C298     1.0000 0.23722  0.71920  0.02101  Biso   1.000  C
  H298     1.0000 0.25020  0.71970  0.03600  Biso   1.000  H
  C299     1.0000 0.21560  0.19750  0.52040  Biso   1.000  C
  H299     1.0000 0.21500  0.18370  0.53480  Biso   1.000  H
  C300     1.0000 0.23722  0.21920  0.52101  Biso   1.000  C
  H300     1.0000 0.25020  0.21970  0.53600  Biso   1.000  H
  C301     1.0000 0.71560  0.69750  0.52040  Biso   1.000  C
  H301     1.0000 0.71500  0.68370  0.53480  Biso   1.000  H
  C302     1.0000 0.73722  0.71920  0.52101  Biso   1.000  C
  H302     1.0000 0.75020  0.71970  0.53600  Biso   1.000  H
  C303     1.0000 0.71560  0.19750  0.02040  Biso   1.000  C
  H303     1.0000 0.71500  0.18370  0.03480  Biso   1.000  H
  C304     1.0000 0.73722  0.21920  0.02101  Biso   1.000  C
  H304     1.0000 0.75020  0.21970  0.03600  Biso   1.000  H
  C305     1.0000 0.78440  0.69750  0.97960  Biso   1.000  C
  H305     1.0000 0.78500  0.68370  0.96520  Biso   1.000  H
  C306     1.0000 0.76278  0.71920  0.97899  Biso   1.000  C
  H306     1.0000 0.74980  0.71970  0.96400  Biso   1.000  H
  C307     1.0000 0.78440  0.19750  0.47960  Biso   1.000  C
  H307     1.0000 0.78500  0.18370  0.46520  Biso   1.000  H
  C308     1.0000 0.76278  0.21920  0.47899  Biso   1.000  C
  H308     1.0000 0.74980  0.21970  0.46400  Biso   1.000  H
  C309     1.0000 0.28440  0.69750  0.47960  Biso   1.000  C
  H309     1.0000 0.28500  0.68370  0.46520  Biso   1.000  H
  C310     1.0000 0.26278  0.71920  0.47899  Biso   1.000  C
  H310     1.0000 0.24980  0.71970  0.46400  Biso   1.000  H
  C311     1.0000 0.28440  0.19750  0.97960  Biso   1.000  C
  H311     1.0000 0.28500  0.18370  0.96520  Biso   1.000  H
  C312     1.0000 0.26278  0.21920  0.97899  Biso   1.000  C
  H312     1.0000 0.24980  0.21970  0.96400  Biso   1.000  H
  C313     1.0000 0.21560  0.30250  0.97960  Biso   1.000  C
  H313     1.0000 0.21500  0.31630  0.96520  Biso   1.000  H
  C314     1.0000 0.23722  0.28080  0.97899  Biso   1.000  C
  H314     1.0000 0.25020  0.28030  0.96400  Biso   1.000  H
  C315     1.0000 0.21560  0.80250  0.47960  Biso   1.000  C
  H315     1.0000 0.21500  0.81630  0.46520  Biso   1.000  H
  C316     1.0000 0.23722  0.78080  0.47899  Biso   1.000  C
  H316     1.0000 0.25020  0.78030  0.46400  Biso   1.000  H
  C317     1.0000 0.71560  0.30250  0.47960  Biso   1.000  C
  H317     1.0000 0.71500  0.31630  0.46520  Biso   1.000  H
  C318     1.0000 0.73722  0.28080  0.47899  Biso   1.000  C
  H318     1.0000 0.75020  0.28030  0.46400  Biso   1.000  H
  C319     1.0000 0.71560  0.80250  0.97960  Biso   1.000  C
  H319     1.0000 0.71500  0.81630  0.96520  Biso   1.000  H
  C320     1.0000 0.73722  0.78080  0.97899  Biso   1.000  C
  H320     1.0000 0.75020  0.78030  0.96400  Biso   1.000  H
  C321     1.0000 0.30250  0.97960  0.21560  Biso   1.000  C
  H321     1.0000 0.31630  0.96520  0.21500  Biso   1.000  H
  C322     1.0000 0.28080  0.97899  0.23722  Biso   1.000  C
  H322     1.0000 0.28030  0.96400  0.25020  Biso   1.000  H
  C323     1.0000 0.30250  0.47960  0.71560  Biso   1.000  C
  H323     1.0000 0.31630  0.46520  0.71500  Biso   1.000  H
  C324     1.0000 0.28080  0.47899  0.73722  Biso   1.000  C
  H324     1.0000 0.28030  0.46400  0.75020  Biso   1.000  H
  C325     1.0000 0.80250  0.97960  0.71560  Biso   1.000  C
  H325     1.0000 0.81630  0.96520  0.71500  Biso   1.000  H
  C326     1.0000 0.78080  0.97899  0.73722  Biso   1.000  C
  H326     1.0000 0.78030  0.96400  0.75020  Biso   1.000  H
  C327     1.0000 0.80250  0.47960  0.21560  Biso   1.000  C
  H327     1.0000 0.81630  0.46520  0.21500  Biso   1.000  H
  C328     1.0000 0.78080  0.47899  0.23722  Biso   1.000  C
  H328     1.0000 0.78030  0.46400  0.25020  Biso   1.000  H
  C329     1.0000 0.69750  0.97960  0.78440  Biso   1.000  C
  H329     1.0000 0.68370  0.96520  0.78500  Biso   1.000  H
  C330     1.0000 0.71920  0.97899  0.76278  Biso   1.000  C
  H330     1.0000 0.71970  0.96400  0.74980  Biso   1.000  H
  C331     1.0000 0.69750  0.47960  0.28440  Biso   1.000  C
  H331     1.0000 0.68370  0.46520  0.28500  Biso   1.000  H
  C332     1.0000 0.71920  0.47899  0.26278  Biso   1.000  C
  H332     1.0000 0.71970  0.46400  0.24980  Biso   1.000  H
  C333     1.0000 0.19750  0.97960  0.28440  Biso   1.000  C
  H333     1.0000 0.18370  0.96520  0.28500  Biso   1.000  H
  C334     1.0000 0.21920  0.97899  0.26278  Biso   1.000  C
  H334     1.0000 0.21970  0.96400  0.24980  Biso   1.000  H
  C335     1.0000 0.19750  0.47960  0.78440  Biso   1.000  C
  H335     1.0000 0.18370  0.46520  0.78500  Biso   1.000  H
  C336     1.0000 0.21920  0.47899  0.76278  Biso   1.000  C
  H336     1.0000 0.21970  0.46400  0.74980  Biso   1.000  H
  C337     1.0000 0.69750  0.02040  0.21560  Biso   1.000  C
  H337     1.0000 0.68370  0.03480  0.21500  Biso   1.000  H
  C338     1.0000 0.71920  0.02101  0.23722  Biso   1.000  C
  H338     1.0000 0.71970  0.03600  0.25020  Biso   1.000  H
  C339     1.0000 0.69750  0.52040  0.71560  Biso   1.000  C
  H339     1.0000 0.68370  0.53480  0.71500  Biso   1.000  H
  C340     1.0000 0.71920  0.52101  0.73722  Biso   1.000  C
  H340     1.0000 0.71970  0.53600  0.75020  Biso   1.000  H
  C341     1.0000 0.19750  0.02040  0.71560  Biso   1.000  C
  H341     1.0000 0.18370  0.03480  0.71500  Biso   1.000  H
  C342     1.0000 0.21920  0.02101  0.73722  Biso   1.000  C
  H342     1.0000 0.21970  0.03600  0.75020  Biso   1.000  H
  C343     1.0000 0.19750  0.52040  0.21560  Biso   1.000  C
  H343     1.0000 0.18370  0.53480  0.21500  Biso   1.000  H
  C344     1.0000 0.21920  0.52101  0.23722  Biso   1.000  C
  H344     1.0000 0.21970  0.53600  0.25020  Biso   1.000  H
  C345     1.0000 0.30250  0.02040  0.78440  Biso   1.000  C
  H345     1.0000 0.31630  0.03480  0.78500  Biso   1.000  H
  C346     1.0000 0.28080  0.02101  0.76278  Biso   1.000  C
  H346     1.0000 0.28030  0.03600  0.74980  Biso   1.000  H
  C347     1.0000 0.30250  0.52040  0.28440  Biso   1.000  C
  H347     1.0000 0.31630  0.53480  0.28500  Biso   1.000  H
  C348     1.0000 0.28080  0.52101  0.26278  Biso   1.000  C
  H348     1.0000 0.28030  0.53600  0.24980  Biso   1.000  H
  C349     1.0000 0.80250  0.02040  0.28440  Biso   1.000  C
  H349     1.0000 0.81630  0.03480  0.28500  Biso   1.000  H
  C350     1.0000 0.78080  0.02101  0.26278  Biso   1.000  C
  H350     1.0000 0.78030  0.03600  0.24980  Biso   1.000  H
  C351     1.0000 0.80250  0.52040  0.78440  Biso   1.000  C
  H351     1.0000 0.81630  0.53480  0.78500  Biso   1.000  H
  C352     1.0000 0.78080  0.52101  0.76278  Biso   1.000  C
  H352     1.0000 0.78030  0.53600  0.74980  Biso   1.000  H
  C353     1.0000 0.97960  0.78440  0.69750  Biso   1.000  C
  H353     1.0000 0.96520  0.78500  0.68370  Biso   1.000  H
  C354     1.0000 0.97899  0.76278  0.71920  Biso   1.000  C
  H354     1.0000 0.96400  0.74980  0.71970  Biso   1.000  H
  C355     1.0000 0.97960  0.28440  0.19750  Biso   1.000  C
  H355     1.0000 0.96520  0.28500  0.18370  Biso   1.000  H
  C356     1.0000 0.97899  0.26278  0.21920  Biso   1.000  C
  H356     1.0000 0.96400  0.24980  0.21970  Biso   1.000  H
  C357     1.0000 0.47960  0.78440  0.19750  Biso   1.000  C
  H357     1.0000 0.46520  0.78500  0.18370  Biso   1.000  H
  C358     1.0000 0.47899  0.76278  0.21920  Biso   1.000  C
  H358     1.0000 0.46400  0.74980  0.21970  Biso   1.000  H
  C359     1.0000 0.47960  0.28440  0.69750  Biso   1.000  C
  H359     1.0000 0.46520  0.28500  0.68370  Biso   1.000  H
  C360     1.0000 0.47899  0.26278  0.71920  Biso   1.000  C
  H360     1.0000 0.46400  0.24980  0.71970  Biso   1.000  H
  C361     1.0000 0.97960  0.21560  0.30250  Biso   1.000  C
  H361     1.0000 0.96520  0.21500  0.31630  Biso   1.000  H
  C362     1.0000 0.97899  0.23722  0.28080  Biso   1.000  C
  H362     1.0000 0.96400  0.25020  0.28030  Biso   1.000  H
  C363     1.0000 0.97960  0.71560  0.80250  Biso   1.000  C
  H363     1.0000 0.96520  0.71500  0.81630  Biso   1.000  H
  C364     1.0000 0.97899  0.73722  0.78080  Biso   1.000  C
  H364     1.0000 0.96400  0.75020  0.78030  Biso   1.000  H
  C365     1.0000 0.47960  0.21560  0.80250  Biso   1.000  C
  H365     1.0000 0.46520  0.21500  0.81630  Biso   1.000  H
  C366     1.0000 0.47899  0.23722  0.78080  Biso   1.000  C
  H366     1.0000 0.46400  0.25020  0.78030  Biso   1.000  H
  C367     1.0000 0.47960  0.71560  0.30250  Biso   1.000  C
  H367     1.0000 0.46520  0.71500  0.31630  Biso   1.000  H
  C368     1.0000 0.47899  0.73722  0.28080  Biso   1.000  C
  H368     1.0000 0.46400  0.75020  0.28030  Biso   1.000  H
  C369     1.0000 0.02040  0.78440  0.30250  Biso   1.000  C
  H369     1.0000 0.03480  0.78500  0.31630  Biso   1.000  H
  C370     1.0000 0.02101  0.76278  0.28080  Biso   1.000  C
  H370     1.0000 0.03600  0.74980  0.28030  Biso   1.000  H
  C371     1.0000 0.02040  0.28440  0.80250  Biso   1.000  C
  H371     1.0000 0.03480  0.28500  0.81630  Biso   1.000  H
  C372     1.0000 0.02101  0.26278  0.78080  Biso   1.000  C
  H372     1.0000 0.03600  0.24980  0.78030  Biso   1.000  H
  C373     1.0000 0.52040  0.78440  0.80250  Biso   1.000  C
  H373     1.0000 0.53480  0.78500  0.81630  Biso   1.000  H
  C374     1.0000 0.52101  0.76278  0.78080  Biso   1.000  C
  H374     1.0000 0.53600  0.74980  0.78030  Biso   1.000  H
  C375     1.0000 0.52040  0.28440  0.30250  Biso   1.000  C
  H375     1.0000 0.53480  0.28500  0.31630  Biso   1.000  H
  C376     1.0000 0.52101  0.26278  0.28080  Biso   1.000  C
  H376     1.0000 0.53600  0.24980  0.28030  Biso   1.000  H
  C377     1.0000 0.02040  0.21560  0.69750  Biso   1.000  C
  H377     1.0000 0.03480  0.21500  0.68370  Biso   1.000  H
  C378     1.0000 0.02101  0.23722  0.71920  Biso   1.000  C
  H378     1.0000 0.03600  0.25020  0.71970  Biso   1.000  H
  C379     1.0000 0.02040  0.71560  0.19750  Biso   1.000  C
  H379     1.0000 0.03480  0.71500  0.18370  Biso   1.000  H
  C380     1.0000 0.02101  0.73722  0.21920  Biso   1.000  C
  H380     1.0000 0.03600  0.75020  0.21970  Biso   1.000  H
  C381     1.0000 0.52040  0.21560  0.19750  Biso   1.000  C
  H381     1.0000 0.53480  0.21500  0.18370  Biso   1.000  H
  C382     1.0000 0.52101  0.23722  0.21920  Biso   1.000  C
  H382     1.0000 0.53600  0.25020  0.21970  Biso   1.000  H
  C383     1.0000 0.52040  0.71560  0.69750  Biso   1.000  C
  H383     1.0000 0.53480  0.71500  0.68370  Biso   1.000  H
  C384     1.0000 0.52101  0.73722  0.71920  Biso   1.000  C
  H384     1.0000 0.53600  0.75020  0.71970  Biso   1.000  H
  Co1      1.0000 0.50000  0.14780  0.00000  Biso   1.000  Co
  Co2      1.0000 0.50000  0.20840  0.00000  Biso   1.000  Co
  Co3      1.0000 0.50000  0.64780  0.50000  Biso   1.000  Co
  Co4      1.0000 0.50000  0.70840  0.50000  Biso   1.000  Co
  Co5      1.0000 0.50000  0.85220  0.00000  Biso   1.000  Co
  Co6      1.0000 0.50000  0.79160  0.00000  Biso   1.000  Co
  Co7      1.0000 0.50000  0.35220  0.50000  Biso   1.000  Co
  Co8      1.0000 0.50000  0.29160  0.50000  Biso   1.000  Co
  Co9      1.0000 0.00000  0.85220  0.50000  Biso   1.000  Co
  Co10     1.0000 0.00000  0.79160  0.50000  Biso   1.000  Co
  Co11     1.0000 0.00000  0.64780  0.00000  Biso   1.000  Co
  Co12     1.0000 0.00000  0.70840  0.00000  Biso   1.000  Co
  Co13     1.0000 0.00000  0.50000  0.14780  Biso   1.000  Co
  Co14     1.0000 0.00000  0.50000  0.20840  Biso   1.000  Co
  Co15     1.0000 0.00000  0.00000  0.64780  Biso   1.000  Co
  Co16     1.0000 0.00000  0.00000  0.70840  Biso   1.000  Co
  Co17     1.0000 0.00000  0.50000  0.85220  Biso   1.000  Co
  Co18     1.0000 0.00000  0.50000  0.79160  Biso   1.000  Co
  Co19     1.0000 0.00000  0.00000  0.35220  Biso   1.000  Co
  Co20     1.0000 0.00000  0.00000  0.29160  Biso   1.000  Co
  Co21     1.0000 0.50000  0.00000  0.85220  Biso   1.000  Co
  Co22     1.0000 0.50000  0.00000  0.79160  Biso   1.000  Co
  Co23     1.0000 0.50000  0.50000  0.35220  Biso   1.000  Co
  Co24     1.0000 0.50000  0.50000  0.29160  Biso   1.000  Co
  Co25     1.0000 0.14780  0.00000  0.50000  Biso   1.000  Co
  Co26     1.0000 0.20840  0.00000  0.50000  Biso   1.000  Co
  Co27     1.0000 0.64780  0.00000  0.00000  Biso   1.000  Co
  Co28     1.0000 0.70840  0.00000  0.00000  Biso   1.000  Co
  Co29     1.0000 0.64780  0.50000  0.50000  Biso   1.000  Co
  Co30     1.0000 0.70840  0.50000  0.50000  Biso   1.000  Co
  Co31     1.0000 0.85220  0.00000  0.50000  Biso   1.000  Co
  Co32     1.0000 0.79160  0.00000  0.50000  Biso   1.000  Co
  Co33     1.0000 0.35220  0.00000  0.00000  Biso   1.000  Co
  Co34     1.0000 0.29160  0.00000  0.00000  Biso   1.000  Co
  Co35     1.0000 0.14780  0.50000  0.00000  Biso   1.000  Co
  Co36     1.0000 0.20840  0.50000  0.00000  Biso   1.000  Co
  Co37     1.0000 0.85220  0.50000  0.00000  Biso   1.000  Co
  Co38     1.0000 0.79160  0.50000  0.00000  Biso   1.000  Co
  Co39     1.0000 0.35220  0.50000  0.50000  Biso   1.000  Co
  Co40     1.0000 0.29160  0.50000  0.50000  Biso   1.000  Co
  Co41     1.0000 0.50000  0.00000  0.14780  Biso   1.000  Co
  Co42     1.0000 0.50000  0.00000  0.20840  Biso   1.000  Co
  Co43     1.0000 0.50000  0.50000  0.64780  Biso   1.000  Co
  Co44     1.0000 0.50000  0.50000  0.70840  Biso   1.000  Co
  Co45     1.0000 0.00000  0.14780  0.50000  Biso   1.000  Co
  Co46     1.0000 0.00000  0.20840  0.50000  Biso   1.000  Co
  Co47     1.0000 0.00000  0.35220  0.00000  Biso   1.000  Co
  Co48     1.0000 0.00000  0.29160  0.00000  Biso   1.000  Co
  O1       1.0000 0.54290  0.15340  0.00000  Biso   1.000  O
  O2       1.0000 0.54250  0.20200  0.00000  Biso   1.000  O
  C385     1.0000 0.55390  0.17780  0.00000  Biso   1.000  C
  C386     1.0000 0.58670  0.17790  0.00000  Biso   1.000  C
  C387     1.0000 0.60180  0.15280  0.00000  Biso   1.000  C
  H385     1.0000 0.59220  0.13530  0.00000  Biso   1.000  H
  C388     1.0000 0.63140  0.15340  0.00000  Biso   1.000  C
  C389     1.0000 0.64560  0.18020  0.00000  Biso   1.000  C
  C390     1.0000 0.63140  0.20560  0.00000  Biso   1.000  C
  H386     1.0000 0.64120  0.22290  0.00000  Biso   1.000  H
  C391     1.0000 0.60220  0.20460  0.00000  Biso   1.000  C
  H387     1.0000 0.59190  0.22160  0.00000  Biso   1.000  H
  O3       1.0000 0.54290  0.65340  0.50000  Biso   1.000  O
  O4       1.0000 0.54250  0.70200  0.50000  Biso   1.000  O
  C392     1.0000 0.55390  0.67780  0.50000  Biso   1.000  C
  C393     1.0000 0.58670  0.67790  0.50000  Biso   1.000  C
  C394     1.0000 0.60180  0.65280  0.50000  Biso   1.000  C
  H388     1.0000 0.59220  0.63530  0.50000  Biso   1.000  H
  C395     1.0000 0.63140  0.65340  0.50000  Biso   1.000  C
  C396     1.0000 0.64560  0.68020  0.50000  Biso   1.000  C
  C397     1.0000 0.63140  0.70560  0.50000  Biso   1.000  C
  H389     1.0000 0.64120  0.72290  0.50000  Biso   1.000  H
  C398     1.0000 0.60220  0.70460  0.50000  Biso   1.000  C
  H390     1.0000 0.59190  0.72160  0.50000  Biso   1.000  H
  O5       1.0000 0.04290  0.15340  0.50000  Biso   1.000  O
  O6       1.0000 0.04250  0.20200  0.50000  Biso   1.000  O
  C399     1.0000 0.05390  0.17780  0.50000  Biso   1.000  C
  C400     1.0000 0.08670  0.17790  0.50000  Biso   1.000  C
  C401     1.0000 0.10180  0.15280  0.50000  Biso   1.000  C
  H391     1.0000 0.09220  0.13530  0.50000  Biso   1.000  H
  C402     1.0000 0.13140  0.15340  0.50000  Biso   1.000  C
  C403     1.0000 0.14560  0.18020  0.50000  Biso   1.000  C
  C404     1.0000 0.13140  0.20560  0.50000  Biso   1.000  C
  H392     1.0000 0.14120  0.22290  0.50000  Biso   1.000  H
  C405     1.0000 0.10220  0.20460  0.50000  Biso   1.000  C
  H393     1.0000 0.09190  0.22160  0.50000  Biso   1.000  H
  O7       1.0000 0.04290  0.65340  0.00000  Biso   1.000  O
  O8       1.0000 0.04250  0.70200  0.00000  Biso   1.000  O
  C406     1.0000 0.05390  0.67780  0.00000  Biso   1.000  C
  C407     1.0000 0.08670  0.67790  0.00000  Biso   1.000  C
  C408     1.0000 0.10180  0.65280  0.00000  Biso   1.000  C
  H394     1.0000 0.09220  0.63530  0.00000  Biso   1.000  H
  C409     1.0000 0.13140  0.65340  0.00000  Biso   1.000  C
  C410     1.0000 0.14560  0.68020  0.00000  Biso   1.000  C
  C411     1.0000 0.13140  0.70560  0.00000  Biso   1.000  C
  H395     1.0000 0.14120  0.72290  0.00000  Biso   1.000  H
  C412     1.0000 0.10220  0.70460  0.00000  Biso   1.000  C
  H396     1.0000 0.09190  0.72160  0.00000  Biso   1.000  H
  O9       1.0000 0.45710  0.84660  0.00000  Biso   1.000  O
  O10      1.0000 0.45750  0.79800  0.00000  Biso   1.000  O
  C413     1.0000 0.44610  0.82220  0.00000  Biso   1.000  C
  C414     1.0000 0.41330  0.82210  0.00000  Biso   1.000  C
  C415     1.0000 0.39820  0.84720  0.00000  Biso   1.000  C
  H397     1.0000 0.40780  0.86470  0.00000  Biso   1.000  H
  C416     1.0000 0.36860  0.84660  0.00000  Biso   1.000  C
  C417     1.0000 0.35440  0.81980  0.00000  Biso   1.000  C
  C418     1.0000 0.36860  0.79440  0.00000  Biso   1.000  C
  H398     1.0000 0.35880  0.77710  0.00000  Biso   1.000  H
  C419     1.0000 0.39780  0.79540  0.00000  Biso   1.000  C
  H399     1.0000 0.40810  0.77840  0.00000  Biso   1.000  H
  O11      1.0000 0.45710  0.34660  0.50000  Biso   1.000  O
  O12      1.0000 0.45750  0.29800  0.50000  Biso   1.000  O
  C420     1.0000 0.44610  0.32220  0.50000  Biso   1.000  C
  C421     1.0000 0.41330  0.32210  0.50000  Biso   1.000  C
  C422     1.0000 0.39820  0.34720  0.50000  Biso   1.000  C
  H400     1.0000 0.40780  0.36470  0.50000  Biso   1.000  H
  C423     1.0000 0.36860  0.34660  0.50000  Biso   1.000  C
  C424     1.0000 0.35440  0.31980  0.50000  Biso   1.000  C
  C425     1.0000 0.36860  0.29440  0.50000  Biso   1.000  C
  H401     1.0000 0.35880  0.27710  0.50000  Biso   1.000  H
  C426     1.0000 0.39780  0.29540  0.50000  Biso   1.000  C
  H402     1.0000 0.40810  0.27840  0.50000  Biso   1.000  H
  O13      1.0000 0.95710  0.84660  0.50000  Biso   1.000  O
  O14      1.0000 0.95750  0.79800  0.50000  Biso   1.000  O
  C427     1.0000 0.94610  0.82220  0.50000  Biso   1.000  C
  C428     1.0000 0.91330  0.82210  0.50000  Biso   1.000  C
  C429     1.0000 0.89820  0.84720  0.50000  Biso   1.000  C
  H403     1.0000 0.90780  0.86470  0.50000  Biso   1.000  H
  C430     1.0000 0.86860  0.84660  0.50000  Biso   1.000  C
  C431     1.0000 0.85440  0.81980  0.50000  Biso   1.000  C
  C432     1.0000 0.86860  0.79440  0.50000  Biso   1.000  C
  H404     1.0000 0.85880  0.77710  0.50000  Biso   1.000  H
  C433     1.0000 0.89780  0.79540  0.50000  Biso   1.000  C
  H405     1.0000 0.90810  0.77840  0.50000  Biso   1.000  H
  O15      1.0000 0.95710  0.34660  0.00000  Biso   1.000  O
  O16      1.0000 0.95750  0.29800  0.00000  Biso   1.000  O
  C434     1.0000 0.94610  0.32220  0.00000  Biso   1.000  C
  C435     1.0000 0.91330  0.32210  0.00000  Biso   1.000  C
  C436     1.0000 0.89820  0.34720  0.00000  Biso   1.000  C
  H406     1.0000 0.90780  0.36470  0.00000  Biso   1.000  H
  C437     1.0000 0.86860  0.34660  0.00000  Biso   1.000  C
  C438     1.0000 0.85440  0.31980  0.00000  Biso   1.000  C
  C439     1.0000 0.86860  0.29440  0.00000  Biso   1.000  C
  H407     1.0000 0.85880  0.27710  0.00000  Biso   1.000  H
  C440     1.0000 0.89780  0.29540  0.00000  Biso   1.000  C
  H408     1.0000 0.90810  0.27840  0.00000  Biso   1.000  H
  O17      1.0000 0.45710  0.15340  0.00000  Biso   1.000  O
  O18      1.0000 0.45750  0.20200  0.00000  Biso   1.000  O
  C441     1.0000 0.44610  0.17780  0.00000  Biso   1.000  C
  C442     1.0000 0.41330  0.17790  0.00000  Biso   1.000  C
  C443     1.0000 0.39820  0.15280  0.00000  Biso   1.000  C
  H409     1.0000 0.40780  0.13530  0.00000  Biso   1.000  H
  C444     1.0000 0.36860  0.15340  0.00000  Biso   1.000  C
  C445     1.0000 0.35440  0.18020  0.00000  Biso   1.000  C
  C446     1.0000 0.36860  0.20560  0.00000  Biso   1.000  C
  H410     1.0000 0.35880  0.22290  0.00000  Biso   1.000  H
  C447     1.0000 0.39780  0.20460  0.00000  Biso   1.000  C
  H411     1.0000 0.40810  0.22160  0.00000  Biso   1.000  H
  O19      1.0000 0.45710  0.65340  0.50000  Biso   1.000  O
  O20      1.0000 0.45750  0.70200  0.50000  Biso   1.000  O
  C448     1.0000 0.44610  0.67780  0.50000  Biso   1.000  C
  C449     1.0000 0.41330  0.67790  0.50000  Biso   1.000  C
  C450     1.0000 0.39820  0.65280  0.50000  Biso   1.000  C
  H412     1.0000 0.40780  0.63530  0.50000  Biso   1.000  H
  C451     1.0000 0.36860  0.65340  0.50000  Biso   1.000  C
  C452     1.0000 0.35440  0.68020  0.50000  Biso   1.000  C
  C453     1.0000 0.36860  0.70560  0.50000  Biso   1.000  C
  H413     1.0000 0.35880  0.72290  0.50000  Biso   1.000  H
  C454     1.0000 0.39780  0.70460  0.50000  Biso   1.000  C
  H414     1.0000 0.40810  0.72160  0.50000  Biso   1.000  H
  O21      1.0000 0.95710  0.15340  0.50000  Biso   1.000  O
  O22      1.0000 0.95750  0.20200  0.50000  Biso   1.000  O
  C455     1.0000 0.94610  0.17780  0.50000  Biso   1.000  C
  C456     1.0000 0.91330  0.17790  0.50000  Biso   1.000  C
  C457     1.0000 0.89820  0.15280  0.50000  Biso   1.000  C
  H415     1.0000 0.90780  0.13530  0.50000  Biso   1.000  H
  C458     1.0000 0.86860  0.15340  0.50000  Biso   1.000  C
  C459     1.0000 0.85440  0.18020  0.50000  Biso   1.000  C
  C460     1.0000 0.86860  0.20560  0.50000  Biso   1.000  C
  H416     1.0000 0.85880  0.22290  0.50000  Biso   1.000  H
  C461     1.0000 0.89780  0.20460  0.50000  Biso   1.000  C
  H417     1.0000 0.90810  0.22160  0.50000  Biso   1.000  H
  O23      1.0000 0.95710  0.65340  0.00000  Biso   1.000  O
  O24      1.0000 0.95750  0.70200  0.00000  Biso   1.000  O
  C462     1.0000 0.94610  0.67780  0.00000  Biso   1.000  C
  C463     1.0000 0.91330  0.67790  0.00000  Biso   1.000  C
  C464     1.0000 0.89820  0.65280  0.00000  Biso   1.000  C
  H418     1.0000 0.90780  0.63530  0.00000  Biso   1.000  H
  C465     1.0000 0.86860  0.65340  0.00000  Biso   1.000  C
  C466     1.0000 0.85440  0.68020  0.00000  Biso   1.000  C
  C467     1.0000 0.86860  0.70560  0.00000  Biso   1.000  C
  H419     1.0000 0.85880  0.72290  0.00000  Biso   1.000  H
  C468     1.0000 0.89780  0.70460  0.00000  Biso   1.000  C
  H420     1.0000 0.90810  0.72160  0.00000  Biso   1.000  H
  O25      1.0000 0.54290  0.84660  0.00000  Biso   1.000  O
  O26      1.0000 0.54250  0.79800  0.00000  Biso   1.000  O
  C469     1.0000 0.55390  0.82220  0.00000  Biso   1.000  C
  C470     1.0000 0.58670  0.82210  0.00000  Biso   1.000  C
  C471     1.0000 0.60180  0.84720  0.00000  Biso   1.000  C
  H421     1.0000 0.59220  0.86470  0.00000  Biso   1.000  H
  C472     1.0000 0.63140  0.84660  0.00000  Biso   1.000  C
  C473     1.0000 0.64560  0.81980  0.00000  Biso   1.000  C
  C474     1.0000 0.63140  0.79440  0.00000  Biso   1.000  C
  H422     1.0000 0.64120  0.77710  0.00000  Biso   1.000  H
  C475     1.0000 0.60220  0.79540  0.00000  Biso   1.000  C
  H423     1.0000 0.59190  0.77840  0.00000  Biso   1.000  H
  O27      1.0000 0.54290  0.34660  0.50000  Biso   1.000  O
  O28      1.0000 0.54250  0.29800  0.50000  Biso   1.000  O
  C476     1.0000 0.55390  0.32220  0.50000  Biso   1.000  C
  C477     1.0000 0.58670  0.32210  0.50000  Biso   1.000  C
  C478     1.0000 0.60180  0.34720  0.50000  Biso   1.000  C
  H424     1.0000 0.59220  0.36470  0.50000  Biso   1.000  H
  C479     1.0000 0.63140  0.34660  0.50000  Biso   1.000  C
  C480     1.0000 0.64560  0.31980  0.50000  Biso   1.000  C
  C481     1.0000 0.63140  0.29440  0.50000  Biso   1.000  C
  H425     1.0000 0.64120  0.27710  0.50000  Biso   1.000  H
  C482     1.0000 0.60220  0.29540  0.50000  Biso   1.000  C
  H426     1.0000 0.59190  0.27840  0.50000  Biso   1.000  H
  O29      1.0000 0.04290  0.84660  0.50000  Biso   1.000  O
  O30      1.0000 0.04250  0.79800  0.50000  Biso   1.000  O
  C483     1.0000 0.05390  0.82220  0.50000  Biso   1.000  C
  C484     1.0000 0.08670  0.82210  0.50000  Biso   1.000  C
  C485     1.0000 0.10180  0.84720  0.50000  Biso   1.000  C
  H427     1.0000 0.09220  0.86470  0.50000  Biso   1.000  H
  C486     1.0000 0.13140  0.84660  0.50000  Biso   1.000  C
  C487     1.0000 0.14560  0.81980  0.50000  Biso   1.000  C
  C488     1.0000 0.13140  0.79440  0.50000  Biso   1.000  C
  H428     1.0000 0.14120  0.77710  0.50000  Biso   1.000  H
  C489     1.0000 0.10220  0.79540  0.50000  Biso   1.000  C
  H429     1.0000 0.09190  0.77840  0.50000  Biso   1.000  H
  O31      1.0000 0.04290  0.34660  0.00000  Biso   1.000  O
  O32      1.0000 0.04250  0.29800  0.00000  Biso   1.000  O
  C490     1.0000 0.05390  0.32220  0.00000  Biso   1.000  C
  C491     1.0000 0.08670  0.32210  0.00000  Biso   1.000  C
  C492     1.0000 0.10180  0.34720  0.00000  Biso   1.000  C
  H430     1.0000 0.09220  0.36470  0.00000  Biso   1.000  H
  C493     1.0000 0.13140  0.34660  0.00000  Biso   1.000  C
  C494     1.0000 0.14560  0.31980  0.00000  Biso   1.000  C
  C495     1.0000 0.13140  0.29440  0.00000  Biso   1.000  C
  H431     1.0000 0.14120  0.27710  0.00000  Biso   1.000  H
  C496     1.0000 0.10220  0.29540  0.00000  Biso   1.000  C
  H432     1.0000 0.09190  0.27840  0.00000  Biso   1.000  H
  O33      1.0000 0.00000  0.54290  0.15340  Biso   1.000  O
  O34      1.0000 0.00000  0.54250  0.20200  Biso   1.000  O
  C497     1.0000 0.00000  0.55390  0.17780  Biso   1.000  C
  C498     1.0000 0.00000  0.58670  0.17790  Biso   1.000  C
  C499     1.0000 0.00000  0.60180  0.15280  Biso   1.000  C
  H433     1.0000 0.00000  0.59220  0.13530  Biso   1.000  H
  C500     1.0000 0.00000  0.63140  0.15340  Biso   1.000  C
  C501     1.0000 0.00000  0.64560  0.18020  Biso   1.000  C
  C502     1.0000 0.00000  0.63140  0.20560  Biso   1.000  C
  H434     1.0000 0.00000  0.64120  0.22290  Biso   1.000  H
  C503     1.0000 0.00000  0.60220  0.20460  Biso   1.000  C
  H435     1.0000 0.00000  0.59190  0.22160  Biso   1.000  H
  O35      1.0000 0.00000  0.04290  0.65340  Biso   1.000  O
  O36      1.0000 0.00000  0.04250  0.70200  Biso   1.000  O
  C504     1.0000 0.00000  0.05390  0.67780  Biso   1.000  C
  C505     1.0000 0.00000  0.08670  0.67790  Biso   1.000  C
  C506     1.0000 0.00000  0.10180  0.65280  Biso   1.000  C
  H436     1.0000 0.00000  0.09220  0.63530  Biso   1.000  H
  C507     1.0000 0.00000  0.13140  0.65340  Biso   1.000  C
  C508     1.0000 0.00000  0.14560  0.68020  Biso   1.000  C
  C509     1.0000 0.00000  0.13140  0.70560  Biso   1.000  C
  H437     1.0000 0.00000  0.14120  0.72290  Biso   1.000  H
  C510     1.0000 0.00000  0.10220  0.70460  Biso   1.000  C
  H438     1.0000 0.00000  0.09190  0.72160  Biso   1.000  H
  O37      1.0000 0.50000  0.54290  0.65340  Biso   1.000  O
  O38      1.0000 0.50000  0.54250  0.70200  Biso   1.000  O
  C511     1.0000 0.50000  0.55390  0.67780  Biso   1.000  C
  C512     1.0000 0.50000  0.58670  0.67790  Biso   1.000  C
  C513     1.0000 0.50000  0.60180  0.65280  Biso   1.000  C
  H439     1.0000 0.50000  0.59220  0.63530  Biso   1.000  H
  C514     1.0000 0.50000  0.63140  0.65340  Biso   1.000  C
  C515     1.0000 0.50000  0.64560  0.68020  Biso   1.000  C
  C516     1.0000 0.50000  0.63140  0.70560  Biso   1.000  C
  H440     1.0000 0.50000  0.64120  0.72290  Biso   1.000  H
  C517     1.0000 0.50000  0.60220  0.70460  Biso   1.000  C
  H441     1.0000 0.50000  0.59190  0.72160  Biso   1.000  H
  O39      1.0000 0.50000  0.04290  0.15340  Biso   1.000  O
  O40      1.0000 0.50000  0.04250  0.20200  Biso   1.000  O
  C518     1.0000 0.50000  0.05390  0.17780  Biso   1.000  C
  C519     1.0000 0.50000  0.08670  0.17790  Biso   1.000  C
  C520     1.0000 0.50000  0.10180  0.15280  Biso   1.000  C
  H442     1.0000 0.50000  0.09220  0.13530  Biso   1.000  H
  C521     1.0000 0.50000  0.13140  0.15340  Biso   1.000  C
  C522     1.0000 0.50000  0.14560  0.18020  Biso   1.000  C
  C523     1.0000 0.50000  0.13140  0.20560  Biso   1.000  C
  H443     1.0000 0.50000  0.14120  0.22290  Biso   1.000  H
  C524     1.0000 0.50000  0.10220  0.20460  Biso   1.000  C
  H444     1.0000 0.50000  0.09190  0.22160  Biso   1.000  H
  O41      1.0000 0.00000  0.45710  0.84660  Biso   1.000  O
  O42      1.0000 0.00000  0.45750  0.79800  Biso   1.000  O
  C525     1.0000 0.00000  0.44610  0.82220  Biso   1.000  C
  C526     1.0000 0.00000  0.41330  0.82210  Biso   1.000  C
  C527     1.0000 0.00000  0.39820  0.84720  Biso   1.000  C
  H445     1.0000 0.00000  0.40780  0.86470  Biso   1.000  H
  C528     1.0000 0.00000  0.36860  0.84660  Biso   1.000  C
  C529     1.0000 0.00000  0.35440  0.81980  Biso   1.000  C
  C530     1.0000 0.00000  0.36860  0.79440  Biso   1.000  C
  H446     1.0000 0.00000  0.35880  0.77710  Biso   1.000  H
  C531     1.0000 0.00000  0.39780  0.79540  Biso   1.000  C
  H447     1.0000 0.00000  0.40810  0.77840  Biso   1.000  H
  O43      1.0000 0.00000  0.95710  0.34660  Biso   1.000  O
  O44      1.0000 0.00000  0.95750  0.29800  Biso   1.000  O
  C532     1.0000 0.00000  0.94610  0.32220  Biso   1.000  C
  C533     1.0000 0.00000  0.91330  0.32210  Biso   1.000  C
  C534     1.0000 0.00000  0.89820  0.34720  Biso   1.000  C
  H448     1.0000 0.00000  0.90780  0.36470  Biso   1.000  H
  C535     1.0000 0.00000  0.86860  0.34660  Biso   1.000  C
  C536     1.0000 0.00000  0.85440  0.31980  Biso   1.000  C
  C537     1.0000 0.00000  0.86860  0.29440  Biso   1.000  C
  H449     1.0000 0.00000  0.85880  0.27710  Biso   1.000  H
  C538     1.0000 0.00000  0.89780  0.29540  Biso   1.000  C
  H450     1.0000 0.00000  0.90810  0.27840  Biso   1.000  H
  O45      1.0000 0.50000  0.45710  0.34660  Biso   1.000  O
  O46      1.0000 0.50000  0.45750  0.29800  Biso   1.000  O
  C539     1.0000 0.50000  0.44610  0.32220  Biso   1.000  C
  C540     1.0000 0.50000  0.41330  0.32210  Biso   1.000  C
  C541     1.0000 0.50000  0.39820  0.34720  Biso   1.000  C
  H451     1.0000 0.50000  0.40780  0.36470  Biso   1.000  H
  C542     1.0000 0.50000  0.36860  0.34660  Biso   1.000  C
  C543     1.0000 0.50000  0.35440  0.31980  Biso   1.000  C
  C544     1.0000 0.50000  0.36860  0.29440  Biso   1.000  C
  H452     1.0000 0.50000  0.35880  0.27710  Biso   1.000  H
  C545     1.0000 0.50000  0.39780  0.29540  Biso   1.000  C
  H453     1.0000 0.50000  0.40810  0.27840  Biso   1.000  H
  O47      1.0000 0.50000  0.95710  0.84660  Biso   1.000  O
  O48      1.0000 0.50000  0.95750  0.79800  Biso   1.000  O
  C546     1.0000 0.50000  0.94610  0.82220  Biso   1.000  C
  C547     1.0000 0.50000  0.91330  0.82210  Biso   1.000  C
  C548     1.0000 0.50000  0.89820  0.84720  Biso   1.000  C
  H454     1.0000 0.50000  0.90780  0.86470  Biso   1.000  H
  C549     1.0000 0.50000  0.86860  0.84660  Biso   1.000  C
  C550     1.0000 0.50000  0.85440  0.81980  Biso   1.000  C
  C551     1.0000 0.50000  0.86860  0.79440  Biso   1.000  C
  H455     1.0000 0.50000  0.85880  0.77710  Biso   1.000  H
  C552     1.0000 0.50000  0.89780  0.79540  Biso   1.000  C
  H456     1.0000 0.50000  0.90810  0.77840  Biso   1.000  H
  O49      1.0000 0.00000  0.45710  0.15340  Biso   1.000  O
  O50      1.0000 0.00000  0.45750  0.20200  Biso   1.000  O
  C553     1.0000 0.00000  0.44610  0.17780  Biso   1.000  C
  C554     1.0000 0.00000  0.41330  0.17790  Biso   1.000  C
  C555     1.0000 0.00000  0.39820  0.15280  Biso   1.000  C
  H457     1.0000 0.00000  0.40780  0.13530  Biso   1.000  H
  C556     1.0000 0.00000  0.36860  0.15340  Biso   1.000  C
  C557     1.0000 0.00000  0.35440  0.18020  Biso   1.000  C
  C558     1.0000 0.00000  0.36860  0.20560  Biso   1.000  C
  H458     1.0000 0.00000  0.35880  0.22290  Biso   1.000  H
  C559     1.0000 0.00000  0.39780  0.20460  Biso   1.000  C
  H459     1.0000 0.00000  0.40810  0.22160  Biso   1.000  H
  O51      1.0000 0.00000  0.95710  0.65340  Biso   1.000  O
  O52      1.0000 0.00000  0.95750  0.70200  Biso   1.000  O
  C560     1.0000 0.00000  0.94610  0.67780  Biso   1.000  C
  C561     1.0000 0.00000  0.91330  0.67790  Biso   1.000  C
  C562     1.0000 0.00000  0.89820  0.65280  Biso   1.000  C
  H460     1.0000 0.00000  0.90780  0.63530  Biso   1.000  H
  C563     1.0000 0.00000  0.86860  0.65340  Biso   1.000  C
  C564     1.0000 0.00000  0.85440  0.68020  Biso   1.000  C
  C565     1.0000 0.00000  0.86860  0.70560  Biso   1.000  C
  H461     1.0000 0.00000  0.85880  0.72290  Biso   1.000  H
  C566     1.0000 0.00000  0.89780  0.70460  Biso   1.000  C
  H462     1.0000 0.00000  0.90810  0.72160  Biso   1.000  H
  O53      1.0000 0.50000  0.45710  0.65340  Biso   1.000  O
  O54      1.0000 0.50000  0.45750  0.70200  Biso   1.000  O
  C567     1.0000 0.50000  0.44610  0.67780  Biso   1.000  C
  C568     1.0000 0.50000  0.41330  0.67790  Biso   1.000  C
  C569     1.0000 0.50000  0.39820  0.65280  Biso   1.000  C
  H463     1.0000 0.50000  0.40780  0.63530  Biso   1.000  H
  C570     1.0000 0.50000  0.36860  0.65340  Biso   1.000  C
  C571     1.0000 0.50000  0.35440  0.68020  Biso   1.000  C
  C572     1.0000 0.50000  0.36860  0.70560  Biso   1.000  C
  H464     1.0000 0.50000  0.35880  0.72290  Biso   1.000  H
  C573     1.0000 0.50000  0.39780  0.70460  Biso   1.000  C
  H465     1.0000 0.50000  0.40810  0.72160  Biso   1.000  H
  O55      1.0000 0.50000  0.95710  0.15340  Biso   1.000  O
  O56      1.0000 0.50000  0.95750  0.20200  Biso   1.000  O
  C574     1.0000 0.50000  0.94610  0.17780  Biso   1.000  C
  C575     1.0000 0.50000  0.91330  0.17790  Biso   1.000  C
  C576     1.0000 0.50000  0.89820  0.15280  Biso   1.000  C
  H466     1.0000 0.50000  0.90780  0.13530  Biso   1.000  H
  C577     1.0000 0.50000  0.86860  0.15340  Biso   1.000  C
  C578     1.0000 0.50000  0.85440  0.18020  Biso   1.000  C
  C579     1.0000 0.50000  0.86860  0.20560  Biso   1.000  C
  H467     1.0000 0.50000  0.85880  0.22290  Biso   1.000  H
  C580     1.0000 0.50000  0.89780  0.20460  Biso   1.000  C
  H468     1.0000 0.50000  0.90810  0.22160  Biso   1.000  H
  O57      1.0000 0.00000  0.54290  0.84660  Biso   1.000  O
  O58      1.0000 0.00000  0.54250  0.79800  Biso   1.000  O
  C581     1.0000 0.00000  0.55390  0.82220  Biso   1.000  C
  C582     1.0000 0.00000  0.58670  0.82210  Biso   1.000  C
  C583     1.0000 0.00000  0.60180  0.84720  Biso   1.000  C
  H469     1.0000 0.00000  0.59220  0.86470  Biso   1.000  H
  C584     1.0000 0.00000  0.63140  0.84660  Biso   1.000  C
  C585     1.0000 0.00000  0.64560  0.81980  Biso   1.000  C
  C586     1.0000 0.00000  0.63140  0.79440  Biso   1.000  C
  H470     1.0000 0.00000  0.64120  0.77710  Biso   1.000  H
  C587     1.0000 0.00000  0.60220  0.79540  Biso   1.000  C
  H471     1.0000 0.00000  0.59190  0.77840  Biso   1.000  H
  O59      1.0000 0.00000  0.04290  0.34660  Biso   1.000  O
  O60      1.0000 0.00000  0.04250  0.29800  Biso   1.000  O
  C588     1.0000 0.00000  0.05390  0.32220  Biso   1.000  C
  C589     1.0000 0.00000  0.08670  0.32210  Biso   1.000  C
  C590     1.0000 0.00000  0.10180  0.34720  Biso   1.000  C
  H472     1.0000 0.00000  0.09220  0.36470  Biso   1.000  H
  C591     1.0000 0.00000  0.13140  0.34660  Biso   1.000  C
  C592     1.0000 0.00000  0.14560  0.31980  Biso   1.000  C
  C593     1.0000 0.00000  0.13140  0.29440  Biso   1.000  C
  H473     1.0000 0.00000  0.14120  0.27710  Biso   1.000  H
  C594     1.0000 0.00000  0.10220  0.29540  Biso   1.000  C
  H474     1.0000 0.00000  0.09190  0.27840  Biso   1.000  H
  O61      1.0000 0.50000  0.54290  0.34660  Biso   1.000  O
  O62      1.0000 0.50000  0.54250  0.29800  Biso   1.000  O
  C595     1.0000 0.50000  0.55390  0.32220  Biso   1.000  C
  C596     1.0000 0.50000  0.58670  0.32210  Biso   1.000  C
  C597     1.0000 0.50000  0.60180  0.34720  Biso   1.000  C
  H475     1.0000 0.50000  0.59220  0.36470  Biso   1.000  H
  C598     1.0000 0.50000  0.63140  0.34660  Biso   1.000  C
  C599     1.0000 0.50000  0.64560  0.31980  Biso   1.000  C
  C600     1.0000 0.50000  0.63140  0.29440  Biso   1.000  C
  H476     1.0000 0.50000  0.64120  0.27710  Biso   1.000  H
  C601     1.0000 0.50000  0.60220  0.29540  Biso   1.000  C
  H477     1.0000 0.50000  0.59190  0.27840  Biso   1.000  H
  O63      1.0000 0.50000  0.04290  0.84660  Biso   1.000  O
  O64      1.0000 0.50000  0.04250  0.79800  Biso   1.000  O
  C602     1.0000 0.50000  0.05390  0.82220  Biso   1.000  C
  C603     1.0000 0.50000  0.08670  0.82210  Biso   1.000  C
  C604     1.0000 0.50000  0.10180  0.84720  Biso   1.000  C
  H478     1.0000 0.50000  0.09220  0.86470  Biso   1.000  H
  C605     1.0000 0.50000  0.13140  0.84660  Biso   1.000  C
  C606     1.0000 0.50000  0.14560  0.81980  Biso   1.000  C
  C607     1.0000 0.50000  0.13140  0.79440  Biso   1.000  C
  H479     1.0000 0.50000  0.14120  0.77710  Biso   1.000  H
  C608     1.0000 0.50000  0.10220  0.79540  Biso   1.000  C
  H480     1.0000 0.50000  0.09190  0.77840  Biso   1.000  H
  O65      1.0000 0.15340  0.00000  0.54290  Biso   1.000  O
  O66      1.0000 0.20200  0.00000  0.54250  Biso   1.000  O
  C609     1.0000 0.17780  0.00000  0.55390  Biso   1.000  C
  C610     1.0000 0.17790  0.00000  0.58670  Biso   1.000  C
  C611     1.0000 0.15280  0.00000  0.60180  Biso   1.000  C
  H481     1.0000 0.13530  0.00000  0.59220  Biso   1.000  H
  C612     1.0000 0.15340  0.00000  0.63140  Biso   1.000  C
  C613     1.0000 0.18020  0.00000  0.64560  Biso   1.000  C
  C614     1.0000 0.20560  0.00000  0.63140  Biso   1.000  C
  H482     1.0000 0.22290  0.00000  0.64120  Biso   1.000  H
  C615     1.0000 0.20460  0.00000  0.60220  Biso   1.000  C
  H483     1.0000 0.22160  0.00000  0.59190  Biso   1.000  H
  O67      1.0000 0.15340  0.50000  0.04290  Biso   1.000  O
  O68      1.0000 0.20200  0.50000  0.04250  Biso   1.000  O
  C616     1.0000 0.17780  0.50000  0.05390  Biso   1.000  C
  C617     1.0000 0.17790  0.50000  0.08670  Biso   1.000  C
  C618     1.0000 0.15280  0.50000  0.10180  Biso   1.000  C
  H484     1.0000 0.13530  0.50000  0.09220  Biso   1.000  H
  C619     1.0000 0.15340  0.50000  0.13140  Biso   1.000  C
  C620     1.0000 0.18020  0.50000  0.14560  Biso   1.000  C
  C621     1.0000 0.20560  0.50000  0.13140  Biso   1.000  C
  H485     1.0000 0.22290  0.50000  0.14120  Biso   1.000  H
  C622     1.0000 0.20460  0.50000  0.10220  Biso   1.000  C
  H486     1.0000 0.22160  0.50000  0.09190  Biso   1.000  H
  O69      1.0000 0.65340  0.00000  0.04290  Biso   1.000  O
  O70      1.0000 0.70200  0.00000  0.04250  Biso   1.000  O
  C623     1.0000 0.67780  0.00000  0.05390  Biso   1.000  C
  C624     1.0000 0.67790  0.00000  0.08670  Biso   1.000  C
  C625     1.0000 0.65280  0.00000  0.10180  Biso   1.000  C
  H487     1.0000 0.63530  0.00000  0.09220  Biso   1.000  H
  C626     1.0000 0.65340  0.00000  0.13140  Biso   1.000  C
  C627     1.0000 0.68020  0.00000  0.14560  Biso   1.000  C
  C628     1.0000 0.70560  0.00000  0.13140  Biso   1.000  C
  H488     1.0000 0.72290  0.00000  0.14120  Biso   1.000  H
  C629     1.0000 0.70460  0.00000  0.10220  Biso   1.000  C
  H489     1.0000 0.72160  0.00000  0.09190  Biso   1.000  H
  O71      1.0000 0.65340  0.50000  0.54290  Biso   1.000  O
  O72      1.0000 0.70200  0.50000  0.54250  Biso   1.000  O
  C630     1.0000 0.67780  0.50000  0.55390  Biso   1.000  C
  C631     1.0000 0.67790  0.50000  0.58670  Biso   1.000  C
  C632     1.0000 0.65280  0.50000  0.60180  Biso   1.000  C
  H490     1.0000 0.63530  0.50000  0.59220  Biso   1.000  H
  C633     1.0000 0.65340  0.50000  0.63140  Biso   1.000  C
  C634     1.0000 0.68020  0.50000  0.64560  Biso   1.000  C
  C635     1.0000 0.70560  0.50000  0.63140  Biso   1.000  C
  H491     1.0000 0.72290  0.50000  0.64120  Biso   1.000  H
  C636     1.0000 0.70460  0.50000  0.60220  Biso   1.000  C
  H492     1.0000 0.72160  0.50000  0.59190  Biso   1.000  H
  O73      1.0000 0.84660  0.00000  0.45710  Biso   1.000  O
  O74      1.0000 0.79800  0.00000  0.45750  Biso   1.000  O
  C637     1.0000 0.82220  0.00000  0.44610  Biso   1.000  C
  C638     1.0000 0.82210  0.00000  0.41330  Biso   1.000  C
  C639     1.0000 0.84720  0.00000  0.39820  Biso   1.000  C
  H493     1.0000 0.86470  0.00000  0.40780  Biso   1.000  H
  C640     1.0000 0.84660  0.00000  0.36860  Biso   1.000  C
  C641     1.0000 0.81980  0.00000  0.35440  Biso   1.000  C
  C642     1.0000 0.79440  0.00000  0.36860  Biso   1.000  C
  H494     1.0000 0.77710  0.00000  0.35880  Biso   1.000  H
  C643     1.0000 0.79540  0.00000  0.39780  Biso   1.000  C
  H495     1.0000 0.77840  0.00000  0.40810  Biso   1.000  H
  O75      1.0000 0.84660  0.50000  0.95710  Biso   1.000  O
  O76      1.0000 0.79800  0.50000  0.95750  Biso   1.000  O
  C644     1.0000 0.82220  0.50000  0.94610  Biso   1.000  C
  C645     1.0000 0.82210  0.50000  0.91330  Biso   1.000  C
  C646     1.0000 0.84720  0.50000  0.89820  Biso   1.000  C
  H496     1.0000 0.86470  0.50000  0.90780  Biso   1.000  H
  C647     1.0000 0.84660  0.50000  0.86860  Biso   1.000  C
  C648     1.0000 0.81980  0.50000  0.85440  Biso   1.000  C
  C649     1.0000 0.79440  0.50000  0.86860  Biso   1.000  C
  H497     1.0000 0.77710  0.50000  0.85880  Biso   1.000  H
  C650     1.0000 0.79540  0.50000  0.89780  Biso   1.000  C
  H498     1.0000 0.77840  0.50000  0.90810  Biso   1.000  H
  O77      1.0000 0.34660  0.00000  0.95710  Biso   1.000  O
  O78      1.0000 0.29800  0.00000  0.95750  Biso   1.000  O
  C651     1.0000 0.32220  0.00000  0.94610  Biso   1.000  C
  C652     1.0000 0.32210  0.00000  0.91330  Biso   1.000  C
  C653     1.0000 0.34720  0.00000  0.89820  Biso   1.000  C
  H499     1.0000 0.36470  0.00000  0.90780  Biso   1.000  H
  C654     1.0000 0.34660  0.00000  0.86860  Biso   1.000  C
  C655     1.0000 0.31980  0.00000  0.85440  Biso   1.000  C
  C656     1.0000 0.29440  0.00000  0.86860  Biso   1.000  C
  H500     1.0000 0.27710  0.00000  0.85880  Biso   1.000  H
  C657     1.0000 0.29540  0.00000  0.89780  Biso   1.000  C
  H501     1.0000 0.27840  0.00000  0.90810  Biso   1.000  H
  O79      1.0000 0.34660  0.50000  0.45710  Biso   1.000  O
  O80      1.0000 0.29800  0.50000  0.45750  Biso   1.000  O
  C658     1.0000 0.32220  0.50000  0.44610  Biso   1.000  C
  C659     1.0000 0.32210  0.50000  0.41330  Biso   1.000  C
  C660     1.0000 0.34720  0.50000  0.39820  Biso   1.000  C
  H502     1.0000 0.36470  0.50000  0.40780  Biso   1.000  H
  C661     1.0000 0.34660  0.50000  0.36860  Biso   1.000  C
  C662     1.0000 0.31980  0.50000  0.35440  Biso   1.000  C
  C663     1.0000 0.29440  0.50000  0.36860  Biso   1.000  C
  H503     1.0000 0.27710  0.50000  0.35880  Biso   1.000  H
  C664     1.0000 0.29540  0.50000  0.39780  Biso   1.000  C
  H504     1.0000 0.27840  0.50000  0.40810  Biso   1.000  H
  O81      1.0000 0.15340  0.00000  0.45710  Biso   1.000  O
  O82      1.0000 0.20200  0.00000  0.45750  Biso   1.000  O
  C665     1.0000 0.17780  0.00000  0.44610  Biso   1.000  C
  C666     1.0000 0.17790  0.00000  0.41330  Biso   1.000  C
  C667     1.0000 0.15280  0.00000  0.39820  Biso   1.000  C
  H505     1.0000 0.13530  0.00000  0.40780  Biso   1.000  H
  C668     1.0000 0.15340  0.00000  0.36860  Biso   1.000  C
  C669     1.0000 0.18020  0.00000  0.35440  Biso   1.000  C
  C670     1.0000 0.20560  0.00000  0.36860  Biso   1.000  C
  H506     1.0000 0.22290  0.00000  0.35880  Biso   1.000  H
  C671     1.0000 0.20460  0.00000  0.39780  Biso   1.000  C
  H507     1.0000 0.22160  0.00000  0.40810  Biso   1.000  H
  O83      1.0000 0.15340  0.50000  0.95710  Biso   1.000  O
  O84      1.0000 0.20200  0.50000  0.95750  Biso   1.000  O
  C672     1.0000 0.17780  0.50000  0.94610  Biso   1.000  C
  C673     1.0000 0.17790  0.50000  0.91330  Biso   1.000  C
  C674     1.0000 0.15280  0.50000  0.89820  Biso   1.000  C
  H508     1.0000 0.13530  0.50000  0.90780  Biso   1.000  H
  C675     1.0000 0.15340  0.50000  0.86860  Biso   1.000  C
  C676     1.0000 0.18020  0.50000  0.85440  Biso   1.000  C
  C677     1.0000 0.20560  0.50000  0.86860  Biso   1.000  C
  H509     1.0000 0.22290  0.50000  0.85880  Biso   1.000  H
  C678     1.0000 0.20460  0.50000  0.89780  Biso   1.000  C
  H510     1.0000 0.22160  0.50000  0.90810  Biso   1.000  H
  O85      1.0000 0.65340  0.00000  0.95710  Biso   1.000  O
  O86      1.0000 0.70200  0.00000  0.95750  Biso   1.000  O
  C679     1.0000 0.67780  0.00000  0.94610  Biso   1.000  C
  C680     1.0000 0.67790  0.00000  0.91330  Biso   1.000  C
  C681     1.0000 0.65280  0.00000  0.89820  Biso   1.000  C
  H511     1.0000 0.63530  0.00000  0.90780  Biso   1.000  H
  C682     1.0000 0.65340  0.00000  0.86860  Biso   1.000  C
  C683     1.0000 0.68020  0.00000  0.85440  Biso   1.000  C
  C684     1.0000 0.70560  0.00000  0.86860  Biso   1.000  C
  H512     1.0000 0.72290  0.00000  0.85880  Biso   1.000  H
  C685     1.0000 0.70460  0.00000  0.89780  Biso   1.000  C
  H513     1.0000 0.72160  0.00000  0.90810  Biso   1.000  H
  O87      1.0000 0.65340  0.50000  0.45710  Biso   1.000  O
  O88      1.0000 0.70200  0.50000  0.45750  Biso   1.000  O
  C686     1.0000 0.67780  0.50000  0.44610  Biso   1.000  C
  C687     1.0000 0.67790  0.50000  0.41330  Biso   1.000  C
  C688     1.0000 0.65280  0.50000  0.39820  Biso   1.000  C
  H514     1.0000 0.63530  0.50000  0.40780  Biso   1.000  H
  C689     1.0000 0.65340  0.50000  0.36860  Biso   1.000  C
  C690     1.0000 0.68020  0.50000  0.35440  Biso   1.000  C
  C691     1.0000 0.70560  0.50000  0.36860  Biso   1.000  C
  H515     1.0000 0.72290  0.50000  0.35880  Biso   1.000  H
  C692     1.0000 0.70460  0.50000  0.39780  Biso   1.000  C
  H516     1.0000 0.72160  0.50000  0.40810  Biso   1.000  H
  O89      1.0000 0.84660  0.00000  0.54290  Biso   1.000  O
  O90      1.0000 0.79800  0.00000  0.54250  Biso   1.000  O
  C693     1.0000 0.82220  0.00000  0.55390  Biso   1.000  C
  C694     1.0000 0.82210  0.00000  0.58670  Biso   1.000  C
  C695     1.0000 0.84720  0.00000  0.60180  Biso   1.000  C
  H517     1.0000 0.86470  0.00000  0.59220  Biso   1.000  H
  C696     1.0000 0.84660  0.00000  0.63140  Biso   1.000  C
  C697     1.0000 0.81980  0.00000  0.64560  Biso   1.000  C
  C698     1.0000 0.79440  0.00000  0.63140  Biso   1.000  C
  H518     1.0000 0.77710  0.00000  0.64120  Biso   1.000  H
  C699     1.0000 0.79540  0.00000  0.60220  Biso   1.000  C
  H519     1.0000 0.77840  0.00000  0.59190  Biso   1.000  H
  O91      1.0000 0.84660  0.50000  0.04290  Biso   1.000  O
  O92      1.0000 0.79800  0.50000  0.04250  Biso   1.000  O
  C700     1.0000 0.82220  0.50000  0.05390  Biso   1.000  C
  C701     1.0000 0.82210  0.50000  0.08670  Biso   1.000  C
  C702     1.0000 0.84720  0.50000  0.10180  Biso   1.000  C
  H520     1.0000 0.86470  0.50000  0.09220  Biso   1.000  H
  C703     1.0000 0.84660  0.50000  0.13140  Biso   1.000  C
  C704     1.0000 0.81980  0.50000  0.14560  Biso   1.000  C
  C705     1.0000 0.79440  0.50000  0.13140  Biso   1.000  C
  H521     1.0000 0.77710  0.50000  0.14120  Biso   1.000  H
  C706     1.0000 0.79540  0.50000  0.10220  Biso   1.000  C
  H522     1.0000 0.77840  0.50000  0.09190  Biso   1.000  H
  O93      1.0000 0.34660  0.00000  0.04290  Biso   1.000  O
  O94      1.0000 0.29800  0.00000  0.04250  Biso   1.000  O
  C707     1.0000 0.32220  0.00000  0.05390  Biso   1.000  C
  C708     1.0000 0.32210  0.00000  0.08670  Biso   1.000  C
  C709     1.0000 0.34720  0.00000  0.10180  Biso   1.000  C
  H523     1.0000 0.36470  0.00000  0.09220  Biso   1.000  H
  C710     1.0000 0.34660  0.00000  0.13140  Biso   1.000  C
  C711     1.0000 0.31980  0.00000  0.14560  Biso   1.000  C
  C712     1.0000 0.29440  0.00000  0.13140  Biso   1.000  C
  H524     1.0000 0.27710  0.00000  0.14120  Biso   1.000  H
  C713     1.0000 0.29540  0.00000  0.10220  Biso   1.000  C
  H525     1.0000 0.27840  0.00000  0.09190  Biso   1.000  H
  O95      1.0000 0.34660  0.50000  0.54290  Biso   1.000  O
  O96      1.0000 0.29800  0.50000  0.54250  Biso   1.000  O
  C714     1.0000 0.32220  0.50000  0.55390  Biso   1.000  C
  C715     1.0000 0.32210  0.50000  0.58670  Biso   1.000  C
  C716     1.0000 0.34720  0.50000  0.60180  Biso   1.000  C
  H526     1.0000 0.36470  0.50000  0.59220  Biso   1.000  H
  C717     1.0000 0.34660  0.50000  0.63140  Biso   1.000  C
  C718     1.0000 0.31980  0.50000  0.64560  Biso   1.000  C
  C719     1.0000 0.29440  0.50000  0.63140  Biso   1.000  C
  H527     1.0000 0.27710  0.50000  0.64120  Biso   1.000  H
  C720     1.0000 0.29540  0.50000  0.60220  Biso   1.000  C
  H528     1.0000 0.27840  0.50000  0.59190  Biso   1.000  H
  O97      1.0000 0.15340  0.54290  0.00000  Biso   1.000  O
  O98      1.0000 0.20200  0.54250  0.00000  Biso   1.000  O
  C721     1.0000 0.17780  0.55390  0.00000  Biso   1.000  C
  C722     1.0000 0.17790  0.58670  0.00000  Biso   1.000  C
  C723     1.0000 0.15280  0.60180  0.00000  Biso   1.000  C
  H529     1.0000 0.13530  0.59220  0.00000  Biso   1.000  H
  C724     1.0000 0.15340  0.63140  0.00000  Biso   1.000  C
  C725     1.0000 0.18020  0.64560  0.00000  Biso   1.000  C
  C726     1.0000 0.20560  0.63140  0.00000  Biso   1.000  C
  H530     1.0000 0.22290  0.64120  0.00000  Biso   1.000  H
  C727     1.0000 0.20460  0.60220  0.00000  Biso   1.000  C
  H531     1.0000 0.22160  0.59190  0.00000  Biso   1.000  H
  O99      1.0000 0.15340  0.04290  0.50000  Biso   1.000  O
  O100     1.0000 0.20200  0.04250  0.50000  Biso   1.000  O
  C728     1.0000 0.17780  0.05390  0.50000  Biso   1.000  C
  C729     1.0000 0.17790  0.08670  0.50000  Biso   1.000  C
  C730     1.0000 0.15280  0.10180  0.50000  Biso   1.000  C
  H532     1.0000 0.13530  0.09220  0.50000  Biso   1.000  H
  C731     1.0000 0.15340  0.13140  0.50000  Biso   1.000  C
  C732     1.0000 0.18020  0.14560  0.50000  Biso   1.000  C
  C733     1.0000 0.20560  0.13140  0.50000  Biso   1.000  C
  H533     1.0000 0.22290  0.14120  0.50000  Biso   1.000  H
  C734     1.0000 0.20460  0.10220  0.50000  Biso   1.000  C
  H534     1.0000 0.22160  0.09190  0.50000  Biso   1.000  H
  O101     1.0000 0.65340  0.54290  0.50000  Biso   1.000  O
  O102     1.0000 0.70200  0.54250  0.50000  Biso   1.000  O
  C735     1.0000 0.67780  0.55390  0.50000  Biso   1.000  C
  C736     1.0000 0.67790  0.58670  0.50000  Biso   1.000  C
  C737     1.0000 0.65280  0.60180  0.50000  Biso   1.000  C
  H535     1.0000 0.63530  0.59220  0.50000  Biso   1.000  H
  C738     1.0000 0.65340  0.63140  0.50000  Biso   1.000  C
  C739     1.0000 0.68020  0.64560  0.50000  Biso   1.000  C
  C740     1.0000 0.70560  0.63140  0.50000  Biso   1.000  C
  H536     1.0000 0.72290  0.64120  0.50000  Biso   1.000  H
  C741     1.0000 0.70460  0.60220  0.50000  Biso   1.000  C
  H537     1.0000 0.72160  0.59190  0.50000  Biso   1.000  H
  O103     1.0000 0.65340  0.04290  0.00000  Biso   1.000  O
  O104     1.0000 0.70200  0.04250  0.00000  Biso   1.000  O
  C742     1.0000 0.67780  0.05390  0.00000  Biso   1.000  C
  C743     1.0000 0.67790  0.08670  0.00000  Biso   1.000  C
  C744     1.0000 0.65280  0.10180  0.00000  Biso   1.000  C
  H538     1.0000 0.63530  0.09220  0.00000  Biso   1.000  H
  C745     1.0000 0.65340  0.13140  0.00000  Biso   1.000  C
  C746     1.0000 0.68020  0.14560  0.00000  Biso   1.000  C
  C747     1.0000 0.70560  0.13140  0.00000  Biso   1.000  C
  H539     1.0000 0.72290  0.14120  0.00000  Biso   1.000  H
  C748     1.0000 0.70460  0.10220  0.00000  Biso   1.000  C
  H540     1.0000 0.72160  0.09190  0.00000  Biso   1.000  H
  O105     1.0000 0.84660  0.45710  0.00000  Biso   1.000  O
  O106     1.0000 0.79800  0.45750  0.00000  Biso   1.000  O
  C749     1.0000 0.82220  0.44610  0.00000  Biso   1.000  C
  C750     1.0000 0.82210  0.41330  0.00000  Biso   1.000  C
  C751     1.0000 0.84720  0.39820  0.00000  Biso   1.000  C
  H541     1.0000 0.86470  0.40780  0.00000  Biso   1.000  H
  C752     1.0000 0.84660  0.36860  0.00000  Biso   1.000  C
  C753     1.0000 0.81980  0.35440  0.00000  Biso   1.000  C
  C754     1.0000 0.79440  0.36860  0.00000  Biso   1.000  C
  H542     1.0000 0.77710  0.35880  0.00000  Biso   1.000  H
  C755     1.0000 0.79540  0.39780  0.00000  Biso   1.000  C
  H543     1.0000 0.77840  0.40810  0.00000  Biso   1.000  H
  O107     1.0000 0.84660  0.95710  0.50000  Biso   1.000  O
  O108     1.0000 0.79800  0.95750  0.50000  Biso   1.000  O
  C756     1.0000 0.82220  0.94610  0.50000  Biso   1.000  C
  C757     1.0000 0.82210  0.91330  0.50000  Biso   1.000  C
  C758     1.0000 0.84720  0.89820  0.50000  Biso   1.000  C
  H544     1.0000 0.86470  0.90780  0.50000  Biso   1.000  H
  C759     1.0000 0.84660  0.86860  0.50000  Biso   1.000  C
  C760     1.0000 0.81980  0.85440  0.50000  Biso   1.000  C
  C761     1.0000 0.79440  0.86860  0.50000  Biso   1.000  C
  H545     1.0000 0.77710  0.85880  0.50000  Biso   1.000  H
  C762     1.0000 0.79540  0.89780  0.50000  Biso   1.000  C
  H546     1.0000 0.77840  0.90810  0.50000  Biso   1.000  H
  O109     1.0000 0.34660  0.45710  0.50000  Biso   1.000  O
  O110     1.0000 0.29800  0.45750  0.50000  Biso   1.000  O
  C763     1.0000 0.32220  0.44610  0.50000  Biso   1.000  C
  C764     1.0000 0.32210  0.41330  0.50000  Biso   1.000  C
  C765     1.0000 0.34720  0.39820  0.50000  Biso   1.000  C
  H547     1.0000 0.36470  0.40780  0.50000  Biso   1.000  H
  C766     1.0000 0.34660  0.36860  0.50000  Biso   1.000  C
  C767     1.0000 0.31980  0.35440  0.50000  Biso   1.000  C
  C768     1.0000 0.29440  0.36860  0.50000  Biso   1.000  C
  H548     1.0000 0.27710  0.35880  0.50000  Biso   1.000  H
  C769     1.0000 0.29540  0.39780  0.50000  Biso   1.000  C
  H549     1.0000 0.27840  0.40810  0.50000  Biso   1.000  H
  O111     1.0000 0.34660  0.95710  0.00000  Biso   1.000  O
  O112     1.0000 0.29800  0.95750  0.00000  Biso   1.000  O
  C770     1.0000 0.32220  0.94610  0.00000  Biso   1.000  C
  C771     1.0000 0.32210  0.91330  0.00000  Biso   1.000  C
  C772     1.0000 0.34720  0.89820  0.00000  Biso   1.000  C
  H550     1.0000 0.36470  0.90780  0.00000  Biso   1.000  H
  C773     1.0000 0.34660  0.86860  0.00000  Biso   1.000  C
  C774     1.0000 0.31980  0.85440  0.00000  Biso   1.000  C
  C775     1.0000 0.29440  0.86860  0.00000  Biso   1.000  C
  H551     1.0000 0.27710  0.85880  0.00000  Biso   1.000  H
  C776     1.0000 0.29540  0.89780  0.00000  Biso   1.000  C
  H552     1.0000 0.27840  0.90810  0.00000  Biso   1.000  H
  O113     1.0000 0.15340  0.45710  0.00000  Biso   1.000  O
  O114     1.0000 0.20200  0.45750  0.00000  Biso   1.000  O
  C777     1.0000 0.17780  0.44610  0.00000  Biso   1.000  C
  C778     1.0000 0.17790  0.41330  0.00000  Biso   1.000  C
  C779     1.0000 0.15280  0.39820  0.00000  Biso   1.000  C
  H553     1.0000 0.13530  0.40780  0.00000  Biso   1.000  H
  C780     1.0000 0.15340  0.36860  0.00000  Biso   1.000  C
  C781     1.0000 0.18020  0.35440  0.00000  Biso   1.000  C
  C782     1.0000 0.20560  0.36860  0.00000  Biso   1.000  C
  H554     1.0000 0.22290  0.35880  0.00000  Biso   1.000  H
  C783     1.0000 0.20460  0.39780  0.00000  Biso   1.000  C
  H555     1.0000 0.22160  0.40810  0.00000  Biso   1.000  H
  O115     1.0000 0.15340  0.95710  0.50000  Biso   1.000  O
  O116     1.0000 0.20200  0.95750  0.50000  Biso   1.000  O
  C784     1.0000 0.17780  0.94610  0.50000  Biso   1.000  C
  C785     1.0000 0.17790  0.91330  0.50000  Biso   1.000  C
  C786     1.0000 0.15280  0.89820  0.50000  Biso   1.000  C
  H556     1.0000 0.13530  0.90780  0.50000  Biso   1.000  H
  C787     1.0000 0.15340  0.86860  0.50000  Biso   1.000  C
  C788     1.0000 0.18020  0.85440  0.50000  Biso   1.000  C
  C789     1.0000 0.20560  0.86860  0.50000  Biso   1.000  C
  H557     1.0000 0.22290  0.85880  0.50000  Biso   1.000  H
  C790     1.0000 0.20460  0.89780  0.50000  Biso   1.000  C
  H558     1.0000 0.22160  0.90810  0.50000  Biso   1.000  H
  O117     1.0000 0.65340  0.45710  0.50000  Biso   1.000  O
  O118     1.0000 0.70200  0.45750  0.50000  Biso   1.000  O
  C791     1.0000 0.67780  0.44610  0.50000  Biso   1.000  C
  C792     1.0000 0.67790  0.41330  0.50000  Biso   1.000  C
  C793     1.0000 0.65280  0.39820  0.50000  Biso   1.000  C
  H559     1.0000 0.63530  0.40780  0.50000  Biso   1.000  H
  C794     1.0000 0.65340  0.36860  0.50000  Biso   1.000  C
  C795     1.0000 0.68020  0.35440  0.50000  Biso   1.000  C
  C796     1.0000 0.70560  0.36860  0.50000  Biso   1.000  C
  H560     1.0000 0.72290  0.35880  0.50000  Biso   1.000  H
  C797     1.0000 0.70460  0.39780  0.50000  Biso   1.000  C
  H561     1.0000 0.72160  0.40810  0.50000  Biso   1.000  H
  O119     1.0000 0.65340  0.95710  0.00000  Biso   1.000  O
  O120     1.0000 0.70200  0.95750  0.00000  Biso   1.000  O
  C798     1.0000 0.67780  0.94610  0.00000  Biso   1.000  C
  C799     1.0000 0.67790  0.91330  0.00000  Biso   1.000  C
  C800     1.0000 0.65280  0.89820  0.00000  Biso   1.000  C
  H562     1.0000 0.63530  0.90780  0.00000  Biso   1.000  H
  C801     1.0000 0.65340  0.86860  0.00000  Biso   1.000  C
  C802     1.0000 0.68020  0.85440  0.00000  Biso   1.000  C
  C803     1.0000 0.70560  0.86860  0.00000  Biso   1.000  C
  H563     1.0000 0.72290  0.85880  0.00000  Biso   1.000  H
  C804     1.0000 0.70460  0.89780  0.00000  Biso   1.000  C
  H564     1.0000 0.72160  0.90810  0.00000  Biso   1.000  H
  O121     1.0000 0.84660  0.54290  0.00000  Biso   1.000  O
  O122     1.0000 0.79800  0.54250  0.00000  Biso   1.000  O
  C805     1.0000 0.82220  0.55390  0.00000  Biso   1.000  C
  C806     1.0000 0.82210  0.58670  0.00000  Biso   1.000  C
  C807     1.0000 0.84720  0.60180  0.00000  Biso   1.000  C
  H565     1.0000 0.86470  0.59220  0.00000  Biso   1.000  H
  C808     1.0000 0.84660  0.63140  0.00000  Biso   1.000  C
  C809     1.0000 0.81980  0.64560  0.00000  Biso   1.000  C
  C810     1.0000 0.79440  0.63140  0.00000  Biso   1.000  C
  H566     1.0000 0.77710  0.64120  0.00000  Biso   1.000  H
  C811     1.0000 0.79540  0.60220  0.00000  Biso   1.000  C
  H567     1.0000 0.77840  0.59190  0.00000  Biso   1.000  H
  O123     1.0000 0.84660  0.04290  0.50000  Biso   1.000  O
  O124     1.0000 0.79800  0.04250  0.50000  Biso   1.000  O
  C812     1.0000 0.82220  0.05390  0.50000  Biso   1.000  C
  C813     1.0000 0.82210  0.08670  0.50000  Biso   1.000  C
  C814     1.0000 0.84720  0.10180  0.50000  Biso   1.000  C
  H568     1.0000 0.86470  0.09220  0.50000  Biso   1.000  H
  C815     1.0000 0.84660  0.13140  0.50000  Biso   1.000  C
  C816     1.0000 0.81980  0.14560  0.50000  Biso   1.000  C
  C817     1.0000 0.79440  0.13140  0.50000  Biso   1.000  C
  H569     1.0000 0.77710  0.14120  0.50000  Biso   1.000  H
  C818     1.0000 0.79540  0.10220  0.50000  Biso   1.000  C
  H570     1.0000 0.77840  0.09190  0.50000  Biso   1.000  H
  O125     1.0000 0.34660  0.54290  0.50000  Biso   1.000  O
  O126     1.0000 0.29800  0.54250  0.50000  Biso   1.000  O
  C819     1.0000 0.32220  0.55390  0.50000  Biso   1.000  C
  C820     1.0000 0.32210  0.58670  0.50000  Biso   1.000  C
  C821     1.0000 0.34720  0.60180  0.50000  Biso   1.000  C
  H571     1.0000 0.36470  0.59220  0.50000  Biso   1.000  H
  C822     1.0000 0.34660  0.63140  0.50000  Biso   1.000  C
  C823     1.0000 0.31980  0.64560  0.50000  Biso   1.000  C
  C824     1.0000 0.29440  0.63140  0.50000  Biso   1.000  C
  H572     1.0000 0.27710  0.64120  0.50000  Biso   1.000  H
  C825     1.0000 0.29540  0.60220  0.50000  Biso   1.000  C
  H573     1.0000 0.27840  0.59190  0.50000  Biso   1.000  H
  O127     1.0000 0.34660  0.04290  0.00000  Biso   1.000  O
  O128     1.0000 0.29800  0.04250  0.00000  Biso   1.000  O
  C826     1.0000 0.32220  0.05390  0.00000  Biso   1.000  C
  C827     1.0000 0.32210  0.08670  0.00000  Biso   1.000  C
  C828     1.0000 0.34720  0.10180  0.00000  Biso   1.000  C
  H574     1.0000 0.36470  0.09220  0.00000  Biso   1.000  H
  C829     1.0000 0.34660  0.13140  0.00000  Biso   1.000  C
  C830     1.0000 0.31980  0.14560  0.00000  Biso   1.000  C
  C831     1.0000 0.29440  0.13140  0.00000  Biso   1.000  C
  H575     1.0000 0.27710  0.14120  0.00000  Biso   1.000  H
  C832     1.0000 0.29540  0.10220  0.00000  Biso   1.000  C
  H576     1.0000 0.27840  0.09190  0.00000  Biso   1.000  H
  O129     1.0000 0.54290  0.00000  0.84660  Biso   1.000  O
  O130     1.0000 0.54250  0.00000  0.79800  Biso   1.000  O
  C833     1.0000 0.55390  0.00000  0.82220  Biso   1.000  C
  C834     1.0000 0.58670  0.00000  0.82210  Biso   1.000  C
  C835     1.0000 0.60180  0.00000  0.84720  Biso   1.000  C
  H577     1.0000 0.59220  0.00000  0.86470  Biso   1.000  H
  C836     1.0000 0.63140  0.00000  0.84660  Biso   1.000  C
  C837     1.0000 0.64560  0.00000  0.81980  Biso   1.000  C
  C838     1.0000 0.63140  0.00000  0.79440  Biso   1.000  C
  H578     1.0000 0.64120  0.00000  0.77710  Biso   1.000  H
  C839     1.0000 0.60220  0.00000  0.79540  Biso   1.000  C
  H579     1.0000 0.59190  0.00000  0.77840  Biso   1.000  H
  O131     1.0000 0.54290  0.50000  0.34660  Biso   1.000  O
  O132     1.0000 0.54250  0.50000  0.29800  Biso   1.000  O
  C840     1.0000 0.55390  0.50000  0.32220  Biso   1.000  C
  C841     1.0000 0.58670  0.50000  0.32210  Biso   1.000  C
  C842     1.0000 0.60180  0.50000  0.34720  Biso   1.000  C
  H580     1.0000 0.59220  0.50000  0.36470  Biso   1.000  H
  C843     1.0000 0.63140  0.50000  0.34660  Biso   1.000  C
  C844     1.0000 0.64560  0.50000  0.31980  Biso   1.000  C
  C845     1.0000 0.63140  0.50000  0.29440  Biso   1.000  C
  H581     1.0000 0.64120  0.50000  0.27710  Biso   1.000  H
  C846     1.0000 0.60220  0.50000  0.29540  Biso   1.000  C
  H582     1.0000 0.59190  0.50000  0.27840  Biso   1.000  H
  O133     1.0000 0.04290  0.00000  0.34660  Biso   1.000  O
  O134     1.0000 0.04250  0.00000  0.29800  Biso   1.000  O
  C847     1.0000 0.05390  0.00000  0.32220  Biso   1.000  C
  C848     1.0000 0.08670  0.00000  0.32210  Biso   1.000  C
  C849     1.0000 0.10180  0.00000  0.34720  Biso   1.000  C
  H583     1.0000 0.09220  0.00000  0.36470  Biso   1.000  H
  C850     1.0000 0.13140  0.00000  0.34660  Biso   1.000  C
  C851     1.0000 0.14560  0.00000  0.31980  Biso   1.000  C
  C852     1.0000 0.13140  0.00000  0.29440  Biso   1.000  C
  H584     1.0000 0.14120  0.00000  0.27710  Biso   1.000  H
  C853     1.0000 0.10220  0.00000  0.29540  Biso   1.000  C
  H585     1.0000 0.09190  0.00000  0.27840  Biso   1.000  H
  O135     1.0000 0.04290  0.50000  0.84660  Biso   1.000  O
  O136     1.0000 0.04250  0.50000  0.79800  Biso   1.000  O
  C854     1.0000 0.05390  0.50000  0.82220  Biso   1.000  C
  C855     1.0000 0.08670  0.50000  0.82210  Biso   1.000  C
  C856     1.0000 0.10180  0.50000  0.84720  Biso   1.000  C
  H586     1.0000 0.09220  0.50000  0.86470  Biso   1.000  H
  C857     1.0000 0.13140  0.50000  0.84660  Biso   1.000  C
  C858     1.0000 0.14560  0.50000  0.81980  Biso   1.000  C
  C859     1.0000 0.13140  0.50000  0.79440  Biso   1.000  C
  H587     1.0000 0.14120  0.50000  0.77710  Biso   1.000  H
  C860     1.0000 0.10220  0.50000  0.79540  Biso   1.000  C
  H588     1.0000 0.09190  0.50000  0.77840  Biso   1.000  H
  O137     1.0000 0.45710  0.00000  0.15340  Biso   1.000  O
  O138     1.0000 0.45750  0.00000  0.20200  Biso   1.000  O
  C861     1.0000 0.44610  0.00000  0.17780  Biso   1.000  C
  C862     1.0000 0.41330  0.00000  0.17790  Biso   1.000  C
  C863     1.0000 0.39820  0.00000  0.15280  Biso   1.000  C
  H589     1.0000 0.40780  0.00000  0.13530  Biso   1.000  H
  C864     1.0000 0.36860  0.00000  0.15340  Biso   1.000  C
  C865     1.0000 0.35440  0.00000  0.18020  Biso   1.000  C
  C866     1.0000 0.36860  0.00000  0.20560  Biso   1.000  C
  H590     1.0000 0.35880  0.00000  0.22290  Biso   1.000  H
  C867     1.0000 0.39780  0.00000  0.20460  Biso   1.000  C
  H591     1.0000 0.40810  0.00000  0.22160  Biso   1.000  H
  O139     1.0000 0.45710  0.50000  0.65340  Biso   1.000  O
  O140     1.0000 0.45750  0.50000  0.70200  Biso   1.000  O
  C868     1.0000 0.44610  0.50000  0.67780  Biso   1.000  C
  C869     1.0000 0.41330  0.50000  0.67790  Biso   1.000  C
  C870     1.0000 0.39820  0.50000  0.65280  Biso   1.000  C
  H592     1.0000 0.40780  0.50000  0.63530  Biso   1.000  H
  C871     1.0000 0.36860  0.50000  0.65340  Biso   1.000  C
  C872     1.0000 0.35440  0.50000  0.68020  Biso   1.000  C
  C873     1.0000 0.36860  0.50000  0.70560  Biso   1.000  C
  H593     1.0000 0.35880  0.50000  0.72290  Biso   1.000  H
  C874     1.0000 0.39780  0.50000  0.70460  Biso   1.000  C
  H594     1.0000 0.40810  0.50000  0.72160  Biso   1.000  H
  O141     1.0000 0.95710  0.00000  0.65340  Biso   1.000  O
  O142     1.0000 0.95750  0.00000  0.70200  Biso   1.000  O
  C875     1.0000 0.94610  0.00000  0.67780  Biso   1.000  C
  C876     1.0000 0.91330  0.00000  0.67790  Biso   1.000  C
  C877     1.0000 0.89820  0.00000  0.65280  Biso   1.000  C
  H595     1.0000 0.90780  0.00000  0.63530  Biso   1.000  H
  C878     1.0000 0.86860  0.00000  0.65340  Biso   1.000  C
  C879     1.0000 0.85440  0.00000  0.68020  Biso   1.000  C
  C880     1.0000 0.86860  0.00000  0.70560  Biso   1.000  C
  H596     1.0000 0.85880  0.00000  0.72290  Biso   1.000  H
  C881     1.0000 0.89780  0.00000  0.70460  Biso   1.000  C
  H597     1.0000 0.90810  0.00000  0.72160  Biso   1.000  H
  O143     1.0000 0.95710  0.50000  0.15340  Biso   1.000  O
  O144     1.0000 0.95750  0.50000  0.20200  Biso   1.000  O
  C882     1.0000 0.94610  0.50000  0.17780  Biso   1.000  C
  C883     1.0000 0.91330  0.50000  0.17790  Biso   1.000  C
  C884     1.0000 0.89820  0.50000  0.15280  Biso   1.000  C
  H598     1.0000 0.90780  0.50000  0.13530  Biso   1.000  H
  C885     1.0000 0.86860  0.50000  0.15340  Biso   1.000  C
  C886     1.0000 0.85440  0.50000  0.18020  Biso   1.000  C
  C887     1.0000 0.86860  0.50000  0.20560  Biso   1.000  C
  H599     1.0000 0.85880  0.50000  0.22290  Biso   1.000  H
  C888     1.0000 0.89780  0.50000  0.20460  Biso   1.000  C
  H600     1.0000 0.90810  0.50000  0.22160  Biso   1.000  H
  O145     1.0000 0.45710  0.00000  0.84660  Biso   1.000  O
  O146     1.0000 0.45750  0.00000  0.79800  Biso   1.000  O
  C889     1.0000 0.44610  0.00000  0.82220  Biso   1.000  C
  C890     1.0000 0.41330  0.00000  0.82210  Biso   1.000  C
  C891     1.0000 0.39820  0.00000  0.84720  Biso   1.000  C
  H601     1.0000 0.40780  0.00000  0.86470  Biso   1.000  H
  C892     1.0000 0.36860  0.00000  0.84660  Biso   1.000  C
  C893     1.0000 0.35440  0.00000  0.81980  Biso   1.000  C
  C894     1.0000 0.36860  0.00000  0.79440  Biso   1.000  C
  H602     1.0000 0.35880  0.00000  0.77710  Biso   1.000  H
  C895     1.0000 0.39780  0.00000  0.79540  Biso   1.000  C
  H603     1.0000 0.40810  0.00000  0.77840  Biso   1.000  H
  O147     1.0000 0.45710  0.50000  0.34660  Biso   1.000  O
  O148     1.0000 0.45750  0.50000  0.29800  Biso   1.000  O
  C896     1.0000 0.44610  0.50000  0.32220  Biso   1.000  C
  C897     1.0000 0.41330  0.50000  0.32210  Biso   1.000  C
  C898     1.0000 0.39820  0.50000  0.34720  Biso   1.000  C
  H604     1.0000 0.40780  0.50000  0.36470  Biso   1.000  H
  C899     1.0000 0.36860  0.50000  0.34660  Biso   1.000  C
  C900     1.0000 0.35440  0.50000  0.31980  Biso   1.000  C
  C901     1.0000 0.36860  0.50000  0.29440  Biso   1.000  C
  H605     1.0000 0.35880  0.50000  0.27710  Biso   1.000  H
  C902     1.0000 0.39780  0.50000  0.29540  Biso   1.000  C
  H606     1.0000 0.40810  0.50000  0.27840  Biso   1.000  H
  O149     1.0000 0.95710  0.00000  0.34660  Biso   1.000  O
  O150     1.0000 0.95750  0.00000  0.29800  Biso   1.000  O
  C903     1.0000 0.94610  0.00000  0.32220  Biso   1.000  C
  C904     1.0000 0.91330  0.00000  0.32210  Biso   1.000  C
  C905     1.0000 0.89820  0.00000  0.34720  Biso   1.000  C
  H607     1.0000 0.90780  0.00000  0.36470  Biso   1.000  H
  C906     1.0000 0.86860  0.00000  0.34660  Biso   1.000  C
  C907     1.0000 0.85440  0.00000  0.31980  Biso   1.000  C
  C908     1.0000 0.86860  0.00000  0.29440  Biso   1.000  C
  H608     1.0000 0.85880  0.00000  0.27710  Biso   1.000  H
  C909     1.0000 0.89780  0.00000  0.29540  Biso   1.000  C
  H609     1.0000 0.90810  0.00000  0.27840  Biso   1.000  H
  O151     1.0000 0.95710  0.50000  0.84660  Biso   1.000  O
  O152     1.0000 0.95750  0.50000  0.79800  Biso   1.000  O
  C910     1.0000 0.94610  0.50000  0.82220  Biso   1.000  C
  C911     1.0000 0.91330  0.50000  0.82210  Biso   1.000  C
  C912     1.0000 0.89820  0.50000  0.84720  Biso   1.000  C
  H610     1.0000 0.90780  0.50000  0.86470  Biso   1.000  H
  C913     1.0000 0.86860  0.50000  0.84660  Biso   1.000  C
  C914     1.0000 0.85440  0.50000  0.81980  Biso   1.000  C
  C915     1.0000 0.86860  0.50000  0.79440  Biso   1.000  C
  H611     1.0000 0.85880  0.50000  0.77710  Biso   1.000  H
  C916     1.0000 0.89780  0.50000  0.79540  Biso   1.000  C
  H612     1.0000 0.90810  0.50000  0.77840  Biso   1.000  H
  O153     1.0000 0.54290  0.00000  0.15340  Biso   1.000  O
  O154     1.0000 0.54250  0.00000  0.20200  Biso   1.000  O
  C917     1.0000 0.55390  0.00000  0.17780  Biso   1.000  C
  C918     1.0000 0.58670  0.00000  0.17790  Biso   1.000  C
  C919     1.0000 0.60180  0.00000  0.15280  Biso   1.000  C
  H613     1.0000 0.59220  0.00000  0.13530  Biso   1.000  H
  C920     1.0000 0.63140  0.00000  0.15340  Biso   1.000  C
  C921     1.0000 0.64560  0.00000  0.18020  Biso   1.000  C
  C922     1.0000 0.63140  0.00000  0.20560  Biso   1.000  C
  H614     1.0000 0.64120  0.00000  0.22290  Biso   1.000  H
  C923     1.0000 0.60220  0.00000  0.20460  Biso   1.000  C
  H615     1.0000 0.59190  0.00000  0.22160  Biso   1.000  H
  O155     1.0000 0.54290  0.50000  0.65340  Biso   1.000  O
  O156     1.0000 0.54250  0.50000  0.70200  Biso   1.000  O
  C924     1.0000 0.55390  0.50000  0.67780  Biso   1.000  C
  C925     1.0000 0.58670  0.50000  0.67790  Biso   1.000  C
  C926     1.0000 0.60180  0.50000  0.65280  Biso   1.000  C
  H616     1.0000 0.59220  0.50000  0.63530  Biso   1.000  H
  C927     1.0000 0.63140  0.50000  0.65340  Biso   1.000  C
  C928     1.0000 0.64560  0.50000  0.68020  Biso   1.000  C
  C929     1.0000 0.63140  0.50000  0.70560  Biso   1.000  C
  H617     1.0000 0.64120  0.50000  0.72290  Biso   1.000  H
  C930     1.0000 0.60220  0.50000  0.70460  Biso   1.000  C
  H618     1.0000 0.59190  0.50000  0.72160  Biso   1.000  H
  O157     1.0000 0.04290  0.00000  0.65340  Biso   1.000  O
  O158     1.0000 0.04250  0.00000  0.70200  Biso   1.000  O
  C931     1.0000 0.05390  0.00000  0.67780  Biso   1.000  C
  C932     1.0000 0.08670  0.00000  0.67790  Biso   1.000  C
  C933     1.0000 0.10180  0.00000  0.65280  Biso   1.000  C
  H619     1.0000 0.09220  0.00000  0.63530  Biso   1.000  H
  C934     1.0000 0.13140  0.00000  0.65340  Biso   1.000  C
  C935     1.0000 0.14560  0.00000  0.68020  Biso   1.000  C
  C936     1.0000 0.13140  0.00000  0.70560  Biso   1.000  C
  H620     1.0000 0.14120  0.00000  0.72290  Biso   1.000  H
  C937     1.0000 0.10220  0.00000  0.70460  Biso   1.000  C
  H621     1.0000 0.09190  0.00000  0.72160  Biso   1.000  H
  O159     1.0000 0.04290  0.50000  0.15340  Biso   1.000  O
  O160     1.0000 0.04250  0.50000  0.20200  Biso   1.000  O
  C938     1.0000 0.05390  0.50000  0.17780  Biso   1.000  C
  C939     1.0000 0.08670  0.50000  0.17790  Biso   1.000  C
  C940     1.0000 0.10180  0.50000  0.15280  Biso   1.000  C
  H622     1.0000 0.09220  0.50000  0.13530  Biso   1.000  H
  C941     1.0000 0.13140  0.50000  0.15340  Biso   1.000  C
  C942     1.0000 0.14560  0.50000  0.18020  Biso   1.000  C
  C943     1.0000 0.13140  0.50000  0.20560  Biso   1.000  C
  H623     1.0000 0.14120  0.50000  0.22290  Biso   1.000  H
  C944     1.0000 0.10220  0.50000  0.20460  Biso   1.000  C
  H624     1.0000 0.09190  0.50000  0.22160  Biso   1.000  H
  O161     1.0000 0.00000  0.15340  0.45710  Biso   1.000  O
  O162     1.0000 0.00000  0.20200  0.45750  Biso   1.000  O
  C945     1.0000 0.00000  0.17780  0.44610  Biso   1.000  C
  C946     1.0000 0.00000  0.17790  0.41330  Biso   1.000  C
  C947     1.0000 0.00000  0.15280  0.39820  Biso   1.000  C
  H625     1.0000 0.00000  0.13530  0.40780  Biso   1.000  H
  C948     1.0000 0.00000  0.15340  0.36860  Biso   1.000  C
  C949     1.0000 0.00000  0.18020  0.35440  Biso   1.000  C
  C950     1.0000 0.00000  0.20560  0.36860  Biso   1.000  C
  H626     1.0000 0.00000  0.22290  0.35880  Biso   1.000  H
  C951     1.0000 0.00000  0.20460  0.39780  Biso   1.000  C
  H627     1.0000 0.00000  0.22160  0.40810  Biso   1.000  H
  O163     1.0000 0.00000  0.65340  0.95710  Biso   1.000  O
  O164     1.0000 0.00000  0.70200  0.95750  Biso   1.000  O
  C952     1.0000 0.00000  0.67780  0.94610  Biso   1.000  C
  C953     1.0000 0.00000  0.67790  0.91330  Biso   1.000  C
  C954     1.0000 0.00000  0.65280  0.89820  Biso   1.000  C
  H628     1.0000 0.00000  0.63530  0.90780  Biso   1.000  H
  C955     1.0000 0.00000  0.65340  0.86860  Biso   1.000  C
  C956     1.0000 0.00000  0.68020  0.85440  Biso   1.000  C
  C957     1.0000 0.00000  0.70560  0.86860  Biso   1.000  C
  H629     1.0000 0.00000  0.72290  0.85880  Biso   1.000  H
  C958     1.0000 0.00000  0.70460  0.89780  Biso   1.000  C
  H630     1.0000 0.00000  0.72160  0.90810  Biso   1.000  H
  O165     1.0000 0.50000  0.15340  0.95710  Biso   1.000  O
  O166     1.0000 0.50000  0.20200  0.95750  Biso   1.000  O
  C959     1.0000 0.50000  0.17780  0.94610  Biso   1.000  C
  C960     1.0000 0.50000  0.17790  0.91330  Biso   1.000  C
  C961     1.0000 0.50000  0.15280  0.89820  Biso   1.000  C
  H631     1.0000 0.50000  0.13530  0.90780  Biso   1.000  H
  C962     1.0000 0.50000  0.15340  0.86860  Biso   1.000  C
  C963     1.0000 0.50000  0.18020  0.85440  Biso   1.000  C
  C964     1.0000 0.50000  0.20560  0.86860  Biso   1.000  C
  H632     1.0000 0.50000  0.22290  0.85880  Biso   1.000  H
  C965     1.0000 0.50000  0.20460  0.89780  Biso   1.000  C
  H633     1.0000 0.50000  0.22160  0.90810  Biso   1.000  H
  O167     1.0000 0.50000  0.65340  0.45710  Biso   1.000  O
  O168     1.0000 0.50000  0.70200  0.45750  Biso   1.000  O
  C966     1.0000 0.50000  0.67780  0.44610  Biso   1.000  C
  C967     1.0000 0.50000  0.67790  0.41330  Biso   1.000  C
  C968     1.0000 0.50000  0.65280  0.39820  Biso   1.000  C
  H634     1.0000 0.50000  0.63530  0.40780  Biso   1.000  H
  C969     1.0000 0.50000  0.65340  0.36860  Biso   1.000  C
  C970     1.0000 0.50000  0.68020  0.35440  Biso   1.000  C
  C971     1.0000 0.50000  0.70560  0.36860  Biso   1.000  C
  H635     1.0000 0.50000  0.72290  0.35880  Biso   1.000  H
  C972     1.0000 0.50000  0.70460  0.39780  Biso   1.000  C
  H636     1.0000 0.50000  0.72160  0.40810  Biso   1.000  H
  O169     1.0000 0.00000  0.84660  0.54290  Biso   1.000  O
  O170     1.0000 0.00000  0.79800  0.54250  Biso   1.000  O
  C973     1.0000 0.00000  0.82220  0.55390  Biso   1.000  C
  C974     1.0000 0.00000  0.82210  0.58670  Biso   1.000  C
  C975     1.0000 0.00000  0.84720  0.60180  Biso   1.000  C
  H637     1.0000 0.00000  0.86470  0.59220  Biso   1.000  H
  C976     1.0000 0.00000  0.84660  0.63140  Biso   1.000  C
  C977     1.0000 0.00000  0.81980  0.64560  Biso   1.000  C
  C978     1.0000 0.00000  0.79440  0.63140  Biso   1.000  C
  H638     1.0000 0.00000  0.77710  0.64120  Biso   1.000  H
  C979     1.0000 0.00000  0.79540  0.60220  Biso   1.000  C
  H639     1.0000 0.00000  0.77840  0.59190  Biso   1.000  H
  O171     1.0000 0.00000  0.34660  0.04290  Biso   1.000  O
  O172     1.0000 0.00000  0.29800  0.04250  Biso   1.000  O
  C980     1.0000 0.00000  0.32220  0.05390  Biso   1.000  C
  C981     1.0000 0.00000  0.32210  0.08670  Biso   1.000  C
  C982     1.0000 0.00000  0.34720  0.10180  Biso   1.000  C
  H640     1.0000 0.00000  0.36470  0.09220  Biso   1.000  H
  C983     1.0000 0.00000  0.34660  0.13140  Biso   1.000  C
  C984     1.0000 0.00000  0.31980  0.14560  Biso   1.000  C
  C985     1.0000 0.00000  0.29440  0.13140  Biso   1.000  C
  H641     1.0000 0.00000  0.27710  0.14120  Biso   1.000  H
  C986     1.0000 0.00000  0.29540  0.10220  Biso   1.000  C
  H642     1.0000 0.00000  0.27840  0.09190  Biso   1.000  H
  O173     1.0000 0.50000  0.84660  0.04290  Biso   1.000  O
  O174     1.0000 0.50000  0.79800  0.04250  Biso   1.000  O
  C987     1.0000 0.50000  0.82220  0.05390  Biso   1.000  C
  C988     1.0000 0.50000  0.82210  0.08670  Biso   1.000  C
  C989     1.0000 0.50000  0.84720  0.10180  Biso   1.000  C
  H643     1.0000 0.50000  0.86470  0.09220  Biso   1.000  H
  C990     1.0000 0.50000  0.84660  0.13140  Biso   1.000  C
  C991     1.0000 0.50000  0.81980  0.14560  Biso   1.000  C
  C992     1.0000 0.50000  0.79440  0.13140  Biso   1.000  C
  H644     1.0000 0.50000  0.77710  0.14120  Biso   1.000  H
  C993     1.0000 0.50000  0.79540  0.10220  Biso   1.000  C
  H645     1.0000 0.50000  0.77840  0.09190  Biso   1.000  H
  O175     1.0000 0.50000  0.34660  0.54290  Biso   1.000  O
  O176     1.0000 0.50000  0.29800  0.54250  Biso   1.000  O
  C994     1.0000 0.50000  0.32220  0.55390  Biso   1.000  C
  C995     1.0000 0.50000  0.32210  0.58670  Biso   1.000  C
  C996     1.0000 0.50000  0.34720  0.60180  Biso   1.000  C
  H646     1.0000 0.50000  0.36470  0.59220  Biso   1.000  H
  C997     1.0000 0.50000  0.34660  0.63140  Biso   1.000  C
  C998     1.0000 0.50000  0.31980  0.64560  Biso   1.000  C
  C999     1.0000 0.50000  0.29440  0.63140  Biso   1.000  C
  H647     1.0000 0.50000  0.27710  0.64120  Biso   1.000  H
  C1000    1.0000 0.50000  0.29540  0.60220  Biso   1.000  C
  H648     1.0000 0.50000  0.27840  0.59190  Biso   1.000  H
  O177     1.0000 0.00000  0.15340  0.54290  Biso   1.000  O
  O178     1.0000 0.00000  0.20200  0.54250  Biso   1.000  O
  C1001    1.0000 0.00000  0.17780  0.55390  Biso   1.000  C
  C1002    1.0000 0.00000  0.17790  0.58670  Biso   1.000  C
  C1003    1.0000 0.00000  0.15280  0.60180  Biso   1.000  C
  H649     1.0000 0.00000  0.13530  0.59220  Biso   1.000  H
  C1004    1.0000 0.00000  0.15340  0.63140  Biso   1.000  C
  C1005    1.0000 0.00000  0.18020  0.64560  Biso   1.000  C
  C1006    1.0000 0.00000  0.20560  0.63140  Biso   1.000  C
  H650     1.0000 0.00000  0.22290  0.64120  Biso   1.000  H
  C1007    1.0000 0.00000  0.20460  0.60220  Biso   1.000  C
  H651     1.0000 0.00000  0.22160  0.59190  Biso   1.000  H
  O179     1.0000 0.00000  0.65340  0.04290  Biso   1.000  O
  O180     1.0000 0.00000  0.70200  0.04250  Biso   1.000  O
  C1008    1.0000 0.00000  0.67780  0.05390  Biso   1.000  C
  C1009    1.0000 0.00000  0.67790  0.08670  Biso   1.000  C
  C1010    1.0000 0.00000  0.65280  0.10180  Biso   1.000  C
  H652     1.0000 0.00000  0.63530  0.09220  Biso   1.000  H
  C1011    1.0000 0.00000  0.65340  0.13140  Biso   1.000  C
  C1012    1.0000 0.00000  0.68020  0.14560  Biso   1.000  C
  C1013    1.0000 0.00000  0.70560  0.13140  Biso   1.000  C
  H653     1.0000 0.00000  0.72290  0.14120  Biso   1.000  H
  C1014    1.0000 0.00000  0.70460  0.10220  Biso   1.000  C
  H654     1.0000 0.00000  0.72160  0.09190  Biso   1.000  H
  O181     1.0000 0.50000  0.15340  0.04290  Biso   1.000  O
  O182     1.0000 0.50000  0.20200  0.04250  Biso   1.000  O
  C1015    1.0000 0.50000  0.17780  0.05390  Biso   1.000  C
  C1016    1.0000 0.50000  0.17790  0.08670  Biso   1.000  C
  C1017    1.0000 0.50000  0.15280  0.10180  Biso   1.000  C
  H655     1.0000 0.50000  0.13530  0.09220  Biso   1.000  H
  C1018    1.0000 0.50000  0.15340  0.13140  Biso   1.000  C
  C1019    1.0000 0.50000  0.18020  0.14560  Biso   1.000  C
  C1020    1.0000 0.50000  0.20560  0.13140  Biso   1.000  C
  H656     1.0000 0.50000  0.22290  0.14120  Biso   1.000  H
  C1021    1.0000 0.50000  0.20460  0.10220  Biso   1.000  C
  H657     1.0000 0.50000  0.22160  0.09190  Biso   1.000  H
  O183     1.0000 0.50000  0.65340  0.54290  Biso   1.000  O
  O184     1.0000 0.50000  0.70200  0.54250  Biso   1.000  O
  C1022    1.0000 0.50000  0.67780  0.55390  Biso   1.000  C
  C1023    1.0000 0.50000  0.67790  0.58670  Biso   1.000  C
  C1024    1.0000 0.50000  0.65280  0.60180  Biso   1.000  C
  H658     1.0000 0.50000  0.63530  0.59220  Biso   1.000  H
  C1025    1.0000 0.50000  0.65340  0.63140  Biso   1.000  C
  C1026    1.0000 0.50000  0.68020  0.64560  Biso   1.000  C
  C1027    1.0000 0.50000  0.70560  0.63140  Biso   1.000  C
  H659     1.0000 0.50000  0.72290  0.64120  Biso   1.000  H
  C1028    1.0000 0.50000  0.70460  0.60220  Biso   1.000  C
  H660     1.0000 0.50000  0.72160  0.59190  Biso   1.000  H
  O185     1.0000 0.00000  0.84660  0.45710  Biso   1.000  O
  O186     1.0000 0.00000  0.79800  0.45750  Biso   1.000  O
  C1029    1.0000 0.00000  0.82220  0.44610  Biso   1.000  C
  C1030    1.0000 0.00000  0.82210  0.41330  Biso   1.000  C
  C1031    1.0000 0.00000  0.84720  0.39820  Biso   1.000  C
  H661     1.0000 0.00000  0.86470  0.40780  Biso   1.000  H
  C1032    1.0000 0.00000  0.84660  0.36860  Biso   1.000  C
  C1033    1.0000 0.00000  0.81980  0.35440  Biso   1.000  C
  C1034    1.0000 0.00000  0.79440  0.36860  Biso   1.000  C
  H662     1.0000 0.00000  0.77710  0.35880  Biso   1.000  H
  C1035    1.0000 0.00000  0.79540  0.39780  Biso   1.000  C
  H663     1.0000 0.00000  0.77840  0.40810  Biso   1.000  H
  O187     1.0000 0.00000  0.34660  0.95710  Biso   1.000  O
  O188     1.0000 0.00000  0.29800  0.95750  Biso   1.000  O
  C1036    1.0000 0.00000  0.32220  0.94610  Biso   1.000  C
  C1037    1.0000 0.00000  0.32210  0.91330  Biso   1.000  C
  C1038    1.0000 0.00000  0.34720  0.89820  Biso   1.000  C
  H664     1.0000 0.00000  0.36470  0.90780  Biso   1.000  H
  C1039    1.0000 0.00000  0.34660  0.86860  Biso   1.000  C
  C1040    1.0000 0.00000  0.31980  0.85440  Biso   1.000  C
  C1041    1.0000 0.00000  0.29440  0.86860  Biso   1.000  C
  H665     1.0000 0.00000  0.27710  0.85880  Biso   1.000  H
  C1042    1.0000 0.00000  0.29540  0.89780  Biso   1.000  C
  H666     1.0000 0.00000  0.27840  0.90810  Biso   1.000  H
  O189     1.0000 0.50000  0.84660  0.95710  Biso   1.000  O
  O190     1.0000 0.50000  0.79800  0.95750  Biso   1.000  O
  C1043    1.0000 0.50000  0.82220  0.94610  Biso   1.000  C
  C1044    1.0000 0.50000  0.82210  0.91330  Biso   1.000  C
  C1045    1.0000 0.50000  0.84720  0.89820  Biso   1.000  C
  H667     1.0000 0.50000  0.86470  0.90780  Biso   1.000  H
  C1046    1.0000 0.50000  0.84660  0.86860  Biso   1.000  C
  C1047    1.0000 0.50000  0.81980  0.85440  Biso   1.000  C
  C1048    1.0000 0.50000  0.79440  0.86860  Biso   1.000  C
  H668     1.0000 0.50000  0.77710  0.85880  Biso   1.000  H
  C1049    1.0000 0.50000  0.79540  0.89780  Biso   1.000  C
  H669     1.0000 0.50000  0.77840  0.90810  Biso   1.000  H
  O191     1.0000 0.50000  0.34660  0.45710  Biso   1.000  O
  O192     1.0000 0.50000  0.29800  0.45750  Biso   1.000  O
  C1050    1.0000 0.50000  0.32220  0.44610  Biso   1.000  C
  C1051    1.0000 0.50000  0.32210  0.41330  Biso   1.000  C
  C1052    1.0000 0.50000  0.34720  0.39820  Biso   1.000  C
  H670     1.0000 0.50000  0.36470  0.40780  Biso   1.000  H
  C1053    1.0000 0.50000  0.34660  0.36860  Biso   1.000  C
  C1054    1.0000 0.50000  0.31980  0.35440  Biso   1.000  C
  C1055    1.0000 0.50000  0.29440  0.36860  Biso   1.000  C
  H671     1.0000 0.50000  0.27710  0.35880  Biso   1.000  H
  C1056    1.0000 0.50000  0.29540  0.39780  Biso   1.000  C
  H672     1.0000 0.50000  0.27840  0.40810  Biso   1.000  H
  N1       1.0000 0.67490  0.17490  0.00000  Biso   1.000  N
  C1057    1.0000 0.69690  0.19690  0.00000  Biso   1.000  C
  C1058    1.0000 0.73890  0.23890  0.00000  Biso   1.000  C
  N2       1.0000 0.67490  0.67490  0.50000  Biso   1.000  N
  C1059    1.0000 0.69690  0.69690  0.50000  Biso   1.000  C
  C1060    1.0000 0.73890  0.73890  0.50000  Biso   1.000  C
  N3       1.0000 0.32510  0.82510  0.00000  Biso   1.000  N
  C1061    1.0000 0.30310  0.80310  0.00000  Biso   1.000  C
  C1062    1.0000 0.26110  0.76110  0.00000  Biso   1.000  C
  N4       1.0000 0.32510  0.32510  0.50000  Biso   1.000  N
  C1063    1.0000 0.30310  0.30310  0.50000  Biso   1.000  C
  C1064    1.0000 0.26110  0.26110  0.50000  Biso   1.000  C
  N5       1.0000 0.82510  0.82510  0.50000  Biso   1.000  N
  C1065    1.0000 0.80310  0.80310  0.50000  Biso   1.000  C
  C1066    1.0000 0.76110  0.76110  0.50000  Biso   1.000  C
  N6       1.0000 0.32510  0.17490  0.00000  Biso   1.000  N
  C1067    1.0000 0.30310  0.19690  0.00000  Biso   1.000  C
  C1068    1.0000 0.26110  0.23890  0.00000  Biso   1.000  C
  N7       1.0000 0.32510  0.67490  0.50000  Biso   1.000  N
  C1069    1.0000 0.30310  0.69690  0.50000  Biso   1.000  C
  C1070    1.0000 0.26110  0.73890  0.50000  Biso   1.000  C
  N8       1.0000 0.82510  0.67490  0.00000  Biso   1.000  N
  C1071    1.0000 0.80310  0.69690  0.00000  Biso   1.000  C
  C1072    1.0000 0.76110  0.73890  0.00000  Biso   1.000  C
  N9       1.0000 0.67490  0.82510  0.00000  Biso   1.000  N
  C1073    1.0000 0.69690  0.80310  0.00000  Biso   1.000  C
  C1074    1.0000 0.73890  0.76110  0.00000  Biso   1.000  C
  N10      1.0000 0.67490  0.32510  0.50000  Biso   1.000  N
  C1075    1.0000 0.69690  0.30310  0.50000  Biso   1.000  C
  C1076    1.0000 0.73890  0.26110  0.50000  Biso   1.000  C
  N11      1.0000 0.00000  0.67490  0.17490  Biso   1.000  N
  C1077    1.0000 0.00000  0.69690  0.19690  Biso   1.000  C
  C1078    1.0000 0.00000  0.73890  0.23890  Biso   1.000  C
  N12      1.0000 0.50000  0.67490  0.67490  Biso   1.000  N
  C1079    1.0000 0.50000  0.69690  0.69690  Biso   1.000  C
  C1080    1.0000 0.50000  0.73890  0.73890  Biso   1.000  C
  N13      1.0000 0.00000  0.32510  0.82510  Biso   1.000  N
  C1081    1.0000 0.00000  0.30310  0.80310  Biso   1.000  C
  C1082    1.0000 0.00000  0.26110  0.76110  Biso   1.000  C
  N14      1.0000 0.50000  0.32510  0.32510  Biso   1.000  N
  C1083    1.0000 0.50000  0.30310  0.30310  Biso   1.000  C
  C1084    1.0000 0.50000  0.26110  0.26110  Biso   1.000  C
  N15      1.0000 0.50000  0.82510  0.82510  Biso   1.000  N
  C1085    1.0000 0.50000  0.80310  0.80310  Biso   1.000  C
  C1086    1.0000 0.50000  0.76110  0.76110  Biso   1.000  C
  N16      1.0000 0.00000  0.32510  0.17490  Biso   1.000  N
  C1087    1.0000 0.00000  0.30310  0.19690  Biso   1.000  C
  C1088    1.0000 0.00000  0.26110  0.23890  Biso   1.000  C
  N17      1.0000 0.00000  0.82510  0.67490  Biso   1.000  N
  C1089    1.0000 0.00000  0.80310  0.69690  Biso   1.000  C
  C1090    1.0000 0.00000  0.76110  0.73890  Biso   1.000  C
  N18      1.0000 0.50000  0.32510  0.67490  Biso   1.000  N
  C1091    1.0000 0.50000  0.30310  0.69690  Biso   1.000  C
  C1092    1.0000 0.50000  0.26110  0.73890  Biso   1.000  C
  N19      1.0000 0.00000  0.67490  0.82510  Biso   1.000  N
  C1093    1.0000 0.00000  0.69690  0.80310  Biso   1.000  C
  C1094    1.0000 0.00000  0.73890  0.76110  Biso   1.000  C
  N20      1.0000 0.50000  0.67490  0.32510  Biso   1.000  N
  C1095    1.0000 0.50000  0.69690  0.30310  Biso   1.000  C
  C1096    1.0000 0.50000  0.73890  0.26110  Biso   1.000  C
  N21      1.0000 0.17490  0.00000  0.67490  Biso   1.000  N
  C1097    1.0000 0.19690  0.00000  0.69690  Biso   1.000  C
  C1098    1.0000 0.23890  0.00000  0.73890  Biso   1.000  C
  N22      1.0000 0.17490  0.50000  0.17490  Biso   1.000  N
  C1099    1.0000 0.19690  0.50000  0.19690  Biso   1.000  C
  C1100    1.0000 0.23890  0.50000  0.23890  Biso   1.000  C
  N23      1.0000 0.67490  0.50000  0.67490  Biso   1.000  N
  C1101    1.0000 0.69690  0.50000  0.69690  Biso   1.000  C
  C1102    1.0000 0.73890  0.50000  0.73890  Biso   1.000  C
  N24      1.0000 0.82510  0.00000  0.32510  Biso   1.000  N
  C1103    1.0000 0.80310  0.00000  0.30310  Biso   1.000  C
  C1104    1.0000 0.76110  0.00000  0.26110  Biso   1.000  C
  N25      1.0000 0.82510  0.50000  0.82510  Biso   1.000  N
  C1105    1.0000 0.80310  0.50000  0.80310  Biso   1.000  C
  C1106    1.0000 0.76110  0.50000  0.76110  Biso   1.000  C
  N26      1.0000 0.17490  0.00000  0.32510  Biso   1.000  N
  C1107    1.0000 0.19690  0.00000  0.30310  Biso   1.000  C
  C1108    1.0000 0.23890  0.00000  0.26110  Biso   1.000  C
  N27      1.0000 0.17490  0.50000  0.82510  Biso   1.000  N
  C1109    1.0000 0.19690  0.50000  0.80310  Biso   1.000  C
  C1110    1.0000 0.23890  0.50000  0.76110  Biso   1.000  C
  N28      1.0000 0.67490  0.00000  0.82510  Biso   1.000  N
  C1111    1.0000 0.69690  0.00000  0.80310  Biso   1.000  C
  C1112    1.0000 0.73890  0.00000  0.76110  Biso   1.000  C
  N29      1.0000 0.82510  0.00000  0.67490  Biso   1.000  N
  C1113    1.0000 0.80310  0.00000  0.69690  Biso   1.000  C
  C1114    1.0000 0.76110  0.00000  0.73890  Biso   1.000  C
  N30      1.0000 0.82510  0.50000  0.17490  Biso   1.000  N
  C1115    1.0000 0.80310  0.50000  0.19690  Biso   1.000  C
  C1116    1.0000 0.76110  0.50000  0.23890  Biso   1.000  C
  N31      1.0000 0.17490  0.67490  0.00000  Biso   1.000  N
  C1117    1.0000 0.19690  0.69690  0.00000  Biso   1.000  C
  C1118    1.0000 0.23890  0.73890  0.00000  Biso   1.000  C
  N32      1.0000 0.17490  0.17490  0.50000  Biso   1.000  N
  C1119    1.0000 0.19690  0.19690  0.50000  Biso   1.000  C
  C1120    1.0000 0.23890  0.23890  0.50000  Biso   1.000  C
  N33      1.0000 0.82510  0.32510  0.00000  Biso   1.000  N
  C1121    1.0000 0.80310  0.30310  0.00000  Biso   1.000  C
  C1122    1.0000 0.76110  0.26110  0.00000  Biso   1.000  C
  N34      1.0000 0.17490  0.32510  0.00000  Biso   1.000  N
  C1123    1.0000 0.19690  0.30310  0.00000  Biso   1.000  C
  C1124    1.0000 0.23890  0.26110  0.00000  Biso   1.000  C
  N35      1.0000 0.17490  0.82510  0.50000  Biso   1.000  N
  C1125    1.0000 0.19690  0.80310  0.50000  Biso   1.000  C
  C1126    1.0000 0.23890  0.76110  0.50000  Biso   1.000  C
  N36      1.0000 0.82510  0.17490  0.50000  Biso   1.000  N
  C1127    1.0000 0.80310  0.19690  0.50000  Biso   1.000  C
  C1128    1.0000 0.76110  0.23890  0.50000  Biso   1.000  C
  N37      1.0000 0.67490  0.50000  0.32510  Biso   1.000  N
  C1129    1.0000 0.69690  0.50000  0.30310  Biso   1.000  C
  C1130    1.0000 0.73890  0.50000  0.26110  Biso   1.000  C
  N38      1.0000 0.32510  0.00000  0.17490  Biso   1.000  N
  C1131    1.0000 0.30310  0.00000  0.19690  Biso   1.000  C
  C1132    1.0000 0.26110  0.00000  0.23890  Biso   1.000  C
  N39      1.0000 0.32510  0.50000  0.67490  Biso   1.000  N
  C1133    1.0000 0.30310  0.50000  0.69690  Biso   1.000  C
  C1134    1.0000 0.26110  0.50000  0.73890  Biso   1.000  C
  N40      1.0000 0.32510  0.00000  0.82510  Biso   1.000  N
  C1135    1.0000 0.30310  0.00000  0.80310  Biso   1.000  C
  C1136    1.0000 0.26110  0.00000  0.76110  Biso   1.000  C
  N41      1.0000 0.32510  0.50000  0.32510  Biso   1.000  N
  C1137    1.0000 0.30310  0.50000  0.30310  Biso   1.000  C
  C1138    1.0000 0.26110  0.50000  0.26110  Biso   1.000  C
  N42      1.0000 0.67490  0.00000  0.17490  Biso   1.000  N
  C1139    1.0000 0.69690  0.00000  0.19690  Biso   1.000  C
  C1140    1.0000 0.73890  0.00000  0.23890  Biso   1.000  C
  N43      1.0000 0.00000  0.17490  0.32510  Biso   1.000  N
  C1141    1.0000 0.00000  0.19690  0.30310  Biso   1.000  C
  C1142    1.0000 0.00000  0.23890  0.26110  Biso   1.000  C
  N44      1.0000 0.50000  0.17490  0.82510  Biso   1.000  N
  C1143    1.0000 0.50000  0.19690  0.80310  Biso   1.000  C
  C1144    1.0000 0.50000  0.23890  0.76110  Biso   1.000  C
  N45      1.0000 0.50000  0.82510  0.17490  Biso   1.000  N
  C1145    1.0000 0.50000  0.80310  0.19690  Biso   1.000  C
  C1146    1.0000 0.50000  0.76110  0.23890  Biso   1.000  C
  N46      1.0000 0.00000  0.17490  0.67490  Biso   1.000  N
  C1147    1.0000 0.00000  0.19690  0.69690  Biso   1.000  C
  C1148    1.0000 0.00000  0.23890  0.73890  Biso   1.000  C
  N47      1.0000 0.50000  0.17490  0.17490  Biso   1.000  N
  C1149    1.0000 0.50000  0.19690  0.19690  Biso   1.000  C
  C1150    1.0000 0.50000  0.23890  0.23890  Biso   1.000  C
  N48      1.0000 0.00000  0.82510  0.32510  Biso   1.000  N
  C1151    1.0000 0.00000  0.80310  0.30310  Biso   1.000  C
  C1152    1.0000 0.00000  0.76110  0.26110  Biso   1.000  C
