data_image0
_cell_length_a       28.9416
_cell_length_b       28.9416
_cell_length_c       28.9416
_cell_angle_alpha    90
_cell_angle_beta     90
_cell_angle_gamma    90

_symmetry_space_group_name_H-M    "P 1"
_symmetry_int_tables_number       1

loop_
  _symmetry_equiv_pos_as_xyz
  'x, y, z'

loop_
  _atom_site_label
  _atom_site_occupancy
  _atom_site_fract_x
  _atom_site_fract_y
  _atom_site_fract_z
  _atom_site_thermal_displace_type
  _atom_site_B_iso_or_equiv
  _atom_site_type_symbol
  O1       1.0000 0.26850  0.33370  0.45270  Biso   1.000  O
  O2       1.0000 0.21220  0.27850  0.45250  Biso   1.000  O
  O3       1.0000 0.26560  0.45240  0.33430  Biso   1.000  O
  O4       1.0000 0.21150  0.45210  0.27800  Biso   1.000  O
  C1       1.0000 0.23230  0.31400  0.43770  Biso   1.000  C
  C2       1.0000 0.23330  0.43420  0.31120  Biso   1.000  C
  C3       1.0000 0.20870  0.33530  0.39490  Biso   1.000  C
  C4       1.0000 0.17130  0.31400  0.37370  Biso   1.000  C
  H1       1.0000 0.15880  0.28630  0.38620  Biso   1.000  H
  C5       1.0000 0.15200  0.33310  0.33410  Biso   1.000  C
  C6       1.0000 0.17020  0.37360  0.31570  Biso   1.000  C
  H2       1.0000 0.15700  0.38670  0.28860  Biso   1.000  H
  C7       1.0000 0.20760  0.39490  0.33690  Biso   1.000  C
  C8       1.0000 0.22690  0.37580  0.37650  Biso   1.000  C
  H3       1.0000 0.25250  0.39040  0.39100  Biso   1.000  H
  C9       1.0000 0.04170  0.26320  0.26170  Biso   1.000  C
  C10      1.0000 0.07040  0.23880  0.29150  Biso   1.000  C
  H4       1.0000 0.06570  0.20660  0.29610  Biso   1.000  H
  C11      1.0000 0.10590  0.26140  0.31460  Biso   1.000  C
  H5       1.0000 0.12550  0.24470  0.33490  Biso   1.000  H
  C12      1.0000 0.11280  0.30850  0.30780  Biso   1.000  C
  C13      1.0000 0.08410  0.33290  0.27810  Biso   1.000  C
  H6       1.0000 0.08870  0.36510  0.27350  Biso   1.000  H
  C14      1.0000 0.04850  0.31030  0.25500  Biso   1.000  C
  H7       1.0000 0.02890  0.32700  0.23470  Biso   1.000  H
  O5       1.0000 0.00070  0.19260  0.25070  Biso   1.000  O
  H8       1.0000 0.00070  0.18810  0.27840  Biso   1.000  H
  C15      1.0000 0.99800  0.24740  0.18910  Biso   1.000  C
  H9       1.0000 0.02910  0.24040  0.17570  Biso   1.000  H
  C16      1.0000 0.98500  0.29750  0.17760  Biso   1.000  C
  H10      1.0000 0.96070  0.29780  0.15400  Biso   1.000  H
  H11      1.0000 0.01220  0.31390  0.16590  Biso   1.000  H
  H12      1.0000 0.97370  0.31300  0.20550  Biso   1.000  H
  N1       1.0000 0.96380  0.21480  0.16970  Biso   1.000  N
  H13      1.0000 0.96030  0.18600  0.17880  Biso   1.000  H
  C17      1.0000 0.93730  0.23600  0.13440  Biso   1.000  C
  O6       1.0000 0.91300  0.27100  0.14400  Biso   1.000  O
  O7       1.0000 0.94900  0.22800  0.08780  Biso   1.000  O
  C18      1.0000 0.96550  0.17900  0.08380  Biso   1.000  C
  C19      1.0000 0.94820  0.15830  0.03760  Biso   1.000  C
  H14      1.0000 0.96020  0.17670  0.01180  Biso   1.000  H
  H15      1.0000 0.91440  0.15880  0.03700  Biso   1.000  H
  H16      1.0000 0.95910  0.12640  0.03470  Biso   1.000  H
  C20      1.0000 0.94460  0.15060  0.12410  Biso   1.000  C
  H17      1.0000 0.92290  0.17000  0.14140  Biso   1.000  H
  H18      1.0000 0.96950  0.14040  0.14470  Biso   1.000  H
  H19      1.0000 0.92840  0.12360  0.11170  Biso   1.000  H
  C21      1.0000 0.01880  0.17480  0.08560  Biso   1.000  C
  H20      1.0000 0.03240  0.19360  0.06090  Biso   1.000  H
  H21      1.0000 0.02770  0.14240  0.08140  Biso   1.000  H
  H22      1.0000 0.02990  0.18580  0.11560  Biso   1.000  H
  O8       1.0000 0.73150  0.66630  0.45270  Biso   1.000  O
  O9       1.0000 0.78780  0.72150  0.45250  Biso   1.000  O
  O10      1.0000 0.73440  0.54760  0.33430  Biso   1.000  O
  O11      1.0000 0.78850  0.54790  0.27800  Biso   1.000  O
  C22      1.0000 0.76770  0.68600  0.43770  Biso   1.000  C
  C23      1.0000 0.76670  0.56580  0.31120  Biso   1.000  C
  C24      1.0000 0.79130  0.66470  0.39490  Biso   1.000  C
  C25      1.0000 0.82870  0.68600  0.37370  Biso   1.000  C
  H23      1.0000 0.84120  0.71370  0.38620  Biso   1.000  H
  C26      1.0000 0.84800  0.66690  0.33410  Biso   1.000  C
  C27      1.0000 0.82980  0.62640  0.31570  Biso   1.000  C
  H24      1.0000 0.84300  0.61330  0.28860  Biso   1.000  H
  C28      1.0000 0.79240  0.60510  0.33690  Biso   1.000  C
  C29      1.0000 0.77310  0.62420  0.37650  Biso   1.000  C
  H25      1.0000 0.74750  0.60960  0.39100  Biso   1.000  H
  C30      1.0000 0.95830  0.73680  0.26170  Biso   1.000  C
  C31      1.0000 0.92960  0.76120  0.29150  Biso   1.000  C
  H26      1.0000 0.93430  0.79340  0.29610  Biso   1.000  H
  C32      1.0000 0.89410  0.73860  0.31460  Biso   1.000  C
  H27      1.0000 0.87450  0.75530  0.33490  Biso   1.000  H
  C33      1.0000 0.88720  0.69150  0.30780  Biso   1.000  C
  C34      1.0000 0.91590  0.66710  0.27810  Biso   1.000  C
  H28      1.0000 0.91130  0.63490  0.27350  Biso   1.000  H
  C35      1.0000 0.95150  0.68970  0.25500  Biso   1.000  C
  H29      1.0000 0.97110  0.67300  0.23470  Biso   1.000  H
  O12      1.0000 0.99930  0.80740  0.25070  Biso   1.000  O
  H30      1.0000 0.99930  0.81190  0.27840  Biso   1.000  H
  C36      1.0000 0.00200  0.75260  0.18910  Biso   1.000  C
  H31      1.0000 0.97090  0.75960  0.17570  Biso   1.000  H
  C37      1.0000 0.01500  0.70250  0.17760  Biso   1.000  C
  H32      1.0000 0.03930  0.70220  0.15400  Biso   1.000  H
  H33      1.0000 0.98780  0.68610  0.16590  Biso   1.000  H
  H34      1.0000 0.02630  0.68700  0.20550  Biso   1.000  H
  N2       1.0000 0.03620  0.78520  0.16970  Biso   1.000  N
  H35      1.0000 0.03970  0.81400  0.17880  Biso   1.000  H
  C38      1.0000 0.06270  0.76400  0.13440  Biso   1.000  C
  O13      1.0000 0.08700  0.72900  0.14400  Biso   1.000  O
  O14      1.0000 0.05100  0.77200  0.08780  Biso   1.000  O
  C39      1.0000 0.03450  0.82100  0.08380  Biso   1.000  C
  C40      1.0000 0.05180  0.84170  0.03760  Biso   1.000  C
  H36      1.0000 0.03980  0.82330  0.01180  Biso   1.000  H
  H37      1.0000 0.08560  0.84120  0.03700  Biso   1.000  H
  H38      1.0000 0.04090  0.87360  0.03470  Biso   1.000  H
  C41      1.0000 0.05540  0.84940  0.12410  Biso   1.000  C
  H39      1.0000 0.07710  0.83000  0.14140  Biso   1.000  H
  H40      1.0000 0.03050  0.85960  0.14470  Biso   1.000  H
  H41      1.0000 0.07160  0.87640  0.11170  Biso   1.000  H
  C42      1.0000 0.98120  0.82520  0.08560  Biso   1.000  C
  H42      1.0000 0.96760  0.80640  0.06090  Biso   1.000  H
  H43      1.0000 0.97230  0.85760  0.08140  Biso   1.000  H
  H44      1.0000 0.97010  0.81420  0.11560  Biso   1.000  H
  O15      1.0000 0.73150  0.33370  0.54730  Biso   1.000  O
  O16      1.0000 0.78780  0.27850  0.54750  Biso   1.000  O
  O17      1.0000 0.73440  0.45240  0.66570  Biso   1.000  O
  O18      1.0000 0.78850  0.45210  0.72200  Biso   1.000  O
  C43      1.0000 0.76770  0.31400  0.56230  Biso   1.000  C
  C44      1.0000 0.76670  0.43420  0.68880  Biso   1.000  C
  C45      1.0000 0.79130  0.33530  0.60510  Biso   1.000  C
  C46      1.0000 0.82870  0.31400  0.62630  Biso   1.000  C
  H45      1.0000 0.84120  0.28630  0.61380  Biso   1.000  H
  C47      1.0000 0.84800  0.33310  0.66590  Biso   1.000  C
  C48      1.0000 0.82980  0.37360  0.68430  Biso   1.000  C
  H46      1.0000 0.84300  0.38670  0.71140  Biso   1.000  H
  C49      1.0000 0.79240  0.39490  0.66310  Biso   1.000  C
  C50      1.0000 0.77310  0.37580  0.62350  Biso   1.000  C
  H47      1.0000 0.74750  0.39040  0.60900  Biso   1.000  H
  C51      1.0000 0.95830  0.26320  0.73830  Biso   1.000  C
  C52      1.0000 0.92960  0.23880  0.70850  Biso   1.000  C
  H48      1.0000 0.93430  0.20660  0.70390  Biso   1.000  H
  C53      1.0000 0.89410  0.26140  0.68540  Biso   1.000  C
  H49      1.0000 0.87450  0.24470  0.66510  Biso   1.000  H
  C54      1.0000 0.88720  0.30850  0.69220  Biso   1.000  C
  C55      1.0000 0.91590  0.33290  0.72190  Biso   1.000  C
  H50      1.0000 0.91130  0.36510  0.72650  Biso   1.000  H
  C56      1.0000 0.95150  0.31030  0.74500  Biso   1.000  C
  H51      1.0000 0.97110  0.32700  0.76530  Biso   1.000  H
  O19      1.0000 0.99930  0.19260  0.74930  Biso   1.000  O
  H52      1.0000 0.99930  0.18810  0.72160  Biso   1.000  H
  C57      1.0000 0.00200  0.24740  0.81090  Biso   1.000  C
  H53      1.0000 0.97090  0.24040  0.82430  Biso   1.000  H
  C58      1.0000 0.01500  0.29750  0.82240  Biso   1.000  C
  H54      1.0000 0.03930  0.29780  0.84600  Biso   1.000  H
  H55      1.0000 0.98780  0.31390  0.83410  Biso   1.000  H
  H56      1.0000 0.02630  0.31300  0.79450  Biso   1.000  H
  N3       1.0000 0.03620  0.21480  0.83030  Biso   1.000  N
  H57      1.0000 0.03970  0.18600  0.82120  Biso   1.000  H
  C59      1.0000 0.06270  0.23600  0.86560  Biso   1.000  C
  O20      1.0000 0.08700  0.27100  0.85600  Biso   1.000  O
  O21      1.0000 0.05100  0.22800  0.91220  Biso   1.000  O
  C60      1.0000 0.03450  0.17900  0.91620  Biso   1.000  C
  C61      1.0000 0.05180  0.15830  0.96240  Biso   1.000  C
  H58      1.0000 0.03980  0.17670  0.98820  Biso   1.000  H
  H59      1.0000 0.08560  0.15880  0.96300  Biso   1.000  H
  H60      1.0000 0.04090  0.12640  0.96530  Biso   1.000  H
  C62      1.0000 0.05540  0.15060  0.87590  Biso   1.000  C
  H61      1.0000 0.07710  0.17000  0.85860  Biso   1.000  H
  H62      1.0000 0.03050  0.14040  0.85530  Biso   1.000  H
  H63      1.0000 0.07160  0.12360  0.88830  Biso   1.000  H
  C63      1.0000 0.98120  0.17480  0.91440  Biso   1.000  C
  H64      1.0000 0.96760  0.19360  0.93910  Biso   1.000  H
  H65      1.0000 0.97230  0.14240  0.91860  Biso   1.000  H
  H66      1.0000 0.97010  0.18580  0.88440  Biso   1.000  H
  O22      1.0000 0.26850  0.66630  0.54730  Biso   1.000  O
  O23      1.0000 0.21220  0.72150  0.54750  Biso   1.000  O
  O24      1.0000 0.26560  0.54760  0.66570  Biso   1.000  O
  O25      1.0000 0.21150  0.54790  0.72200  Biso   1.000  O
  C64      1.0000 0.23230  0.68600  0.56230  Biso   1.000  C
  C65      1.0000 0.23330  0.56580  0.68880  Biso   1.000  C
  C66      1.0000 0.20870  0.66470  0.60510  Biso   1.000  C
  C67      1.0000 0.17130  0.68600  0.62630  Biso   1.000  C
  H67      1.0000 0.15880  0.71370  0.61380  Biso   1.000  H
  C68      1.0000 0.15200  0.66690  0.66590  Biso   1.000  C
  C69      1.0000 0.17020  0.62640  0.68430  Biso   1.000  C
  H68      1.0000 0.15700  0.61330  0.71140  Biso   1.000  H
  C70      1.0000 0.20760  0.60510  0.66310  Biso   1.000  C
  C71      1.0000 0.22690  0.62420  0.62350  Biso   1.000  C
  H69      1.0000 0.25250  0.60960  0.60900  Biso   1.000  H
  C72      1.0000 0.04170  0.73680  0.73830  Biso   1.000  C
  C73      1.0000 0.07040  0.76120  0.70850  Biso   1.000  C
  H70      1.0000 0.06570  0.79340  0.70390  Biso   1.000  H
  C74      1.0000 0.10590  0.73860  0.68540  Biso   1.000  C
  H71      1.0000 0.12550  0.75530  0.66510  Biso   1.000  H
  C75      1.0000 0.11280  0.69150  0.69220  Biso   1.000  C
  C76      1.0000 0.08410  0.66710  0.72190  Biso   1.000  C
  H72      1.0000 0.08870  0.63490  0.72650  Biso   1.000  H
  C77      1.0000 0.04850  0.68970  0.74500  Biso   1.000  C
  H73      1.0000 0.02890  0.67300  0.76530  Biso   1.000  H
  O26      1.0000 0.00070  0.80740  0.74930  Biso   1.000  O
  H74      1.0000 0.00070  0.81190  0.72160  Biso   1.000  H
  C78      1.0000 0.99800  0.75260  0.81090  Biso   1.000  C
  H75      1.0000 0.02910  0.75960  0.82430  Biso   1.000  H
  C79      1.0000 0.98500  0.70250  0.82240  Biso   1.000  C
  H76      1.0000 0.96070  0.70220  0.84600  Biso   1.000  H
  H77      1.0000 0.01220  0.68610  0.83410  Biso   1.000  H
  H78      1.0000 0.97370  0.68700  0.79450  Biso   1.000  H
  N4       1.0000 0.96380  0.78520  0.83030  Biso   1.000  N
  H79      1.0000 0.96030  0.81400  0.82120  Biso   1.000  H
  C80      1.0000 0.93730  0.76400  0.86560  Biso   1.000  C
  O27      1.0000 0.91300  0.72900  0.85600  Biso   1.000  O
  O28      1.0000 0.94900  0.77200  0.91220  Biso   1.000  O
  C81      1.0000 0.96550  0.82100  0.91620  Biso   1.000  C
  C82      1.0000 0.94820  0.84170  0.96240  Biso   1.000  C
  H80      1.0000 0.96020  0.82330  0.98820  Biso   1.000  H
  H81      1.0000 0.91440  0.84120  0.96300  Biso   1.000  H
  H82      1.0000 0.95910  0.87360  0.96530  Biso   1.000  H
  C83      1.0000 0.94460  0.84940  0.87590  Biso   1.000  C
  H83      1.0000 0.92290  0.83000  0.85860  Biso   1.000  H
  H84      1.0000 0.96950  0.85960  0.85530  Biso   1.000  H
  H85      1.0000 0.92840  0.87640  0.88830  Biso   1.000  H
  C84      1.0000 0.01880  0.82520  0.91440  Biso   1.000  C
  H86      1.0000 0.03240  0.80640  0.93910  Biso   1.000  H
  H87      1.0000 0.02770  0.85760  0.91860  Biso   1.000  H
  H88      1.0000 0.02990  0.81420  0.88440  Biso   1.000  H
  O29      1.0000 0.45270  0.26850  0.33370  Biso   1.000  O
  O30      1.0000 0.45250  0.21220  0.27850  Biso   1.000  O
  O31      1.0000 0.33430  0.26560  0.45240  Biso   1.000  O
  O32      1.0000 0.27800  0.21150  0.45210  Biso   1.000  O
  C85      1.0000 0.43770  0.23230  0.31400  Biso   1.000  C
  C86      1.0000 0.31120  0.23330  0.43420  Biso   1.000  C
  C87      1.0000 0.39490  0.20870  0.33530  Biso   1.000  C
  C88      1.0000 0.37370  0.17130  0.31400  Biso   1.000  C
  H89      1.0000 0.38620  0.15880  0.28630  Biso   1.000  H
  C89      1.0000 0.33410  0.15200  0.33310  Biso   1.000  C
  C90      1.0000 0.31570  0.17020  0.37360  Biso   1.000  C
  H90      1.0000 0.28860  0.15700  0.38670  Biso   1.000  H
  C91      1.0000 0.33690  0.20760  0.39490  Biso   1.000  C
  C92      1.0000 0.37650  0.22690  0.37580  Biso   1.000  C
  H91      1.0000 0.39100  0.25250  0.39040  Biso   1.000  H
  C93      1.0000 0.26170  0.04170  0.26320  Biso   1.000  C
  C94      1.0000 0.29150  0.07040  0.23880  Biso   1.000  C
  H92      1.0000 0.29610  0.06570  0.20660  Biso   1.000  H
  C95      1.0000 0.31460  0.10590  0.26140  Biso   1.000  C
  H93      1.0000 0.33490  0.12550  0.24470  Biso   1.000  H
  C96      1.0000 0.30780  0.11280  0.30850  Biso   1.000  C
  C97      1.0000 0.27810  0.08410  0.33290  Biso   1.000  C
  H94      1.0000 0.27350  0.08870  0.36510  Biso   1.000  H
  C98      1.0000 0.25500  0.04850  0.31030  Biso   1.000  C
  H95      1.0000 0.23470  0.02890  0.32700  Biso   1.000  H
  O33      1.0000 0.25070  0.00070  0.19260  Biso   1.000  O
  H96      1.0000 0.27840  0.00070  0.18810  Biso   1.000  H
  C99      1.0000 0.18910  0.99800  0.24740  Biso   1.000  C
  H97      1.0000 0.17570  0.02910  0.24040  Biso   1.000  H
  C100     1.0000 0.17760  0.98500  0.29750  Biso   1.000  C
  H98      1.0000 0.15400  0.96070  0.29780  Biso   1.000  H
  H99      1.0000 0.16590  0.01220  0.31390  Biso   1.000  H
  H100     1.0000 0.20550  0.97370  0.31300  Biso   1.000  H
  N5       1.0000 0.16970  0.96380  0.21480  Biso   1.000  N
  H101     1.0000 0.17880  0.96030  0.18600  Biso   1.000  H
  C101     1.0000 0.13440  0.93730  0.23600  Biso   1.000  C
  O34      1.0000 0.14400  0.91300  0.27100  Biso   1.000  O
  O35      1.0000 0.08780  0.94900  0.22800  Biso   1.000  O
  C102     1.0000 0.08380  0.96550  0.17900  Biso   1.000  C
  C103     1.0000 0.03760  0.94820  0.15830  Biso   1.000  C
  H102     1.0000 0.01180  0.96020  0.17670  Biso   1.000  H
  H103     1.0000 0.03700  0.91440  0.15880  Biso   1.000  H
  H104     1.0000 0.03470  0.95910  0.12640  Biso   1.000  H
  C104     1.0000 0.12410  0.94460  0.15060  Biso   1.000  C
  H105     1.0000 0.14140  0.92290  0.17000  Biso   1.000  H
  H106     1.0000 0.14470  0.96950  0.14040  Biso   1.000  H
  H107     1.0000 0.11170  0.92840  0.12360  Biso   1.000  H
  C105     1.0000 0.08560  0.01880  0.17480  Biso   1.000  C
  H108     1.0000 0.06090  0.03240  0.19360  Biso   1.000  H
  H109     1.0000 0.08140  0.02770  0.14240  Biso   1.000  H
  H110     1.0000 0.11560  0.02990  0.18580  Biso   1.000  H
  O36      1.0000 0.45270  0.73150  0.66630  Biso   1.000  O
  O37      1.0000 0.45250  0.78780  0.72150  Biso   1.000  O
  O38      1.0000 0.33430  0.73440  0.54760  Biso   1.000  O
  O39      1.0000 0.27800  0.78850  0.54790  Biso   1.000  O
  C106     1.0000 0.43770  0.76770  0.68600  Biso   1.000  C
  C107     1.0000 0.31120  0.76670  0.56580  Biso   1.000  C
  C108     1.0000 0.39490  0.79130  0.66470  Biso   1.000  C
  C109     1.0000 0.37370  0.82870  0.68600  Biso   1.000  C
  H111     1.0000 0.38620  0.84120  0.71370  Biso   1.000  H
  C110     1.0000 0.33410  0.84800  0.66690  Biso   1.000  C
  C111     1.0000 0.31570  0.82980  0.62640  Biso   1.000  C
  H112     1.0000 0.28860  0.84300  0.61330  Biso   1.000  H
  C112     1.0000 0.33690  0.79240  0.60510  Biso   1.000  C
  C113     1.0000 0.37650  0.77310  0.62420  Biso   1.000  C
  H113     1.0000 0.39100  0.74750  0.60960  Biso   1.000  H
  C114     1.0000 0.26170  0.95830  0.73680  Biso   1.000  C
  C115     1.0000 0.29150  0.92960  0.76120  Biso   1.000  C
  H114     1.0000 0.29610  0.93430  0.79340  Biso   1.000  H
  C116     1.0000 0.31460  0.89410  0.73860  Biso   1.000  C
  H115     1.0000 0.33490  0.87450  0.75530  Biso   1.000  H
  C117     1.0000 0.30780  0.88720  0.69150  Biso   1.000  C
  C118     1.0000 0.27810  0.91590  0.66710  Biso   1.000  C
  H116     1.0000 0.27350  0.91130  0.63490  Biso   1.000  H
  C119     1.0000 0.25500  0.95150  0.68970  Biso   1.000  C
  H117     1.0000 0.23470  0.97110  0.67300  Biso   1.000  H
  O40      1.0000 0.25070  0.99930  0.80740  Biso   1.000  O
  H118     1.0000 0.27840  0.99930  0.81190  Biso   1.000  H
  C120     1.0000 0.18910  0.00200  0.75260  Biso   1.000  C
  H119     1.0000 0.17570  0.97090  0.75960  Biso   1.000  H
  C121     1.0000 0.17760  0.01500  0.70250  Biso   1.000  C
  H120     1.0000 0.15400  0.03930  0.70220  Biso   1.000  H
  H121     1.0000 0.16590  0.98780  0.68610  Biso   1.000  H
  H122     1.0000 0.20550  0.02630  0.68700  Biso   1.000  H
  N6       1.0000 0.16970  0.03620  0.78520  Biso   1.000  N
  H123     1.0000 0.17880  0.03970  0.81400  Biso   1.000  H
  C122     1.0000 0.13440  0.06270  0.76400  Biso   1.000  C
  O41      1.0000 0.14400  0.08700  0.72900  Biso   1.000  O
  O42      1.0000 0.08780  0.05100  0.77200  Biso   1.000  O
  C123     1.0000 0.08380  0.03450  0.82100  Biso   1.000  C
  C124     1.0000 0.03760  0.05180  0.84170  Biso   1.000  C
  H124     1.0000 0.01180  0.03980  0.82330  Biso   1.000  H
  H125     1.0000 0.03700  0.08560  0.84120  Biso   1.000  H
  H126     1.0000 0.03470  0.04090  0.87360  Biso   1.000  H
  C125     1.0000 0.12410  0.05540  0.84940  Biso   1.000  C
  H127     1.0000 0.14140  0.07710  0.83000  Biso   1.000  H
  H128     1.0000 0.14470  0.03050  0.85960  Biso   1.000  H
  H129     1.0000 0.11170  0.07160  0.87640  Biso   1.000  H
  C126     1.0000 0.08560  0.98120  0.82520  Biso   1.000  C
  H130     1.0000 0.06090  0.96760  0.80640  Biso   1.000  H
  H131     1.0000 0.08140  0.97230  0.85760  Biso   1.000  H
  H132     1.0000 0.11560  0.97010  0.81420  Biso   1.000  H
  O43      1.0000 0.54730  0.73150  0.33370  Biso   1.000  O
  O44      1.0000 0.54750  0.78780  0.27850  Biso   1.000  O
  O45      1.0000 0.66570  0.73440  0.45240  Biso   1.000  O
  O46      1.0000 0.72200  0.78850  0.45210  Biso   1.000  O
  C127     1.0000 0.56230  0.76770  0.31400  Biso   1.000  C
  C128     1.0000 0.68880  0.76670  0.43420  Biso   1.000  C
  C129     1.0000 0.60510  0.79130  0.33530  Biso   1.000  C
  C130     1.0000 0.62630  0.82870  0.31400  Biso   1.000  C
  H133     1.0000 0.61380  0.84120  0.28630  Biso   1.000  H
  C131     1.0000 0.66590  0.84800  0.33310  Biso   1.000  C
  C132     1.0000 0.68430  0.82980  0.37360  Biso   1.000  C
  H134     1.0000 0.71140  0.84300  0.38670  Biso   1.000  H
  C133     1.0000 0.66310  0.79240  0.39490  Biso   1.000  C
  C134     1.0000 0.62350  0.77310  0.37580  Biso   1.000  C
  H135     1.0000 0.60900  0.74750  0.39040  Biso   1.000  H
  C135     1.0000 0.73830  0.95830  0.26320  Biso   1.000  C
  C136     1.0000 0.70850  0.92960  0.23880  Biso   1.000  C
  H136     1.0000 0.70390  0.93430  0.20660  Biso   1.000  H
  C137     1.0000 0.68540  0.89410  0.26140  Biso   1.000  C
  H137     1.0000 0.66510  0.87450  0.24470  Biso   1.000  H
  C138     1.0000 0.69220  0.88720  0.30850  Biso   1.000  C
  C139     1.0000 0.72190  0.91590  0.33290  Biso   1.000  C
  H138     1.0000 0.72650  0.91130  0.36510  Biso   1.000  H
  C140     1.0000 0.74500  0.95150  0.31030  Biso   1.000  C
  H139     1.0000 0.76530  0.97110  0.32700  Biso   1.000  H
  O47      1.0000 0.74930  0.99930  0.19260  Biso   1.000  O
  H140     1.0000 0.72160  0.99930  0.18810  Biso   1.000  H
  C141     1.0000 0.81090  0.00200  0.24740  Biso   1.000  C
  H141     1.0000 0.82430  0.97090  0.24040  Biso   1.000  H
  C142     1.0000 0.82240  0.01500  0.29750  Biso   1.000  C
  H142     1.0000 0.84600  0.03930  0.29780  Biso   1.000  H
  H143     1.0000 0.83410  0.98780  0.31390  Biso   1.000  H
  H144     1.0000 0.79450  0.02630  0.31300  Biso   1.000  H
  N7       1.0000 0.83030  0.03620  0.21480  Biso   1.000  N
  H145     1.0000 0.82120  0.03970  0.18600  Biso   1.000  H
  C143     1.0000 0.86560  0.06270  0.23600  Biso   1.000  C
  O48      1.0000 0.85600  0.08700  0.27100  Biso   1.000  O
  O49      1.0000 0.91220  0.05100  0.22800  Biso   1.000  O
  C144     1.0000 0.91620  0.03450  0.17900  Biso   1.000  C
  C145     1.0000 0.96240  0.05180  0.15830  Biso   1.000  C
  H146     1.0000 0.98820  0.03980  0.17670  Biso   1.000  H
  H147     1.0000 0.96300  0.08560  0.15880  Biso   1.000  H
  H148     1.0000 0.96530  0.04090  0.12640  Biso   1.000  H
  C146     1.0000 0.87590  0.05540  0.15060  Biso   1.000  C
  H149     1.0000 0.85860  0.07710  0.17000  Biso   1.000  H
  H150     1.0000 0.85530  0.03050  0.14040  Biso   1.000  H
  H151     1.0000 0.88830  0.07160  0.12360  Biso   1.000  H
  C147     1.0000 0.91440  0.98120  0.17480  Biso   1.000  C
  H152     1.0000 0.93910  0.96760  0.19360  Biso   1.000  H
  H153     1.0000 0.91860  0.97230  0.14240  Biso   1.000  H
  H154     1.0000 0.88440  0.97010  0.18580  Biso   1.000  H
  O50      1.0000 0.54730  0.26850  0.66630  Biso   1.000  O
  O51      1.0000 0.54750  0.21220  0.72150  Biso   1.000  O
  O52      1.0000 0.66570  0.26560  0.54760  Biso   1.000  O
  O53      1.0000 0.72200  0.21150  0.54790  Biso   1.000  O
  C148     1.0000 0.56230  0.23230  0.68600  Biso   1.000  C
  C149     1.0000 0.68880  0.23330  0.56580  Biso   1.000  C
  C150     1.0000 0.60510  0.20870  0.66470  Biso   1.000  C
  C151     1.0000 0.62630  0.17130  0.68600  Biso   1.000  C
  H155     1.0000 0.61380  0.15880  0.71370  Biso   1.000  H
  C152     1.0000 0.66590  0.15200  0.66690  Biso   1.000  C
  C153     1.0000 0.68430  0.17020  0.62640  Biso   1.000  C
  H156     1.0000 0.71140  0.15700  0.61330  Biso   1.000  H
  C154     1.0000 0.66310  0.20760  0.60510  Biso   1.000  C
  C155     1.0000 0.62350  0.22690  0.62420  Biso   1.000  C
  H157     1.0000 0.60900  0.25250  0.60960  Biso   1.000  H
  C156     1.0000 0.73830  0.04170  0.73680  Biso   1.000  C
  C157     1.0000 0.70850  0.07040  0.76120  Biso   1.000  C
  H158     1.0000 0.70390  0.06570  0.79340  Biso   1.000  H
  C158     1.0000 0.68540  0.10590  0.73860  Biso   1.000  C
  H159     1.0000 0.66510  0.12550  0.75530  Biso   1.000  H
  C159     1.0000 0.69220  0.11280  0.69150  Biso   1.000  C
  C160     1.0000 0.72190  0.08410  0.66710  Biso   1.000  C
  H160     1.0000 0.72650  0.08870  0.63490  Biso   1.000  H
  C161     1.0000 0.74500  0.04850  0.68970  Biso   1.000  C
  H161     1.0000 0.76530  0.02890  0.67300  Biso   1.000  H
  O54      1.0000 0.74930  0.00070  0.80740  Biso   1.000  O
  H162     1.0000 0.72160  0.00070  0.81190  Biso   1.000  H
  C162     1.0000 0.81090  0.99800  0.75260  Biso   1.000  C
  H163     1.0000 0.82430  0.02910  0.75960  Biso   1.000  H
  C163     1.0000 0.82240  0.98500  0.70250  Biso   1.000  C
  H164     1.0000 0.84600  0.96070  0.70220  Biso   1.000  H
  H165     1.0000 0.83410  0.01220  0.68610  Biso   1.000  H
  H166     1.0000 0.79450  0.97370  0.68700  Biso   1.000  H
  N8       1.0000 0.83030  0.96380  0.78520  Biso   1.000  N
  H167     1.0000 0.82120  0.96030  0.81400  Biso   1.000  H
  C164     1.0000 0.86560  0.93730  0.76400  Biso   1.000  C
  O55      1.0000 0.85600  0.91300  0.72900  Biso   1.000  O
  O56      1.0000 0.91220  0.94900  0.77200  Biso   1.000  O
  C165     1.0000 0.91620  0.96550  0.82100  Biso   1.000  C
  C166     1.0000 0.96240  0.94820  0.84170  Biso   1.000  C
  H168     1.0000 0.98820  0.96020  0.82330  Biso   1.000  H
  H169     1.0000 0.96300  0.91440  0.84120  Biso   1.000  H
  H170     1.0000 0.96530  0.95910  0.87360  Biso   1.000  H
  C167     1.0000 0.87590  0.94460  0.84940  Biso   1.000  C
  H171     1.0000 0.85860  0.92290  0.83000  Biso   1.000  H
  H172     1.0000 0.85530  0.96950  0.85960  Biso   1.000  H
  H173     1.0000 0.88830  0.92840  0.87640  Biso   1.000  H
  C168     1.0000 0.91440  0.01880  0.82520  Biso   1.000  C
  H174     1.0000 0.93910  0.03240  0.80640  Biso   1.000  H
  H175     1.0000 0.91860  0.02770  0.85760  Biso   1.000  H
  H176     1.0000 0.88440  0.02990  0.81420  Biso   1.000  H
  O57      1.0000 0.33370  0.45270  0.26850  Biso   1.000  O
  O58      1.0000 0.27850  0.45250  0.21220  Biso   1.000  O
  O59      1.0000 0.45240  0.33430  0.26560  Biso   1.000  O
  O60      1.0000 0.45210  0.27800  0.21150  Biso   1.000  O
  C169     1.0000 0.31400  0.43770  0.23230  Biso   1.000  C
  C170     1.0000 0.43420  0.31120  0.23330  Biso   1.000  C
  C171     1.0000 0.33530  0.39490  0.20870  Biso   1.000  C
  C172     1.0000 0.31400  0.37370  0.17130  Biso   1.000  C
  H177     1.0000 0.28630  0.38620  0.15880  Biso   1.000  H
  C173     1.0000 0.33310  0.33410  0.15200  Biso   1.000  C
  C174     1.0000 0.37360  0.31570  0.17020  Biso   1.000  C
  H178     1.0000 0.38670  0.28860  0.15700  Biso   1.000  H
  C175     1.0000 0.39490  0.33690  0.20760  Biso   1.000  C
  C176     1.0000 0.37580  0.37650  0.22690  Biso   1.000  C
  H179     1.0000 0.39040  0.39100  0.25250  Biso   1.000  H
  C177     1.0000 0.26320  0.26170  0.04170  Biso   1.000  C
  C178     1.0000 0.23880  0.29150  0.07040  Biso   1.000  C
  H180     1.0000 0.20660  0.29610  0.06570  Biso   1.000  H
  C179     1.0000 0.26140  0.31460  0.10590  Biso   1.000  C
  H181     1.0000 0.24470  0.33490  0.12550  Biso   1.000  H
  C180     1.0000 0.30850  0.30780  0.11280  Biso   1.000  C
  C181     1.0000 0.33290  0.27810  0.08410  Biso   1.000  C
  H182     1.0000 0.36510  0.27350  0.08870  Biso   1.000  H
  C182     1.0000 0.31030  0.25500  0.04850  Biso   1.000  C
  H183     1.0000 0.32700  0.23470  0.02890  Biso   1.000  H
  O61      1.0000 0.19260  0.25070  0.00070  Biso   1.000  O
  H184     1.0000 0.18810  0.27840  0.00070  Biso   1.000  H
  C183     1.0000 0.24740  0.18910  0.99800  Biso   1.000  C
  H185     1.0000 0.24040  0.17570  0.02910  Biso   1.000  H
  C184     1.0000 0.29750  0.17760  0.98500  Biso   1.000  C
  H186     1.0000 0.29780  0.15400  0.96070  Biso   1.000  H
  H187     1.0000 0.31390  0.16590  0.01220  Biso   1.000  H
  H188     1.0000 0.31300  0.20550  0.97370  Biso   1.000  H
  N9       1.0000 0.21480  0.16970  0.96380  Biso   1.000  N
  H189     1.0000 0.18600  0.17880  0.96030  Biso   1.000  H
  C185     1.0000 0.23600  0.13440  0.93730  Biso   1.000  C
  O62      1.0000 0.27100  0.14400  0.91300  Biso   1.000  O
  O63      1.0000 0.22800  0.08780  0.94900  Biso   1.000  O
  C186     1.0000 0.17900  0.08380  0.96550  Biso   1.000  C
  C187     1.0000 0.15830  0.03760  0.94820  Biso   1.000  C
  H190     1.0000 0.17670  0.01180  0.96020  Biso   1.000  H
  H191     1.0000 0.15880  0.03700  0.91440  Biso   1.000  H
  H192     1.0000 0.12640  0.03470  0.95910  Biso   1.000  H
  C188     1.0000 0.15060  0.12410  0.94460  Biso   1.000  C
  H193     1.0000 0.17000  0.14140  0.92290  Biso   1.000  H
  H194     1.0000 0.14040  0.14470  0.96950  Biso   1.000  H
  H195     1.0000 0.12360  0.11170  0.92840  Biso   1.000  H
  C189     1.0000 0.17480  0.08560  0.01880  Biso   1.000  C
  H196     1.0000 0.19360  0.06090  0.03240  Biso   1.000  H
  H197     1.0000 0.14240  0.08140  0.02770  Biso   1.000  H
  H198     1.0000 0.18580  0.11560  0.02990  Biso   1.000  H
  O64      1.0000 0.66630  0.45270  0.73150  Biso   1.000  O
  O65      1.0000 0.72150  0.45250  0.78780  Biso   1.000  O
  O66      1.0000 0.54760  0.33430  0.73440  Biso   1.000  O
  O67      1.0000 0.54790  0.27800  0.78850  Biso   1.000  O
  C190     1.0000 0.68600  0.43770  0.76770  Biso   1.000  C
  C191     1.0000 0.56580  0.31120  0.76670  Biso   1.000  C
  C192     1.0000 0.66470  0.39490  0.79130  Biso   1.000  C
  C193     1.0000 0.68600  0.37370  0.82870  Biso   1.000  C
  H199     1.0000 0.71370  0.38620  0.84120  Biso   1.000  H
  C194     1.0000 0.66690  0.33410  0.84800  Biso   1.000  C
  C195     1.0000 0.62640  0.31570  0.82980  Biso   1.000  C
  H200     1.0000 0.61330  0.28860  0.84300  Biso   1.000  H
  C196     1.0000 0.60510  0.33690  0.79240  Biso   1.000  C
  C197     1.0000 0.62420  0.37650  0.77310  Biso   1.000  C
  H201     1.0000 0.60960  0.39100  0.74750  Biso   1.000  H
  C198     1.0000 0.73680  0.26170  0.95830  Biso   1.000  C
  C199     1.0000 0.76120  0.29150  0.92960  Biso   1.000  C
  H202     1.0000 0.79340  0.29610  0.93430  Biso   1.000  H
  C200     1.0000 0.73860  0.31460  0.89410  Biso   1.000  C
  H203     1.0000 0.75530  0.33490  0.87450  Biso   1.000  H
  C201     1.0000 0.69150  0.30780  0.88720  Biso   1.000  C
  C202     1.0000 0.66710  0.27810  0.91590  Biso   1.000  C
  H204     1.0000 0.63490  0.27350  0.91130  Biso   1.000  H
  C203     1.0000 0.68970  0.25500  0.95150  Biso   1.000  C
  H205     1.0000 0.67300  0.23470  0.97110  Biso   1.000  H
  O68      1.0000 0.80740  0.25070  0.99930  Biso   1.000  O
  H206     1.0000 0.81190  0.27840  0.99930  Biso   1.000  H
  C204     1.0000 0.75260  0.18910  0.00200  Biso   1.000  C
  H207     1.0000 0.75960  0.17570  0.97090  Biso   1.000  H
  C205     1.0000 0.70250  0.17760  0.01500  Biso   1.000  C
  H208     1.0000 0.70220  0.15400  0.03930  Biso   1.000  H
  H209     1.0000 0.68610  0.16590  0.98780  Biso   1.000  H
  H210     1.0000 0.68700  0.20550  0.02630  Biso   1.000  H
  N10      1.0000 0.78520  0.16970  0.03620  Biso   1.000  N
  H211     1.0000 0.81400  0.17880  0.03970  Biso   1.000  H
  C206     1.0000 0.76400  0.13440  0.06270  Biso   1.000  C
  O69      1.0000 0.72900  0.14400  0.08700  Biso   1.000  O
  O70      1.0000 0.77200  0.08780  0.05100  Biso   1.000  O
  C207     1.0000 0.82100  0.08380  0.03450  Biso   1.000  C
  C208     1.0000 0.84170  0.03760  0.05180  Biso   1.000  C
  H212     1.0000 0.82330  0.01180  0.03980  Biso   1.000  H
  H213     1.0000 0.84120  0.03700  0.08560  Biso   1.000  H
  H214     1.0000 0.87360  0.03470  0.04090  Biso   1.000  H
  C209     1.0000 0.84940  0.12410  0.05540  Biso   1.000  C
  H215     1.0000 0.83000  0.14140  0.07710  Biso   1.000  H
  H216     1.0000 0.85960  0.14470  0.03050  Biso   1.000  H
  H217     1.0000 0.87640  0.11170  0.07160  Biso   1.000  H
  C210     1.0000 0.82520  0.08560  0.98120  Biso   1.000  C
  H218     1.0000 0.80640  0.06090  0.96760  Biso   1.000  H
  H219     1.0000 0.85760  0.08140  0.97230  Biso   1.000  H
  H220     1.0000 0.81420  0.11560  0.97010  Biso   1.000  H
  O71      1.0000 0.33370  0.54730  0.73150  Biso   1.000  O
  O72      1.0000 0.27850  0.54750  0.78780  Biso   1.000  O
  O73      1.0000 0.45240  0.66570  0.73440  Biso   1.000  O
  O74      1.0000 0.45210  0.72200  0.78850  Biso   1.000  O
  C211     1.0000 0.31400  0.56230  0.76770  Biso   1.000  C
  C212     1.0000 0.43420  0.68880  0.76670  Biso   1.000  C
  C213     1.0000 0.33530  0.60510  0.79130  Biso   1.000  C
  C214     1.0000 0.31400  0.62630  0.82870  Biso   1.000  C
  H221     1.0000 0.28630  0.61380  0.84120  Biso   1.000  H
  C215     1.0000 0.33310  0.66590  0.84800  Biso   1.000  C
  C216     1.0000 0.37360  0.68430  0.82980  Biso   1.000  C
  H222     1.0000 0.38670  0.71140  0.84300  Biso   1.000  H
  C217     1.0000 0.39490  0.66310  0.79240  Biso   1.000  C
  C218     1.0000 0.37580  0.62350  0.77310  Biso   1.000  C
  H223     1.0000 0.39040  0.60900  0.74750  Biso   1.000  H
  C219     1.0000 0.26320  0.73830  0.95830  Biso   1.000  C
  C220     1.0000 0.23880  0.70850  0.92960  Biso   1.000  C
  H224     1.0000 0.20660  0.70390  0.93430  Biso   1.000  H
  C221     1.0000 0.26140  0.68540  0.89410  Biso   1.000  C
  H225     1.0000 0.24470  0.66510  0.87450  Biso   1.000  H
  C222     1.0000 0.30850  0.69220  0.88720  Biso   1.000  C
  C223     1.0000 0.33290  0.72190  0.91590  Biso   1.000  C
  H226     1.0000 0.36510  0.72650  0.91130  Biso   1.000  H
  C224     1.0000 0.31030  0.74500  0.95150  Biso   1.000  C
  H227     1.0000 0.32700  0.76530  0.97110  Biso   1.000  H
  O75      1.0000 0.19260  0.74930  0.99930  Biso   1.000  O
  H228     1.0000 0.18810  0.72160  0.99930  Biso   1.000  H
  C225     1.0000 0.24740  0.81090  0.00200  Biso   1.000  C
  H229     1.0000 0.24040  0.82430  0.97090  Biso   1.000  H
  C226     1.0000 0.29750  0.82240  0.01500  Biso   1.000  C
  H230     1.0000 0.29780  0.84600  0.03930  Biso   1.000  H
  H231     1.0000 0.31390  0.83410  0.98780  Biso   1.000  H
  H232     1.0000 0.31300  0.79450  0.02630  Biso   1.000  H
  N11      1.0000 0.21480  0.83030  0.03620  Biso   1.000  N
  H233     1.0000 0.18600  0.82120  0.03970  Biso   1.000  H
  C227     1.0000 0.23600  0.86560  0.06270  Biso   1.000  C
  O76      1.0000 0.27100  0.85600  0.08700  Biso   1.000  O
  O77      1.0000 0.22800  0.91220  0.05100  Biso   1.000  O
  C228     1.0000 0.17900  0.91620  0.03450  Biso   1.000  C
  C229     1.0000 0.15830  0.96240  0.05180  Biso   1.000  C
  H234     1.0000 0.17670  0.98820  0.03980  Biso   1.000  H
  H235     1.0000 0.15880  0.96300  0.08560  Biso   1.000  H
  H236     1.0000 0.12640  0.96530  0.04090  Biso   1.000  H
  C230     1.0000 0.15060  0.87590  0.05540  Biso   1.000  C
  H237     1.0000 0.17000  0.85860  0.07710  Biso   1.000  H
  H238     1.0000 0.14040  0.85530  0.03050  Biso   1.000  H
  H239     1.0000 0.12360  0.88830  0.07160  Biso   1.000  H
  C231     1.0000 0.17480  0.91440  0.98120  Biso   1.000  C
  H240     1.0000 0.19360  0.93910  0.96760  Biso   1.000  H
  H241     1.0000 0.14240  0.91860  0.97230  Biso   1.000  H
  H242     1.0000 0.18580  0.88440  0.97010  Biso   1.000  H
  O78      1.0000 0.66630  0.54730  0.26850  Biso   1.000  O
  O79      1.0000 0.72150  0.54750  0.21220  Biso   1.000  O
  O80      1.0000 0.54760  0.66570  0.26560  Biso   1.000  O
  O81      1.0000 0.54790  0.72200  0.21150  Biso   1.000  O
  C232     1.0000 0.68600  0.56230  0.23230  Biso   1.000  C
  C233     1.0000 0.56580  0.68880  0.23330  Biso   1.000  C
  C234     1.0000 0.66470  0.60510  0.20870  Biso   1.000  C
  C235     1.0000 0.68600  0.62630  0.17130  Biso   1.000  C
  H243     1.0000 0.71370  0.61380  0.15880  Biso   1.000  H
  C236     1.0000 0.66690  0.66590  0.15200  Biso   1.000  C
  C237     1.0000 0.62640  0.68430  0.17020  Biso   1.000  C
  H244     1.0000 0.61330  0.71140  0.15700  Biso   1.000  H
  C238     1.0000 0.60510  0.66310  0.20760  Biso   1.000  C
  C239     1.0000 0.62420  0.62350  0.22690  Biso   1.000  C
  H245     1.0000 0.60960  0.60900  0.25250  Biso   1.000  H
  C240     1.0000 0.73680  0.73830  0.04170  Biso   1.000  C
  C241     1.0000 0.76120  0.70850  0.07040  Biso   1.000  C
  H246     1.0000 0.79340  0.70390  0.06570  Biso   1.000  H
  C242     1.0000 0.73860  0.68540  0.10590  Biso   1.000  C
  H247     1.0000 0.75530  0.66510  0.12550  Biso   1.000  H
  C243     1.0000 0.69150  0.69220  0.11280  Biso   1.000  C
  C244     1.0000 0.66710  0.72190  0.08410  Biso   1.000  C
  H248     1.0000 0.63490  0.72650  0.08870  Biso   1.000  H
  C245     1.0000 0.68970  0.74500  0.04850  Biso   1.000  C
  H249     1.0000 0.67300  0.76530  0.02890  Biso   1.000  H
  O82      1.0000 0.80740  0.74930  0.00070  Biso   1.000  O
  H250     1.0000 0.81190  0.72160  0.00070  Biso   1.000  H
  C246     1.0000 0.75260  0.81090  0.99800  Biso   1.000  C
  H251     1.0000 0.75960  0.82430  0.02910  Biso   1.000  H
  C247     1.0000 0.70250  0.82240  0.98500  Biso   1.000  C
  H252     1.0000 0.70220  0.84600  0.96070  Biso   1.000  H
  H253     1.0000 0.68610  0.83410  0.01220  Biso   1.000  H
  H254     1.0000 0.68700  0.79450  0.97370  Biso   1.000  H
  N12      1.0000 0.78520  0.83030  0.96380  Biso   1.000  N
  H255     1.0000 0.81400  0.82120  0.96030  Biso   1.000  H
  C248     1.0000 0.76400  0.86560  0.93730  Biso   1.000  C
  O83      1.0000 0.72900  0.85600  0.91300  Biso   1.000  O
  O84      1.0000 0.77200  0.91220  0.94900  Biso   1.000  O
  C249     1.0000 0.82100  0.91620  0.96550  Biso   1.000  C
  C250     1.0000 0.84170  0.96240  0.94820  Biso   1.000  C
  H256     1.0000 0.82330  0.98820  0.96020  Biso   1.000  H
  H257     1.0000 0.84120  0.96300  0.91440  Biso   1.000  H
  H258     1.0000 0.87360  0.96530  0.95910  Biso   1.000  H
  C251     1.0000 0.84940  0.87590  0.94460  Biso   1.000  C
  H259     1.0000 0.83000  0.85860  0.92290  Biso   1.000  H
  H260     1.0000 0.85960  0.85530  0.96950  Biso   1.000  H
  H261     1.0000 0.87640  0.88830  0.92840  Biso   1.000  H
  C252     1.0000 0.82520  0.91440  0.01880  Biso   1.000  C
  H262     1.0000 0.80640  0.93910  0.03240  Biso   1.000  H
  H263     1.0000 0.85760  0.91860  0.02770  Biso   1.000  H
  H264     1.0000 0.81420  0.88440  0.02990  Biso   1.000  H
  O85      1.0000 0.33370  0.26850  0.54730  Biso   1.000  O
  O86      1.0000 0.27850  0.21220  0.54750  Biso   1.000  O
  O87      1.0000 0.45240  0.26560  0.66570  Biso   1.000  O
  O88      1.0000 0.45210  0.21150  0.72200  Biso   1.000  O
  C253     1.0000 0.31400  0.23230  0.56230  Biso   1.000  C
  C254     1.0000 0.43420  0.23330  0.68880  Biso   1.000  C
  C255     1.0000 0.33530  0.20870  0.60510  Biso   1.000  C
  C256     1.0000 0.31400  0.17130  0.62630  Biso   1.000  C
  H265     1.0000 0.28630  0.15880  0.61380  Biso   1.000  H
  C257     1.0000 0.33310  0.15200  0.66590  Biso   1.000  C
  C258     1.0000 0.37360  0.17020  0.68430  Biso   1.000  C
  H266     1.0000 0.38670  0.15700  0.71140  Biso   1.000  H
  C259     1.0000 0.39490  0.20760  0.66310  Biso   1.000  C
  C260     1.0000 0.37580  0.22690  0.62350  Biso   1.000  C
  H267     1.0000 0.39040  0.25250  0.60900  Biso   1.000  H
  C261     1.0000 0.26320  0.04170  0.73830  Biso   1.000  C
  C262     1.0000 0.23880  0.07040  0.70850  Biso   1.000  C
  H268     1.0000 0.20660  0.06570  0.70390  Biso   1.000  H
  C263     1.0000 0.26140  0.10590  0.68540  Biso   1.000  C
  H269     1.0000 0.24470  0.12550  0.66510  Biso   1.000  H
  C264     1.0000 0.30850  0.11280  0.69220  Biso   1.000  C
  C265     1.0000 0.33290  0.08410  0.72190  Biso   1.000  C
  H270     1.0000 0.36510  0.08870  0.72650  Biso   1.000  H
  C266     1.0000 0.31030  0.04850  0.74500  Biso   1.000  C
  H271     1.0000 0.32700  0.02890  0.76530  Biso   1.000  H
  O89      1.0000 0.19260  0.00070  0.74930  Biso   1.000  O
  H272     1.0000 0.18810  0.00070  0.72160  Biso   1.000  H
  C267     1.0000 0.24740  0.99800  0.81090  Biso   1.000  C
  H273     1.0000 0.24040  0.02910  0.82430  Biso   1.000  H
  C268     1.0000 0.29750  0.98500  0.82240  Biso   1.000  C
  H274     1.0000 0.29780  0.96070  0.84600  Biso   1.000  H
  H275     1.0000 0.31390  0.01220  0.83410  Biso   1.000  H
  H276     1.0000 0.31300  0.97370  0.79450  Biso   1.000  H
  N13      1.0000 0.21480  0.96380  0.83030  Biso   1.000  N
  H277     1.0000 0.18600  0.96030  0.82120  Biso   1.000  H
  C269     1.0000 0.23600  0.93730  0.86560  Biso   1.000  C
  O90      1.0000 0.27100  0.91300  0.85600  Biso   1.000  O
  O91      1.0000 0.22800  0.94900  0.91220  Biso   1.000  O
  C270     1.0000 0.17900  0.96550  0.91620  Biso   1.000  C
  C271     1.0000 0.15830  0.94820  0.96240  Biso   1.000  C
  H278     1.0000 0.17670  0.96020  0.98820  Biso   1.000  H
  H279     1.0000 0.15880  0.91440  0.96300  Biso   1.000  H
  H280     1.0000 0.12640  0.95910  0.96530  Biso   1.000  H
  C272     1.0000 0.15060  0.94460  0.87590  Biso   1.000  C
  H281     1.0000 0.17000  0.92290  0.85860  Biso   1.000  H
  H282     1.0000 0.14040  0.96950  0.85530  Biso   1.000  H
  H283     1.0000 0.12360  0.92840  0.88830  Biso   1.000  H
  C273     1.0000 0.17480  0.01880  0.91440  Biso   1.000  C
  H284     1.0000 0.19360  0.03240  0.93910  Biso   1.000  H
  H285     1.0000 0.14240  0.02770  0.91860  Biso   1.000  H
  H286     1.0000 0.18580  0.02990  0.88440  Biso   1.000  H
  O92      1.0000 0.66630  0.73150  0.54730  Biso   1.000  O
  O93      1.0000 0.72150  0.78780  0.54750  Biso   1.000  O
  O94      1.0000 0.54760  0.73440  0.66570  Biso   1.000  O
  O95      1.0000 0.54790  0.78850  0.72200  Biso   1.000  O
  C274     1.0000 0.68600  0.76770  0.56230  Biso   1.000  C
  C275     1.0000 0.56580  0.76670  0.68880  Biso   1.000  C
  C276     1.0000 0.66470  0.79130  0.60510  Biso   1.000  C
  C277     1.0000 0.68600  0.82870  0.62630  Biso   1.000  C
  H287     1.0000 0.71370  0.84120  0.61380  Biso   1.000  H
  C278     1.0000 0.66690  0.84800  0.66590  Biso   1.000  C
  C279     1.0000 0.62640  0.82980  0.68430  Biso   1.000  C
  H288     1.0000 0.61330  0.84300  0.71140  Biso   1.000  H
  C280     1.0000 0.60510  0.79240  0.66310  Biso   1.000  C
  C281     1.0000 0.62420  0.77310  0.62350  Biso   1.000  C
  H289     1.0000 0.60960  0.74750  0.60900  Biso   1.000  H
  C282     1.0000 0.73680  0.95830  0.73830  Biso   1.000  C
  C283     1.0000 0.76120  0.92960  0.70850  Biso   1.000  C
  H290     1.0000 0.79340  0.93430  0.70390  Biso   1.000  H
  C284     1.0000 0.73860  0.89410  0.68540  Biso   1.000  C
  H291     1.0000 0.75530  0.87450  0.66510  Biso   1.000  H
  C285     1.0000 0.69150  0.88720  0.69220  Biso   1.000  C
  C286     1.0000 0.66710  0.91590  0.72190  Biso   1.000  C
  H292     1.0000 0.63490  0.91130  0.72650  Biso   1.000  H
  C287     1.0000 0.68970  0.95150  0.74500  Biso   1.000  C
  H293     1.0000 0.67300  0.97110  0.76530  Biso   1.000  H
  O96      1.0000 0.80740  0.99930  0.74930  Biso   1.000  O
  H294     1.0000 0.81190  0.99930  0.72160  Biso   1.000  H
  C288     1.0000 0.75260  0.00200  0.81090  Biso   1.000  C
  H295     1.0000 0.75960  0.97090  0.82430  Biso   1.000  H
  C289     1.0000 0.70250  0.01500  0.82240  Biso   1.000  C
  H296     1.0000 0.70220  0.03930  0.84600  Biso   1.000  H
  H297     1.0000 0.68610  0.98780  0.83410  Biso   1.000  H
  H298     1.0000 0.68700  0.02630  0.79450  Biso   1.000  H
  N14      1.0000 0.78520  0.03620  0.83030  Biso   1.000  N
  H299     1.0000 0.81400  0.03970  0.82120  Biso   1.000  H
  C290     1.0000 0.76400  0.06270  0.86560  Biso   1.000  C
  O97      1.0000 0.72900  0.08700  0.85600  Biso   1.000  O
  O98      1.0000 0.77200  0.05100  0.91220  Biso   1.000  O
  C291     1.0000 0.82100  0.03450  0.91620  Biso   1.000  C
  C292     1.0000 0.84170  0.05180  0.96240  Biso   1.000  C
  H300     1.0000 0.82330  0.03980  0.98820  Biso   1.000  H
  H301     1.0000 0.84120  0.08560  0.96300  Biso   1.000  H
  H302     1.0000 0.87360  0.04090  0.96530  Biso   1.000  H
  C293     1.0000 0.84940  0.05540  0.87590  Biso   1.000  C
  H303     1.0000 0.83000  0.07710  0.85860  Biso   1.000  H
  H304     1.0000 0.85960  0.03050  0.85530  Biso   1.000  H
  H305     1.0000 0.87640  0.07160  0.88830  Biso   1.000  H
  C294     1.0000 0.82520  0.98120  0.91440  Biso   1.000  C
  H306     1.0000 0.80640  0.96760  0.93910  Biso   1.000  H
  H307     1.0000 0.85760  0.97230  0.91860  Biso   1.000  H
  H308     1.0000 0.81420  0.97010  0.88440  Biso   1.000  H
  O99      1.0000 0.33370  0.73150  0.45270  Biso   1.000  O
  O100     1.0000 0.27850  0.78780  0.45250  Biso   1.000  O
  O101     1.0000 0.45240  0.73440  0.33430  Biso   1.000  O
  O102     1.0000 0.45210  0.78850  0.27800  Biso   1.000  O
  C295     1.0000 0.31400  0.76770  0.43770  Biso   1.000  C
  C296     1.0000 0.43420  0.76670  0.31120  Biso   1.000  C
  C297     1.0000 0.33530  0.79130  0.39490  Biso   1.000  C
  C298     1.0000 0.31400  0.82870  0.37370  Biso   1.000  C
  H309     1.0000 0.28630  0.84120  0.38620  Biso   1.000  H
  C299     1.0000 0.33310  0.84800  0.33410  Biso   1.000  C
  C300     1.0000 0.37360  0.82980  0.31570  Biso   1.000  C
  H310     1.0000 0.38670  0.84300  0.28860  Biso   1.000  H
  C301     1.0000 0.39490  0.79240  0.33690  Biso   1.000  C
  C302     1.0000 0.37580  0.77310  0.37650  Biso   1.000  C
  H311     1.0000 0.39040  0.74750  0.39100  Biso   1.000  H
  C303     1.0000 0.26320  0.95830  0.26170  Biso   1.000  C
  C304     1.0000 0.23880  0.92960  0.29150  Biso   1.000  C
  H312     1.0000 0.20660  0.93430  0.29610  Biso   1.000  H
  C305     1.0000 0.26140  0.89410  0.31460  Biso   1.000  C
  H313     1.0000 0.24470  0.87450  0.33490  Biso   1.000  H
  C306     1.0000 0.30850  0.88720  0.30780  Biso   1.000  C
  C307     1.0000 0.33290  0.91590  0.27810  Biso   1.000  C
  H314     1.0000 0.36510  0.91130  0.27350  Biso   1.000  H
  C308     1.0000 0.31030  0.95150  0.25500  Biso   1.000  C
  H315     1.0000 0.32700  0.97110  0.23470  Biso   1.000  H
  O103     1.0000 0.19260  0.99930  0.25070  Biso   1.000  O
  H316     1.0000 0.18810  0.99930  0.27840  Biso   1.000  H
  C309     1.0000 0.24740  0.00200  0.18910  Biso   1.000  C
  H317     1.0000 0.24040  0.97090  0.17570  Biso   1.000  H
  C310     1.0000 0.29750  0.01500  0.17760  Biso   1.000  C
  H318     1.0000 0.29780  0.03930  0.15400  Biso   1.000  H
  H319     1.0000 0.31390  0.98780  0.16590  Biso   1.000  H
  H320     1.0000 0.31300  0.02630  0.20550  Biso   1.000  H
  N15      1.0000 0.21480  0.03620  0.16970  Biso   1.000  N
  H321     1.0000 0.18600  0.03970  0.17880  Biso   1.000  H
  C311     1.0000 0.23600  0.06270  0.13440  Biso   1.000  C
  O104     1.0000 0.27100  0.08700  0.14400  Biso   1.000  O
  O105     1.0000 0.22800  0.05100  0.08780  Biso   1.000  O
  C312     1.0000 0.17900  0.03450  0.08380  Biso   1.000  C
  C313     1.0000 0.15830  0.05180  0.03760  Biso   1.000  C
  H322     1.0000 0.17670  0.03980  0.01180  Biso   1.000  H
  H323     1.0000 0.15880  0.08560  0.03700  Biso   1.000  H
  H324     1.0000 0.12640  0.04090  0.03470  Biso   1.000  H
  C314     1.0000 0.15060  0.05540  0.12410  Biso   1.000  C
  H325     1.0000 0.17000  0.07710  0.14140  Biso   1.000  H
  H326     1.0000 0.14040  0.03050  0.14470  Biso   1.000  H
  H327     1.0000 0.12360  0.07160  0.11170  Biso   1.000  H
  C315     1.0000 0.17480  0.98120  0.08560  Biso   1.000  C
  H328     1.0000 0.19360  0.96760  0.06090  Biso   1.000  H
  H329     1.0000 0.14240  0.97230  0.08140  Biso   1.000  H
  H330     1.0000 0.18580  0.97010  0.11560  Biso   1.000  H
  O106     1.0000 0.66630  0.26850  0.45270  Biso   1.000  O
  O107     1.0000 0.72150  0.21220  0.45250  Biso   1.000  O
  O108     1.0000 0.54760  0.26560  0.33430  Biso   1.000  O
  O109     1.0000 0.54790  0.21150  0.27800  Biso   1.000  O
  C316     1.0000 0.68600  0.23230  0.43770  Biso   1.000  C
  C317     1.0000 0.56580  0.23330  0.31120  Biso   1.000  C
  C318     1.0000 0.66470  0.20870  0.39490  Biso   1.000  C
  C319     1.0000 0.68600  0.17130  0.37370  Biso   1.000  C
  H331     1.0000 0.71370  0.15880  0.38620  Biso   1.000  H
  C320     1.0000 0.66690  0.15200  0.33410  Biso   1.000  C
  C321     1.0000 0.62640  0.17020  0.31570  Biso   1.000  C
  H332     1.0000 0.61330  0.15700  0.28860  Biso   1.000  H
  C322     1.0000 0.60510  0.20760  0.33690  Biso   1.000  C
  C323     1.0000 0.62420  0.22690  0.37650  Biso   1.000  C
  H333     1.0000 0.60960  0.25250  0.39100  Biso   1.000  H
  C324     1.0000 0.73680  0.04170  0.26170  Biso   1.000  C
  C325     1.0000 0.76120  0.07040  0.29150  Biso   1.000  C
  H334     1.0000 0.79340  0.06570  0.29610  Biso   1.000  H
  C326     1.0000 0.73860  0.10590  0.31460  Biso   1.000  C
  H335     1.0000 0.75530  0.12550  0.33490  Biso   1.000  H
  C327     1.0000 0.69150  0.11280  0.30780  Biso   1.000  C
  C328     1.0000 0.66710  0.08410  0.27810  Biso   1.000  C
  H336     1.0000 0.63490  0.08870  0.27350  Biso   1.000  H
  C329     1.0000 0.68970  0.04850  0.25500  Biso   1.000  C
  H337     1.0000 0.67300  0.02890  0.23470  Biso   1.000  H
  O110     1.0000 0.80740  0.00070  0.25070  Biso   1.000  O
  H338     1.0000 0.81190  0.00070  0.27840  Biso   1.000  H
  C330     1.0000 0.75260  0.99800  0.18910  Biso   1.000  C
  H339     1.0000 0.75960  0.02910  0.17570  Biso   1.000  H
  C331     1.0000 0.70250  0.98500  0.17760  Biso   1.000  C
  H340     1.0000 0.70220  0.96070  0.15400  Biso   1.000  H
  H341     1.0000 0.68610  0.01220  0.16590  Biso   1.000  H
  H342     1.0000 0.68700  0.97370  0.20550  Biso   1.000  H
  N16      1.0000 0.78520  0.96380  0.16970  Biso   1.000  N
  H343     1.0000 0.81400  0.96030  0.17880  Biso   1.000  H
  C332     1.0000 0.76400  0.93730  0.13440  Biso   1.000  C
  O111     1.0000 0.72900  0.91300  0.14400  Biso   1.000  O
  O112     1.0000 0.77200  0.94900  0.08780  Biso   1.000  O
  C333     1.0000 0.82100  0.96550  0.08380  Biso   1.000  C
  C334     1.0000 0.84170  0.94820  0.03760  Biso   1.000  C
  H344     1.0000 0.82330  0.96020  0.01180  Biso   1.000  H
  H345     1.0000 0.84120  0.91440  0.03700  Biso   1.000  H
  H346     1.0000 0.87360  0.95910  0.03470  Biso   1.000  H
  C335     1.0000 0.84940  0.94460  0.12410  Biso   1.000  C
  H347     1.0000 0.83000  0.92290  0.14140  Biso   1.000  H
  H348     1.0000 0.85960  0.96950  0.14470  Biso   1.000  H
  H349     1.0000 0.87640  0.92840  0.11170  Biso   1.000  H
  C336     1.0000 0.82520  0.01880  0.08560  Biso   1.000  C
  H350     1.0000 0.80640  0.03240  0.06090  Biso   1.000  H
  H351     1.0000 0.85760  0.02770  0.08140  Biso   1.000  H
  H352     1.0000 0.81420  0.02990  0.11560  Biso   1.000  H
  O113     1.0000 0.26850  0.45270  0.66630  Biso   1.000  O
  O114     1.0000 0.21220  0.45250  0.72150  Biso   1.000  O
  O115     1.0000 0.26560  0.33430  0.54760  Biso   1.000  O
  O116     1.0000 0.21150  0.27800  0.54790  Biso   1.000  O
  C337     1.0000 0.23230  0.43770  0.68600  Biso   1.000  C
  C338     1.0000 0.23330  0.31120  0.56580  Biso   1.000  C
  C339     1.0000 0.20870  0.39490  0.66470  Biso   1.000  C
  C340     1.0000 0.17130  0.37370  0.68600  Biso   1.000  C
  H353     1.0000 0.15880  0.38620  0.71370  Biso   1.000  H
  C341     1.0000 0.15200  0.33410  0.66690  Biso   1.000  C
  C342     1.0000 0.17020  0.31570  0.62640  Biso   1.000  C
  H354     1.0000 0.15700  0.28860  0.61330  Biso   1.000  H
  C343     1.0000 0.20760  0.33690  0.60510  Biso   1.000  C
  C344     1.0000 0.22690  0.37650  0.62420  Biso   1.000  C
  H355     1.0000 0.25250  0.39100  0.60960  Biso   1.000  H
  C345     1.0000 0.04170  0.26170  0.73680  Biso   1.000  C
  C346     1.0000 0.07040  0.29150  0.76120  Biso   1.000  C
  H356     1.0000 0.06570  0.29610  0.79340  Biso   1.000  H
  C347     1.0000 0.10590  0.31460  0.73860  Biso   1.000  C
  H357     1.0000 0.12550  0.33490  0.75530  Biso   1.000  H
  C348     1.0000 0.11280  0.30780  0.69150  Biso   1.000  C
  C349     1.0000 0.08410  0.27810  0.66710  Biso   1.000  C
  H358     1.0000 0.08870  0.27350  0.63490  Biso   1.000  H
  C350     1.0000 0.04850  0.25500  0.68970  Biso   1.000  C
  H359     1.0000 0.02890  0.23470  0.67300  Biso   1.000  H
  O117     1.0000 0.00070  0.25070  0.80740  Biso   1.000  O
  H360     1.0000 0.00070  0.27840  0.81190  Biso   1.000  H
  C351     1.0000 0.99800  0.18910  0.75260  Biso   1.000  C
  H361     1.0000 0.02910  0.17570  0.75960  Biso   1.000  H
  C352     1.0000 0.98500  0.17760  0.70250  Biso   1.000  C
  H362     1.0000 0.96070  0.15400  0.70220  Biso   1.000  H
  H363     1.0000 0.01220  0.16590  0.68610  Biso   1.000  H
  H364     1.0000 0.97370  0.20550  0.68700  Biso   1.000  H
  N17      1.0000 0.96380  0.16970  0.78520  Biso   1.000  N
  H365     1.0000 0.96030  0.17880  0.81400  Biso   1.000  H
  C353     1.0000 0.93730  0.13440  0.76400  Biso   1.000  C
  O118     1.0000 0.91300  0.14400  0.72900  Biso   1.000  O
  O119     1.0000 0.94900  0.08780  0.77200  Biso   1.000  O
  C354     1.0000 0.96550  0.08380  0.82100  Biso   1.000  C
  C355     1.0000 0.94820  0.03760  0.84170  Biso   1.000  C
  H366     1.0000 0.96020  0.01180  0.82330  Biso   1.000  H
  H367     1.0000 0.91440  0.03700  0.84120  Biso   1.000  H
  H368     1.0000 0.95910  0.03470  0.87360  Biso   1.000  H
  C356     1.0000 0.94460  0.12410  0.84940  Biso   1.000  C
  H369     1.0000 0.92290  0.14140  0.83000  Biso   1.000  H
  H370     1.0000 0.96950  0.14470  0.85960  Biso   1.000  H
  H371     1.0000 0.92840  0.11170  0.87640  Biso   1.000  H
  C357     1.0000 0.01880  0.08560  0.82520  Biso   1.000  C
  H372     1.0000 0.03240  0.06090  0.80640  Biso   1.000  H
  H373     1.0000 0.02770  0.08140  0.85760  Biso   1.000  H
  H374     1.0000 0.02990  0.11560  0.81420  Biso   1.000  H
  O120     1.0000 0.73150  0.45270  0.33370  Biso   1.000  O
  O121     1.0000 0.78780  0.45250  0.27850  Biso   1.000  O
  O122     1.0000 0.73440  0.33430  0.45240  Biso   1.000  O
  O123     1.0000 0.78850  0.27800  0.45210  Biso   1.000  O
  C358     1.0000 0.76770  0.43770  0.31400  Biso   1.000  C
  C359     1.0000 0.76670  0.31120  0.43420  Biso   1.000  C
  C360     1.0000 0.79130  0.39490  0.33530  Biso   1.000  C
  C361     1.0000 0.82870  0.37370  0.31400  Biso   1.000  C
  H375     1.0000 0.84120  0.38620  0.28630  Biso   1.000  H
  C362     1.0000 0.84800  0.33410  0.33310  Biso   1.000  C
  C363     1.0000 0.82980  0.31570  0.37360  Biso   1.000  C
  H376     1.0000 0.84300  0.28860  0.38670  Biso   1.000  H
  C364     1.0000 0.79240  0.33690  0.39490  Biso   1.000  C
  C365     1.0000 0.77310  0.37650  0.37580  Biso   1.000  C
  H377     1.0000 0.74750  0.39100  0.39040  Biso   1.000  H
  C366     1.0000 0.95830  0.26170  0.26320  Biso   1.000  C
  C367     1.0000 0.92960  0.29150  0.23880  Biso   1.000  C
  H378     1.0000 0.93430  0.29610  0.20660  Biso   1.000  H
  C368     1.0000 0.89410  0.31460  0.26140  Biso   1.000  C
  H379     1.0000 0.87450  0.33490  0.24470  Biso   1.000  H
  C369     1.0000 0.88720  0.30780  0.30850  Biso   1.000  C
  C370     1.0000 0.91590  0.27810  0.33290  Biso   1.000  C
  H380     1.0000 0.91130  0.27350  0.36510  Biso   1.000  H
  C371     1.0000 0.95150  0.25500  0.31030  Biso   1.000  C
  H381     1.0000 0.97110  0.23470  0.32700  Biso   1.000  H
  O124     1.0000 0.99930  0.25070  0.19260  Biso   1.000  O
  H382     1.0000 0.99930  0.27840  0.18810  Biso   1.000  H
  C372     1.0000 0.00200  0.18910  0.24740  Biso   1.000  C
  H383     1.0000 0.97090  0.17570  0.24040  Biso   1.000  H
  C373     1.0000 0.01500  0.17760  0.29750  Biso   1.000  C
  H384     1.0000 0.03930  0.15400  0.29780  Biso   1.000  H
  H385     1.0000 0.98780  0.16590  0.31390  Biso   1.000  H
  H386     1.0000 0.02630  0.20550  0.31300  Biso   1.000  H
  N18      1.0000 0.03620  0.16970  0.21480  Biso   1.000  N
  H387     1.0000 0.03970  0.17880  0.18600  Biso   1.000  H
  C374     1.0000 0.06270  0.13440  0.23600  Biso   1.000  C
  O125     1.0000 0.08700  0.14400  0.27100  Biso   1.000  O
  O126     1.0000 0.05100  0.08780  0.22800  Biso   1.000  O
  C375     1.0000 0.03450  0.08380  0.17900  Biso   1.000  C
  C376     1.0000 0.05180  0.03760  0.15830  Biso   1.000  C
  H388     1.0000 0.03980  0.01180  0.17670  Biso   1.000  H
  H389     1.0000 0.08560  0.03700  0.15880  Biso   1.000  H
  H390     1.0000 0.04090  0.03470  0.12640  Biso   1.000  H
  C377     1.0000 0.05540  0.12410  0.15060  Biso   1.000  C
  H391     1.0000 0.07710  0.14140  0.17000  Biso   1.000  H
  H392     1.0000 0.03050  0.14470  0.14040  Biso   1.000  H
  H393     1.0000 0.07160  0.11170  0.12360  Biso   1.000  H
  C378     1.0000 0.98120  0.08560  0.17480  Biso   1.000  C
  H394     1.0000 0.96760  0.06090  0.19360  Biso   1.000  H
  H395     1.0000 0.97230  0.08140  0.14240  Biso   1.000  H
  H396     1.0000 0.97010  0.11560  0.18580  Biso   1.000  H
  O127     1.0000 0.73150  0.54730  0.66630  Biso   1.000  O
  O128     1.0000 0.78780  0.54750  0.72150  Biso   1.000  O
  O129     1.0000 0.73440  0.66570  0.54760  Biso   1.000  O
  O130     1.0000 0.78850  0.72200  0.54790  Biso   1.000  O
  C379     1.0000 0.76770  0.56230  0.68600  Biso   1.000  C
  C380     1.0000 0.76670  0.68880  0.56580  Biso   1.000  C
  C381     1.0000 0.79130  0.60510  0.66470  Biso   1.000  C
  C382     1.0000 0.82870  0.62630  0.68600  Biso   1.000  C
  H397     1.0000 0.84120  0.61380  0.71370  Biso   1.000  H
  C383     1.0000 0.84800  0.66590  0.66690  Biso   1.000  C
  C384     1.0000 0.82980  0.68430  0.62640  Biso   1.000  C
  H398     1.0000 0.84300  0.71140  0.61330  Biso   1.000  H
  C385     1.0000 0.79240  0.66310  0.60510  Biso   1.000  C
  C386     1.0000 0.77310  0.62350  0.62420  Biso   1.000  C
  H399     1.0000 0.74750  0.60900  0.60960  Biso   1.000  H
  C387     1.0000 0.95830  0.73830  0.73680  Biso   1.000  C
  C388     1.0000 0.92960  0.70850  0.76120  Biso   1.000  C
  H400     1.0000 0.93430  0.70390  0.79340  Biso   1.000  H
  C389     1.0000 0.89410  0.68540  0.73860  Biso   1.000  C
  H401     1.0000 0.87450  0.66510  0.75530  Biso   1.000  H
  C390     1.0000 0.88720  0.69220  0.69150  Biso   1.000  C
  C391     1.0000 0.91590  0.72190  0.66710  Biso   1.000  C
  H402     1.0000 0.91130  0.72650  0.63490  Biso   1.000  H
  C392     1.0000 0.95150  0.74500  0.68970  Biso   1.000  C
  H403     1.0000 0.97110  0.76530  0.67300  Biso   1.000  H
  O131     1.0000 0.99930  0.74930  0.80740  Biso   1.000  O
  H404     1.0000 0.99930  0.72160  0.81190  Biso   1.000  H
  C393     1.0000 0.00200  0.81090  0.75260  Biso   1.000  C
  H405     1.0000 0.97090  0.82430  0.75960  Biso   1.000  H
  C394     1.0000 0.01500  0.82240  0.70250  Biso   1.000  C
  H406     1.0000 0.03930  0.84600  0.70220  Biso   1.000  H
  H407     1.0000 0.98780  0.83410  0.68610  Biso   1.000  H
  H408     1.0000 0.02630  0.79450  0.68700  Biso   1.000  H
  N19      1.0000 0.03620  0.83030  0.78520  Biso   1.000  N
  H409     1.0000 0.03970  0.82120  0.81400  Biso   1.000  H
  C395     1.0000 0.06270  0.86560  0.76400  Biso   1.000  C
  O132     1.0000 0.08700  0.85600  0.72900  Biso   1.000  O
  O133     1.0000 0.05100  0.91220  0.77200  Biso   1.000  O
  C396     1.0000 0.03450  0.91620  0.82100  Biso   1.000  C
  C397     1.0000 0.05180  0.96240  0.84170  Biso   1.000  C
  H410     1.0000 0.03980  0.98820  0.82330  Biso   1.000  H
  H411     1.0000 0.08560  0.96300  0.84120  Biso   1.000  H
  H412     1.0000 0.04090  0.96530  0.87360  Biso   1.000  H
  C398     1.0000 0.05540  0.87590  0.84940  Biso   1.000  C
  H413     1.0000 0.07710  0.85860  0.83000  Biso   1.000  H
  H414     1.0000 0.03050  0.85530  0.85960  Biso   1.000  H
  H415     1.0000 0.07160  0.88830  0.87640  Biso   1.000  H
  C399     1.0000 0.98120  0.91440  0.82520  Biso   1.000  C
  H416     1.0000 0.96760  0.93910  0.80640  Biso   1.000  H
  H417     1.0000 0.97230  0.91860  0.85760  Biso   1.000  H
  H418     1.0000 0.97010  0.88440  0.81420  Biso   1.000  H
  O134     1.0000 0.26850  0.54730  0.33370  Biso   1.000  O
  O135     1.0000 0.21220  0.54750  0.27850  Biso   1.000  O
  O136     1.0000 0.26560  0.66570  0.45240  Biso   1.000  O
  O137     1.0000 0.21150  0.72200  0.45210  Biso   1.000  O
  C400     1.0000 0.23230  0.56230  0.31400  Biso   1.000  C
  C401     1.0000 0.23330  0.68880  0.43420  Biso   1.000  C
  C402     1.0000 0.20870  0.60510  0.33530  Biso   1.000  C
  C403     1.0000 0.17130  0.62630  0.31400  Biso   1.000  C
  H419     1.0000 0.15880  0.61380  0.28630  Biso   1.000  H
  C404     1.0000 0.15200  0.66590  0.33310  Biso   1.000  C
  C405     1.0000 0.17020  0.68430  0.37360  Biso   1.000  C
  H420     1.0000 0.15700  0.71140  0.38670  Biso   1.000  H
  C406     1.0000 0.20760  0.66310  0.39490  Biso   1.000  C
  C407     1.0000 0.22690  0.62350  0.37580  Biso   1.000  C
  H421     1.0000 0.25250  0.60900  0.39040  Biso   1.000  H
  C408     1.0000 0.04170  0.73830  0.26320  Biso   1.000  C
  C409     1.0000 0.07040  0.70850  0.23880  Biso   1.000  C
  H422     1.0000 0.06570  0.70390  0.20660  Biso   1.000  H
  C410     1.0000 0.10590  0.68540  0.26140  Biso   1.000  C
  H423     1.0000 0.12550  0.66510  0.24470  Biso   1.000  H
  C411     1.0000 0.11280  0.69220  0.30850  Biso   1.000  C
  C412     1.0000 0.08410  0.72190  0.33290  Biso   1.000  C
  H424     1.0000 0.08870  0.72650  0.36510  Biso   1.000  H
  C413     1.0000 0.04850  0.74500  0.31030  Biso   1.000  C
  H425     1.0000 0.02890  0.76530  0.32700  Biso   1.000  H
  O138     1.0000 0.00070  0.74930  0.19260  Biso   1.000  O
  H426     1.0000 0.00070  0.72160  0.18810  Biso   1.000  H
  C414     1.0000 0.99800  0.81090  0.24740  Biso   1.000  C
  H427     1.0000 0.02910  0.82430  0.24040  Biso   1.000  H
  C415     1.0000 0.98500  0.82240  0.29750  Biso   1.000  C
  H428     1.0000 0.96070  0.84600  0.29780  Biso   1.000  H
  H429     1.0000 0.01220  0.83410  0.31390  Biso   1.000  H
  H430     1.0000 0.97370  0.79450  0.31300  Biso   1.000  H
  N20      1.0000 0.96380  0.83030  0.21480  Biso   1.000  N
  H431     1.0000 0.96030  0.82120  0.18600  Biso   1.000  H
  C416     1.0000 0.93730  0.86560  0.23600  Biso   1.000  C
  O139     1.0000 0.91300  0.85600  0.27100  Biso   1.000  O
  O140     1.0000 0.94900  0.91220  0.22800  Biso   1.000  O
  C417     1.0000 0.96550  0.91620  0.17900  Biso   1.000  C
  C418     1.0000 0.94820  0.96240  0.15830  Biso   1.000  C
  H432     1.0000 0.96020  0.98820  0.17670  Biso   1.000  H
  H433     1.0000 0.91440  0.96300  0.15880  Biso   1.000  H
  H434     1.0000 0.95910  0.96530  0.12640  Biso   1.000  H
  C419     1.0000 0.94460  0.87590  0.15060  Biso   1.000  C
  H435     1.0000 0.92290  0.85860  0.17000  Biso   1.000  H
  H436     1.0000 0.96950  0.85530  0.14040  Biso   1.000  H
  H437     1.0000 0.92840  0.88830  0.12360  Biso   1.000  H
  C420     1.0000 0.01880  0.91440  0.17480  Biso   1.000  C
  H438     1.0000 0.03240  0.93910  0.19360  Biso   1.000  H
  H439     1.0000 0.02770  0.91860  0.14240  Biso   1.000  H
  H440     1.0000 0.02990  0.88440  0.18580  Biso   1.000  H
  O141     1.0000 0.45270  0.33370  0.73150  Biso   1.000  O
  O142     1.0000 0.45250  0.27850  0.78780  Biso   1.000  O
  O143     1.0000 0.33430  0.45240  0.73440  Biso   1.000  O
  O144     1.0000 0.27800  0.45210  0.78850  Biso   1.000  O
  C421     1.0000 0.43770  0.31400  0.76770  Biso   1.000  C
  C422     1.0000 0.31120  0.43420  0.76670  Biso   1.000  C
  C423     1.0000 0.39490  0.33530  0.79130  Biso   1.000  C
  C424     1.0000 0.37370  0.31400  0.82870  Biso   1.000  C
  H441     1.0000 0.38620  0.28630  0.84120  Biso   1.000  H
  C425     1.0000 0.33410  0.33310  0.84800  Biso   1.000  C
  C426     1.0000 0.31570  0.37360  0.82980  Biso   1.000  C
  H442     1.0000 0.28860  0.38670  0.84300  Biso   1.000  H
  C427     1.0000 0.33690  0.39490  0.79240  Biso   1.000  C
  C428     1.0000 0.37650  0.37580  0.77310  Biso   1.000  C
  H443     1.0000 0.39100  0.39040  0.74750  Biso   1.000  H
  C429     1.0000 0.26170  0.26320  0.95830  Biso   1.000  C
  C430     1.0000 0.29150  0.23880  0.92960  Biso   1.000  C
  H444     1.0000 0.29610  0.20660  0.93430  Biso   1.000  H
  C431     1.0000 0.31460  0.26140  0.89410  Biso   1.000  C
  H445     1.0000 0.33490  0.24470  0.87450  Biso   1.000  H
  C432     1.0000 0.30780  0.30850  0.88720  Biso   1.000  C
  C433     1.0000 0.27810  0.33290  0.91590  Biso   1.000  C
  H446     1.0000 0.27350  0.36510  0.91130  Biso   1.000  H
  C434     1.0000 0.25500  0.31030  0.95150  Biso   1.000  C
  H447     1.0000 0.23470  0.32700  0.97110  Biso   1.000  H
  O145     1.0000 0.25070  0.19260  0.99930  Biso   1.000  O
  H448     1.0000 0.27840  0.18810  0.99930  Biso   1.000  H
  C435     1.0000 0.18910  0.24740  0.00200  Biso   1.000  C
  H449     1.0000 0.17570  0.24040  0.97090  Biso   1.000  H
  C436     1.0000 0.17760  0.29750  0.01500  Biso   1.000  C
  H450     1.0000 0.15400  0.29780  0.03930  Biso   1.000  H
  H451     1.0000 0.16590  0.31390  0.98780  Biso   1.000  H
  H452     1.0000 0.20550  0.31300  0.02630  Biso   1.000  H
  N21      1.0000 0.16970  0.21480  0.03620  Biso   1.000  N
  H453     1.0000 0.17880  0.18600  0.03970  Biso   1.000  H
  C437     1.0000 0.13440  0.23600  0.06270  Biso   1.000  C
  O146     1.0000 0.14400  0.27100  0.08700  Biso   1.000  O
  O147     1.0000 0.08780  0.22800  0.05100  Biso   1.000  O
  C438     1.0000 0.08380  0.17900  0.03450  Biso   1.000  C
  C439     1.0000 0.03760  0.15830  0.05180  Biso   1.000  C
  H454     1.0000 0.01180  0.17670  0.03980  Biso   1.000  H
  H455     1.0000 0.03700  0.15880  0.08560  Biso   1.000  H
  H456     1.0000 0.03470  0.12640  0.04090  Biso   1.000  H
  C440     1.0000 0.12410  0.15060  0.05540  Biso   1.000  C
  H457     1.0000 0.14140  0.17000  0.07710  Biso   1.000  H
  H458     1.0000 0.14470  0.14040  0.03050  Biso   1.000  H
  H459     1.0000 0.11170  0.12360  0.07160  Biso   1.000  H
  C441     1.0000 0.08560  0.17480  0.98120  Biso   1.000  C
  H460     1.0000 0.06090  0.19360  0.96760  Biso   1.000  H
  H461     1.0000 0.08140  0.14240  0.97230  Biso   1.000  H
  H462     1.0000 0.11560  0.18580  0.97010  Biso   1.000  H
  O148     1.0000 0.45270  0.66630  0.26850  Biso   1.000  O
  O149     1.0000 0.45250  0.72150  0.21220  Biso   1.000  O
  O150     1.0000 0.33430  0.54760  0.26560  Biso   1.000  O
  O151     1.0000 0.27800  0.54790  0.21150  Biso   1.000  O
  C442     1.0000 0.43770  0.68600  0.23230  Biso   1.000  C
  C443     1.0000 0.31120  0.56580  0.23330  Biso   1.000  C
  C444     1.0000 0.39490  0.66470  0.20870  Biso   1.000  C
  C445     1.0000 0.37370  0.68600  0.17130  Biso   1.000  C
  H463     1.0000 0.38620  0.71370  0.15880  Biso   1.000  H
  C446     1.0000 0.33410  0.66690  0.15200  Biso   1.000  C
  C447     1.0000 0.31570  0.62640  0.17020  Biso   1.000  C
  H464     1.0000 0.28860  0.61330  0.15700  Biso   1.000  H
  C448     1.0000 0.33690  0.60510  0.20760  Biso   1.000  C
  C449     1.0000 0.37650  0.62420  0.22690  Biso   1.000  C
  H465     1.0000 0.39100  0.60960  0.25250  Biso   1.000  H
  C450     1.0000 0.26170  0.73680  0.04170  Biso   1.000  C
  C451     1.0000 0.29150  0.76120  0.07040  Biso   1.000  C
  H466     1.0000 0.29610  0.79340  0.06570  Biso   1.000  H
  C452     1.0000 0.31460  0.73860  0.10590  Biso   1.000  C
  H467     1.0000 0.33490  0.75530  0.12550  Biso   1.000  H
  C453     1.0000 0.30780  0.69150  0.11280  Biso   1.000  C
  C454     1.0000 0.27810  0.66710  0.08410  Biso   1.000  C
  H468     1.0000 0.27350  0.63490  0.08870  Biso   1.000  H
  C455     1.0000 0.25500  0.68970  0.04850  Biso   1.000  C
  H469     1.0000 0.23470  0.67300  0.02890  Biso   1.000  H
  O152     1.0000 0.25070  0.80740  0.00070  Biso   1.000  O
  H470     1.0000 0.27840  0.81190  0.00070  Biso   1.000  H
  C456     1.0000 0.18910  0.75260  0.99800  Biso   1.000  C
  H471     1.0000 0.17570  0.75960  0.02910  Biso   1.000  H
  C457     1.0000 0.17760  0.70250  0.98500  Biso   1.000  C
  H472     1.0000 0.15400  0.70220  0.96070  Biso   1.000  H
  H473     1.0000 0.16590  0.68610  0.01220  Biso   1.000  H
  H474     1.0000 0.20550  0.68700  0.97370  Biso   1.000  H
  N22      1.0000 0.16970  0.78520  0.96380  Biso   1.000  N
  H475     1.0000 0.17880  0.81400  0.96030  Biso   1.000  H
  C458     1.0000 0.13440  0.76400  0.93730  Biso   1.000  C
  O153     1.0000 0.14400  0.72900  0.91300  Biso   1.000  O
  O154     1.0000 0.08780  0.77200  0.94900  Biso   1.000  O
  C459     1.0000 0.08380  0.82100  0.96550  Biso   1.000  C
  C460     1.0000 0.03760  0.84170  0.94820  Biso   1.000  C
  H476     1.0000 0.01180  0.82330  0.96020  Biso   1.000  H
  H477     1.0000 0.03700  0.84120  0.91440  Biso   1.000  H
  H478     1.0000 0.03470  0.87360  0.95910  Biso   1.000  H
  C461     1.0000 0.12410  0.84940  0.94460  Biso   1.000  C
  H479     1.0000 0.14140  0.83000  0.92290  Biso   1.000  H
  H480     1.0000 0.14470  0.85960  0.96950  Biso   1.000  H
  H481     1.0000 0.11170  0.87640  0.92840  Biso   1.000  H
  C462     1.0000 0.08560  0.82520  0.01880  Biso   1.000  C
  H482     1.0000 0.06090  0.80640  0.03240  Biso   1.000  H
  H483     1.0000 0.08140  0.85760  0.02770  Biso   1.000  H
  H484     1.0000 0.11560  0.81420  0.02990  Biso   1.000  H
  O155     1.0000 0.54730  0.33370  0.26850  Biso   1.000  O
  O156     1.0000 0.54750  0.27850  0.21220  Biso   1.000  O
  O157     1.0000 0.66570  0.45240  0.26560  Biso   1.000  O
  O158     1.0000 0.72200  0.45210  0.21150  Biso   1.000  O
  C463     1.0000 0.56230  0.31400  0.23230  Biso   1.000  C
  C464     1.0000 0.68880  0.43420  0.23330  Biso   1.000  C
  C465     1.0000 0.60510  0.33530  0.20870  Biso   1.000  C
  C466     1.0000 0.62630  0.31400  0.17130  Biso   1.000  C
  H485     1.0000 0.61380  0.28630  0.15880  Biso   1.000  H
  C467     1.0000 0.66590  0.33310  0.15200  Biso   1.000  C
  C468     1.0000 0.68430  0.37360  0.17020  Biso   1.000  C
  H486     1.0000 0.71140  0.38670  0.15700  Biso   1.000  H
  C469     1.0000 0.66310  0.39490  0.20760  Biso   1.000  C
  C470     1.0000 0.62350  0.37580  0.22690  Biso   1.000  C
  H487     1.0000 0.60900  0.39040  0.25250  Biso   1.000  H
  C471     1.0000 0.73830  0.26320  0.04170  Biso   1.000  C
  C472     1.0000 0.70850  0.23880  0.07040  Biso   1.000  C
  H488     1.0000 0.70390  0.20660  0.06570  Biso   1.000  H
  C473     1.0000 0.68540  0.26140  0.10590  Biso   1.000  C
  H489     1.0000 0.66510  0.24470  0.12550  Biso   1.000  H
  C474     1.0000 0.69220  0.30850  0.11280  Biso   1.000  C
  C475     1.0000 0.72190  0.33290  0.08410  Biso   1.000  C
  H490     1.0000 0.72650  0.36510  0.08870  Biso   1.000  H
  C476     1.0000 0.74500  0.31030  0.04850  Biso   1.000  C
  H491     1.0000 0.76530  0.32700  0.02890  Biso   1.000  H
  O159     1.0000 0.74930  0.19260  0.00070  Biso   1.000  O
  H492     1.0000 0.72160  0.18810  0.00070  Biso   1.000  H
  C477     1.0000 0.81090  0.24740  0.99800  Biso   1.000  C
  H493     1.0000 0.82430  0.24040  0.02910  Biso   1.000  H
  C478     1.0000 0.82240  0.29750  0.98500  Biso   1.000  C
  H494     1.0000 0.84600  0.29780  0.96070  Biso   1.000  H
  H495     1.0000 0.83410  0.31390  0.01220  Biso   1.000  H
  H496     1.0000 0.79450  0.31300  0.97370  Biso   1.000  H
  N23      1.0000 0.83030  0.21480  0.96380  Biso   1.000  N
  H497     1.0000 0.82120  0.18600  0.96030  Biso   1.000  H
  C479     1.0000 0.86560  0.23600  0.93730  Biso   1.000  C
  O160     1.0000 0.85600  0.27100  0.91300  Biso   1.000  O
  O161     1.0000 0.91220  0.22800  0.94900  Biso   1.000  O
  C480     1.0000 0.91620  0.17900  0.96550  Biso   1.000  C
  C481     1.0000 0.96240  0.15830  0.94820  Biso   1.000  C
  H498     1.0000 0.98820  0.17670  0.96020  Biso   1.000  H
  H499     1.0000 0.96300  0.15880  0.91440  Biso   1.000  H
  H500     1.0000 0.96530  0.12640  0.95910  Biso   1.000  H
  C482     1.0000 0.87590  0.15060  0.94460  Biso   1.000  C
  H501     1.0000 0.85860  0.17000  0.92290  Biso   1.000  H
  H502     1.0000 0.85530  0.14040  0.96950  Biso   1.000  H
  H503     1.0000 0.88830  0.12360  0.92840  Biso   1.000  H
  C483     1.0000 0.91440  0.17480  0.01880  Biso   1.000  C
  H504     1.0000 0.93910  0.19360  0.03240  Biso   1.000  H
  H505     1.0000 0.91860  0.14240  0.02770  Biso   1.000  H
  H506     1.0000 0.88440  0.18580  0.02990  Biso   1.000  H
  O162     1.0000 0.54730  0.66630  0.73150  Biso   1.000  O
  O163     1.0000 0.54750  0.72150  0.78780  Biso   1.000  O
  O164     1.0000 0.66570  0.54760  0.73440  Biso   1.000  O
  O165     1.0000 0.72200  0.54790  0.78850  Biso   1.000  O
  C484     1.0000 0.56230  0.68600  0.76770  Biso   1.000  C
  C485     1.0000 0.68880  0.56580  0.76670  Biso   1.000  C
  C486     1.0000 0.60510  0.66470  0.79130  Biso   1.000  C
  C487     1.0000 0.62630  0.68600  0.82870  Biso   1.000  C
  H507     1.0000 0.61380  0.71370  0.84120  Biso   1.000  H
  C488     1.0000 0.66590  0.66690  0.84800  Biso   1.000  C
  C489     1.0000 0.68430  0.62640  0.82980  Biso   1.000  C
  H508     1.0000 0.71140  0.61330  0.84300  Biso   1.000  H
  C490     1.0000 0.66310  0.60510  0.79240  Biso   1.000  C
  C491     1.0000 0.62350  0.62420  0.77310  Biso   1.000  C
  H509     1.0000 0.60900  0.60960  0.74750  Biso   1.000  H
  C492     1.0000 0.73830  0.73680  0.95830  Biso   1.000  C
  C493     1.0000 0.70850  0.76120  0.92960  Biso   1.000  C
  H510     1.0000 0.70390  0.79340  0.93430  Biso   1.000  H
  C494     1.0000 0.68540  0.73860  0.89410  Biso   1.000  C
  H511     1.0000 0.66510  0.75530  0.87450  Biso   1.000  H
  C495     1.0000 0.69220  0.69150  0.88720  Biso   1.000  C
  C496     1.0000 0.72190  0.66710  0.91590  Biso   1.000  C
  H512     1.0000 0.72650  0.63490  0.91130  Biso   1.000  H
  C497     1.0000 0.74500  0.68970  0.95150  Biso   1.000  C
  H513     1.0000 0.76530  0.67300  0.97110  Biso   1.000  H
  O166     1.0000 0.74930  0.80740  0.99930  Biso   1.000  O
  H514     1.0000 0.72160  0.81190  0.99930  Biso   1.000  H
  C498     1.0000 0.81090  0.75260  0.00200  Biso   1.000  C
  H515     1.0000 0.82430  0.75960  0.97090  Biso   1.000  H
  C499     1.0000 0.82240  0.70250  0.01500  Biso   1.000  C
  H516     1.0000 0.84600  0.70220  0.03930  Biso   1.000  H
  H517     1.0000 0.83410  0.68610  0.98780  Biso   1.000  H
  H518     1.0000 0.79450  0.68700  0.02630  Biso   1.000  H
  N24      1.0000 0.83030  0.78520  0.03620  Biso   1.000  N
  H519     1.0000 0.82120  0.81400  0.03970  Biso   1.000  H
  C500     1.0000 0.86560  0.76400  0.06270  Biso   1.000  C
  O167     1.0000 0.85600  0.72900  0.08700  Biso   1.000  O
  O168     1.0000 0.91220  0.77200  0.05100  Biso   1.000  O
  C501     1.0000 0.91620  0.82100  0.03450  Biso   1.000  C
  C502     1.0000 0.96240  0.84170  0.05180  Biso   1.000  C
  H520     1.0000 0.98820  0.82330  0.03980  Biso   1.000  H
  H521     1.0000 0.96300  0.84120  0.08560  Biso   1.000  H
  H522     1.0000 0.96530  0.87360  0.04090  Biso   1.000  H
  C503     1.0000 0.87590  0.84940  0.05540  Biso   1.000  C
  H523     1.0000 0.85860  0.83000  0.07710  Biso   1.000  H
  H524     1.0000 0.85530  0.85960  0.03050  Biso   1.000  H
  H525     1.0000 0.88830  0.87640  0.07160  Biso   1.000  H
  C504     1.0000 0.91440  0.82520  0.98120  Biso   1.000  C
  H526     1.0000 0.93910  0.80640  0.96760  Biso   1.000  H
  H527     1.0000 0.91860  0.85760  0.97230  Biso   1.000  H
  H528     1.0000 0.88440  0.81420  0.97010  Biso   1.000  H
  Cu1      1.0000 0.30540  0.30540  0.50000  Biso   1.000  Cu
  Cu2      1.0000 0.24039  0.24039  0.50000  Biso   1.000  Cu
  Cu3      1.0000 0.69460  0.69460  0.50000  Biso   1.000  Cu
  Cu4      1.0000 0.75961  0.75961  0.50000  Biso   1.000  Cu
  Cu5      1.0000 0.69460  0.30540  0.50000  Biso   1.000  Cu
  Cu6      1.0000 0.75961  0.24039  0.50000  Biso   1.000  Cu
  Cu7      1.0000 0.30540  0.69460  0.50000  Biso   1.000  Cu
  Cu8      1.0000 0.24039  0.75961  0.50000  Biso   1.000  Cu
  Cu9      1.0000 0.50000  0.30540  0.30540  Biso   1.000  Cu
  Cu10     1.0000 0.50000  0.24039  0.24039  Biso   1.000  Cu
  Cu11     1.0000 0.50000  0.69460  0.69460  Biso   1.000  Cu
  Cu12     1.0000 0.50000  0.75961  0.75961  Biso   1.000  Cu
  Cu13     1.0000 0.50000  0.69460  0.30540  Biso   1.000  Cu
  Cu14     1.0000 0.50000  0.75961  0.24039  Biso   1.000  Cu
  Cu15     1.0000 0.50000  0.30540  0.69460  Biso   1.000  Cu
  Cu16     1.0000 0.50000  0.24039  0.75961  Biso   1.000  Cu
  Cu17     1.0000 0.30540  0.50000  0.30540  Biso   1.000  Cu
  Cu18     1.0000 0.24039  0.50000  0.24039  Biso   1.000  Cu
  Cu19     1.0000 0.69460  0.50000  0.69460  Biso   1.000  Cu
  Cu20     1.0000 0.75961  0.50000  0.75961  Biso   1.000  Cu
  Cu21     1.0000 0.30540  0.50000  0.69460  Biso   1.000  Cu
  Cu22     1.0000 0.24039  0.50000  0.75961  Biso   1.000  Cu
  Cu23     1.0000 0.69460  0.50000  0.30540  Biso   1.000  Cu
  Cu24     1.0000 0.75961  0.50000  0.24039  Biso   1.000  Cu
  C505     1.0000 0.00000  0.24090  0.24090  Biso   1.000  C
  C506     1.0000 0.00000  0.75910  0.24090  Biso   1.000  C
  C507     1.0000 0.00000  0.24090  0.75910  Biso   1.000  C
  C508     1.0000 0.00000  0.75910  0.75910  Biso   1.000  C
  C509     1.0000 0.24090  0.00000  0.24090  Biso   1.000  C
  C510     1.0000 0.24090  0.00000  0.75910  Biso   1.000  C
  C511     1.0000 0.75910  0.00000  0.24090  Biso   1.000  C
  C512     1.0000 0.75910  0.00000  0.75910  Biso   1.000  C
  C513     1.0000 0.24090  0.24090  0.00000  Biso   1.000  C
  C514     1.0000 0.75910  0.24090  0.00000  Biso   1.000  C
  C515     1.0000 0.24090  0.75910  0.00000  Biso   1.000  C
  C516     1.0000 0.75910  0.75910  0.00000  Biso   1.000  C
