data_image0
_cell_length_a       31.837
_cell_length_b       31.837
_cell_length_c       62.41
_cell_angle_alpha    90
_cell_angle_beta     90
_cell_angle_gamma    120

_symmetry_space_group_name_H-M    "P 1"
_symmetry_int_tables_number       1

loop_
  _symmetry_equiv_pos_as_xyz
  'x, y, z'

loop_
  _atom_site_label
  _atom_site_occupancy
  _atom_site_fract_x
  _atom_site_fract_y
  _atom_site_fract_z
  _atom_site_thermal_displace_type
  _atom_site_B_iso_or_equiv
  _atom_site_type_symbol
  C1       1.0000 0.45830  0.22440  0.36370  Biso   1.000  C
  C2       1.0000 0.44490  0.23340  0.38380  Biso   1.000  C
  H1       1.0000 0.41310  0.22840  0.38560  Biso   1.000  H
  C3       1.0000 0.47650  0.24940  0.40100  Biso   1.000  C
  H2       1.0000 0.46550  0.25370  0.41460  Biso   1.000  H
  C4       1.0000 0.52340  0.25920  0.39890  Biso   1.000  C
  C5       1.0000 0.53730  0.24770  0.37940  Biso   1.000  C
  H3       1.0000 0.56880  0.25200  0.37780  Biso   1.000  H
  C6       1.0000 0.50460  0.23000  0.36250  Biso   1.000  C
  H4       1.0000 0.51410  0.22140  0.34960  Biso   1.000  H
  O1       1.0000 0.43660  0.18030  0.33150  Biso   1.000  O
  N1       1.0000 0.40860  0.15860  0.31270  Biso   1.000  N
  C7       1.0000 0.41850  0.12720  0.30550  Biso   1.000  C
  H5       1.0000 0.44190  0.12270  0.31310  Biso   1.000  H
  C8       1.0000 0.39660  0.09750  0.28660  Biso   1.000  C
  C9       1.0000 0.36300  0.10330  0.27330  Biso   1.000  C
  C10      1.0000 0.34410  0.07200  0.25500  Biso   1.000  C
  C11      1.0000 0.35700  0.03640  0.25090  Biso   1.000  C
  H6       1.0000 0.34350  0.01570  0.23890  Biso   1.000  H
  C12      1.0000 0.38910  0.03100  0.26430  Biso   1.000  C
  C13      1.0000 0.40770  0.06110  0.28190  Biso   1.000  C
  H7       1.0000 0.42900  0.05690  0.29120  Biso   1.000  H
  C14      1.0000 0.31070  0.07420  0.23990  Biso   1.000  C
  H8       1.0000 0.30120  0.05300  0.22790  Biso   1.000  H
  N2       1.0000 0.29330  0.10220  0.24140  Biso   1.000  N
  O2       1.0000 0.26140  0.09320  0.22390  Biso   1.000  O
  C15      1.0000 0.18220  0.12750  0.19380  Biso   1.000  C
  H9       1.0000 0.19380  0.15950  0.19890  Biso   1.000  H
  C16      1.0000 0.15130  0.11220  0.17640  Biso   1.000  C
  H10      1.0000 0.14150  0.13340  0.17050  Biso   1.000  H
  O3       1.0000 0.35110  0.13590  0.27750  Biso   1.000  O
  C17      1.0000 0.40420  0.99320  0.25900  Biso   1.000  C
  O4       1.0000 0.08740  0.07940  0.14149  Biso   1.000  O
  C18      1.0000 0.11620  0.05620  0.34990  Biso   1.000  C
  C19      1.0000 0.12680  0.03150  0.36870  Biso   1.000  C
  H11      1.0000 0.13440  0.00730  0.36310  Biso   1.000  H
  H12      1.0000 0.15450  0.05590  0.37690  Biso   1.000  H
  H13      1.0000 0.09830  0.01560  0.37800  Biso   1.000  H
  C20      1.0000 0.07290  0.01720  0.33730  Biso   1.000  C
  H14      1.0000 0.08000  0.99190  0.33260  Biso   1.000  H
  H15      1.0000 0.04400  0.00270  0.34640  Biso   1.000  H
  H16      1.0000 0.06710  0.03190  0.32470  Biso   1.000  H
  C21      1.0000 0.35870  0.94510  0.25340  Biso   1.000  C
  H17      1.0000 0.34100  0.95040  0.24190  Biso   1.000  H
  H18      1.0000 0.36820  0.92170  0.24860  Biso   1.000  H
  H19      1.0000 0.33790  0.93240  0.26600  Biso   1.000  H
  C22      1.0000 0.10390  0.09480  0.35680  Biso   1.000  C
  H20      1.0000 0.13110  0.12010  0.36500  Biso   1.000  H
  H21      1.0000 0.09790  0.10910  0.34410  Biso   1.000  H
  H22      1.0000 0.07480  0.07980  0.36590  Biso   1.000  H
  C23      1.0000 0.38800  0.97300  0.23630  Biso   1.000  C
  H23      1.0000 0.35220  0.95850  0.23540  Biso   1.000  H
  H24      1.0000 0.40290  0.99990  0.22600  Biso   1.000  H
  H25      1.0000 0.39690  0.94900  0.23320  Biso   1.000  H
  C24      1.0000 0.43880  0.01390  0.23970  Biso   1.000  C
  H26      1.0000 0.42230  0.01990  0.22790  Biso   1.000  H
  H27      1.0000 0.46760  0.04450  0.24390  Biso   1.000  H
  H28      1.0000 0.44860  0.99060  0.23520  Biso   1.000  H
  C25      1.0000 0.45940  0.01560  0.25900  Biso   1.000  C
  H29      1.0000 0.47360  0.04070  0.24800  Biso   1.000  H
  H30      1.0000 0.47220  0.03010  0.27310  Biso   1.000  H
  H31      1.0000 0.46760  0.99030  0.25610  Biso   1.000  H
  C26      1.0000 0.43100  0.98470  0.27680  Biso   1.000  C
  H32      1.0000 0.46060  0.01540  0.28050  Biso   1.000  H
  H33      1.0000 0.41060  0.97200  0.28950  Biso   1.000  H
  H34      1.0000 0.44090  0.96130  0.27200  Biso   1.000  H
  C27      1.0000 0.38300  0.95420  0.27640  Biso   1.000  C
  H35      1.0000 0.34720  0.93960  0.27650  Biso   1.000  H
  H36      1.0000 0.39100  0.92900  0.27340  Biso   1.000  H
  H37      1.0000 0.39570  0.96880  0.29040  Biso   1.000  H
  C28      1.0000 0.12497  0.55773  0.69703  Biso   1.000  C
  C29      1.0000 0.11157  0.56673  0.71713  Biso   1.000  C
  H38      1.0000 0.07977  0.56173  0.71893  Biso   1.000  H
  C30      1.0000 0.14317  0.58273  0.73433  Biso   1.000  C
  H39      1.0000 0.13217  0.58703  0.74793  Biso   1.000  H
  C31      1.0000 0.19007  0.59253  0.73223  Biso   1.000  C
  C32      1.0000 0.20397  0.58103  0.71273  Biso   1.000  C
  H40      1.0000 0.23547  0.58533  0.71113  Biso   1.000  H
  C33      1.0000 0.17127  0.56333  0.69583  Biso   1.000  C
  H41      1.0000 0.18077  0.55473  0.68293  Biso   1.000  H
  O5       1.0000 0.10327  0.51363  0.66483  Biso   1.000  O
  N3       1.0000 0.07527  0.49193  0.64603  Biso   1.000  N
  C34      1.0000 0.08517  0.46053  0.63883  Biso   1.000  C
  H42      1.0000 0.10857  0.45603  0.64643  Biso   1.000  H
  C35      1.0000 0.06327  0.43083  0.61993  Biso   1.000  C
  C36      1.0000 0.02967  0.43663  0.60663  Biso   1.000  C
  C37      1.0000 0.01077  0.40533  0.58833  Biso   1.000  C
  C38      1.0000 0.02367  0.36973  0.58423  Biso   1.000  C
  H43      1.0000 0.01017  0.34903  0.57223  Biso   1.000  H
  C39      1.0000 0.05577  0.36433  0.59763  Biso   1.000  C
  C40      1.0000 0.07437  0.39443  0.61523  Biso   1.000  C
  H44      1.0000 0.09567  0.39023  0.62453  Biso   1.000  H
  C41      1.0000 0.97737  0.40753  0.57323  Biso   1.000  C
  H45      1.0000 0.96787  0.38633  0.56123  Biso   1.000  H
  N4       1.0000 0.95997  0.43553  0.57473  Biso   1.000  N
  O6       1.0000 0.92807  0.42653  0.55723  Biso   1.000  O
  C42      1.0000 0.84887  0.46083  0.52713  Biso   1.000  C
  H46      1.0000 0.86047  0.49283  0.53223  Biso   1.000  H
  C43      1.0000 0.81797  0.44553  0.50973  Biso   1.000  C
  H47      1.0000 0.80817  0.46673  0.50383  Biso   1.000  H
  O7       1.0000 0.01777  0.46923  0.61083  Biso   1.000  O
  C44      1.0000 0.07087  0.32653  0.59233  Biso   1.000  C
  O8       1.0000 0.75407  0.41273  0.47482  Biso   1.000  O
  C45      1.0000 0.78287  0.38953  0.68323  Biso   1.000  C
  C46      1.0000 0.79347  0.36483  0.70203  Biso   1.000  C
  H48      1.0000 0.80107  0.34063  0.69643  Biso   1.000  H
  H49      1.0000 0.82117  0.38923  0.71023  Biso   1.000  H
  H50      1.0000 0.76497  0.34893  0.71133  Biso   1.000  H
  C47      1.0000 0.73957  0.35053  0.67063  Biso   1.000  C
  H51      1.0000 0.74667  0.32523  0.66593  Biso   1.000  H
  H52      1.0000 0.71067  0.33603  0.67973  Biso   1.000  H
  H53      1.0000 0.73377  0.36523  0.65803  Biso   1.000  H
  C48      1.0000 0.02537  0.27843  0.58673  Biso   1.000  C
  H54      1.0000 0.00767  0.28373  0.57523  Biso   1.000  H
  H55      1.0000 0.03487  0.25503  0.58193  Biso   1.000  H
  H56      1.0000 0.00457  0.26573  0.59933  Biso   1.000  H
  C49      1.0000 0.77057  0.42813  0.69013  Biso   1.000  C
  H57      1.0000 0.79777  0.45343  0.69833  Biso   1.000  H
  H58      1.0000 0.76457  0.44243  0.67743  Biso   1.000  H
  H59      1.0000 0.74147  0.41313  0.69923  Biso   1.000  H
  C50      1.0000 0.05467  0.30633  0.56963  Biso   1.000  C
  H60      1.0000 0.01887  0.29183  0.56873  Biso   1.000  H
  H61      1.0000 0.06957  0.33323  0.55933  Biso   1.000  H
  H62      1.0000 0.06357  0.28233  0.56653  Biso   1.000  H
  C51      1.0000 0.10547  0.34723  0.57303  Biso   1.000  C
  H63      1.0000 0.08897  0.35323  0.56123  Biso   1.000  H
  H64      1.0000 0.13427  0.37783  0.57723  Biso   1.000  H
  H65      1.0000 0.11527  0.32393  0.56853  Biso   1.000  H
  C52      1.0000 0.12607  0.34893  0.59233  Biso   1.000  C
  H66      1.0000 0.14027  0.37403  0.58133  Biso   1.000  H
  H67      1.0000 0.13887  0.36343  0.60643  Biso   1.000  H
  H68      1.0000 0.13427  0.32363  0.58943  Biso   1.000  H
  C53      1.0000 0.09767  0.31803  0.61013  Biso   1.000  C
  H69      1.0000 0.12727  0.34873  0.61383  Biso   1.000  H
  H70      1.0000 0.07727  0.30533  0.62283  Biso   1.000  H
  H71      1.0000 0.10757  0.29463  0.60533  Biso   1.000  H
  C54      1.0000 0.04967  0.28753  0.60973  Biso   1.000  C
  H72      1.0000 0.01387  0.27293  0.60983  Biso   1.000  H
  H73      1.0000 0.05767  0.26233  0.60673  Biso   1.000  H
  H74      1.0000 0.06237  0.30213  0.62373  Biso   1.000  H
  C55      1.0000 0.79163  0.89107  0.03037  Biso   1.000  C
  C56      1.0000 0.77823  0.90007  0.05047  Biso   1.000  C
  H75      1.0000 0.74643  0.89507  0.05227  Biso   1.000  H
  C57      1.0000 0.80983  0.91607  0.06767  Biso   1.000  C
  H76      1.0000 0.79883  0.92037  0.08127  Biso   1.000  H
  C58      1.0000 0.85673  0.92587  0.06557  Biso   1.000  C
  C59      1.0000 0.87063  0.91437  0.04607  Biso   1.000  C
  H77      1.0000 0.90213  0.91867  0.04447  Biso   1.000  H
  C60      1.0000 0.83793  0.89667  0.02917  Biso   1.000  C
  H78      1.0000 0.84743  0.88807  0.01627  Biso   1.000  H
  O9       1.0000 0.76993  0.84697  0.99817  Biso   1.000  O
  N5       1.0000 0.74193  0.82527  0.97937  Biso   1.000  N
  C61      1.0000 0.75183  0.79387  0.97217  Biso   1.000  C
  H79      1.0000 0.77523  0.78937  0.97977  Biso   1.000  H
  C62      1.0000 0.72993  0.76417  0.95327  Biso   1.000  C
  C63      1.0000 0.69633  0.76997  0.93997  Biso   1.000  C
  C64      1.0000 0.67743  0.73867  0.92167  Biso   1.000  C
  C65      1.0000 0.69033  0.70307  0.91757  Biso   1.000  C
  H80      1.0000 0.67683  0.68237  0.90557  Biso   1.000  H
  C66      1.0000 0.72243  0.69767  0.93097  Biso   1.000  C
  C67      1.0000 0.74103  0.72777  0.94857  Biso   1.000  C
  H81      1.0000 0.76233  0.72357  0.95787  Biso   1.000  H
  C68      1.0000 0.64403  0.74087  0.90657  Biso   1.000  C
  H82      1.0000 0.63453  0.71967  0.89457  Biso   1.000  H
  N6       1.0000 0.62663  0.76887  0.90807  Biso   1.000  N
  O10      1.0000 0.59473  0.75987  0.89057  Biso   1.000  O
  C69      1.0000 0.51553  0.79417  0.86047  Biso   1.000  C
  H83      1.0000 0.52713  0.82617  0.86557  Biso   1.000  H
  C70      1.0000 0.48463  0.77887  0.84307  Biso   1.000  C
  H84      1.0000 0.47483  0.80007  0.83717  Biso   1.000  H
  O11      1.0000 0.68443  0.80257  0.94417  Biso   1.000  O
  C71      1.0000 0.73753  0.65987  0.92567  Biso   1.000  C
  O12      1.0000 0.42073  0.74607  0.80816  Biso   1.000  O
  C72      1.0000 0.44953  0.72287  0.01657  Biso   1.000  C
  C73      1.0000 0.46013  0.69817  0.03537  Biso   1.000  C
  H85      1.0000 0.46773  0.67397  0.02977  Biso   1.000  H
  H86      1.0000 0.48783  0.72257  0.04357  Biso   1.000  H
  H87      1.0000 0.43163  0.68227  0.04467  Biso   1.000  H
  C74      1.0000 0.40623  0.68387  0.00397  Biso   1.000  C
  H88      1.0000 0.41333  0.65857  0.99927  Biso   1.000  H
  H89      1.0000 0.37733  0.66937  0.01307  Biso   1.000  H
  H90      1.0000 0.40043  0.69857  0.99137  Biso   1.000  H
  C75      1.0000 0.69203  0.61177  0.92007  Biso   1.000  C
  H91      1.0000 0.67433  0.61707  0.90857  Biso   1.000  H
  H92      1.0000 0.70153  0.58837  0.91527  Biso   1.000  H
  H93      1.0000 0.67123  0.59907  0.93267  Biso   1.000  H
  C76      1.0000 0.43723  0.76147  0.02347  Biso   1.000  C
  H94      1.0000 0.46443  0.78677  0.03167  Biso   1.000  H
  H95      1.0000 0.43123  0.77577  0.01077  Biso   1.000  H
  H96      1.0000 0.40813  0.74647  0.03257  Biso   1.000  H
  C77      1.0000 0.72133  0.63967  0.90297  Biso   1.000  C
  H97      1.0000 0.68553  0.62517  0.90207  Biso   1.000  H
  H98      1.0000 0.73623  0.66657  0.89267  Biso   1.000  H
  H99      1.0000 0.73023  0.61567  0.89987  Biso   1.000  H
  C78      1.0000 0.77213  0.68057  0.90637  Biso   1.000  C
  H100     1.0000 0.75563  0.68657  0.89457  Biso   1.000  H
  H101     1.0000 0.80093  0.71117  0.91057  Biso   1.000  H
  H102     1.0000 0.78193  0.65727  0.90187  Biso   1.000  H
  C79      1.0000 0.79273  0.68227  0.92567  Biso   1.000  C
  H103     1.0000 0.80693  0.70737  0.91467  Biso   1.000  H
  H104     1.0000 0.80553  0.69677  0.93977  Biso   1.000  H
  H105     1.0000 0.80093  0.65697  0.92277  Biso   1.000  H
  C80      1.0000 0.76433  0.65137  0.94347  Biso   1.000  C
  H106     1.0000 0.79393  0.68207  0.94717  Biso   1.000  H
  H107     1.0000 0.74393  0.63867  0.95617  Biso   1.000  H
  H108     1.0000 0.77423  0.62797  0.93867  Biso   1.000  H
  C81      1.0000 0.71633  0.62087  0.94307  Biso   1.000  C
  H109     1.0000 0.68053  0.60627  0.94317  Biso   1.000  H
  H110     1.0000 0.72433  0.59567  0.94007  Biso   1.000  H
  H111     1.0000 0.72903  0.63547  0.95707  Biso   1.000  H
  C82      1.0000 0.77560  0.23390  0.36370  Biso   1.000  C
  C83      1.0000 0.76660  0.21150  0.38380  Biso   1.000  C
  H112     1.0000 0.77160  0.18470  0.38560  Biso   1.000  H
  C84      1.0000 0.75060  0.22710  0.40100  Biso   1.000  C
  H113     1.0000 0.74630  0.21180  0.41460  Biso   1.000  H
  C85      1.0000 0.74080  0.26420  0.39890  Biso   1.000  C
  C86      1.0000 0.75230  0.28960  0.37940  Biso   1.000  C
  H114     1.0000 0.74800  0.31680  0.37780  Biso   1.000  H
  C87      1.0000 0.77000  0.27460  0.36250  Biso   1.000  C
  H115     1.0000 0.77860  0.29270  0.34960  Biso   1.000  H
  O13      1.0000 0.81970  0.25630  0.33150  Biso   1.000  O
  N7       1.0000 0.84140  0.25000  0.31270  Biso   1.000  N
  C88      1.0000 0.87280  0.29130  0.30550  Biso   1.000  C
  H116     1.0000 0.87730  0.31920  0.31310  Biso   1.000  H
  C89      1.0000 0.90250  0.29910  0.28660  Biso   1.000  C
  C90      1.0000 0.89670  0.25970  0.27330  Biso   1.000  C
  C91      1.0000 0.92800  0.27210  0.25500  Biso   1.000  C
  C92      1.0000 0.96360  0.32060  0.25090  Biso   1.000  C
  H117     1.0000 0.98430  0.32780  0.23890  Biso   1.000  H
  C93      1.0000 0.96900  0.35810  0.26430  Biso   1.000  C
  C94      1.0000 0.93890  0.34660  0.28190  Biso   1.000  C
  H118     1.0000 0.94310  0.37210  0.29120  Biso   1.000  H
  C95      1.0000 0.92580  0.23650  0.23990  Biso   1.000  C
  H119     1.0000 0.94700  0.24820  0.22790  Biso   1.000  H
  N8       1.0000 0.89780  0.19110  0.24140  Biso   1.000  N
  O14      1.0000 0.90680  0.16820  0.22390  Biso   1.000  O
  C96      1.0000 0.87250  0.05470  0.19380  Biso   1.000  C
  H120     1.0000 0.84050  0.03430  0.19890  Biso   1.000  H
  C97      1.0000 0.88780  0.03910  0.17640  Biso   1.000  C
  H121     1.0000 0.86660  0.00810  0.17050  Biso   1.000  H
  O15      1.0000 0.86410  0.21520  0.27750  Biso   1.000  O
  C98      1.0000 0.00680  0.41100  0.25900  Biso   1.000  C
  O16      1.0000 0.92060  0.00800  0.14149  Biso   1.000  O
  C99      1.0000 0.94380  0.06000  0.34990  Biso   1.000  C
  C100     1.0000 0.96850  0.09530  0.36870  Biso   1.000  C
  H122     1.0000 0.99270  0.12710  0.36310  Biso   1.000  H
  H123     1.0000 0.94410  0.09860  0.37690  Biso   1.000  H
  H124     1.0000 0.98440  0.08270  0.37800  Biso   1.000  H
  C101     1.0000 0.98280  0.05570  0.33730  Biso   1.000  C
  H125     1.0000 0.00810  0.08810  0.33260  Biso   1.000  H
  H126     1.0000 0.99730  0.04130  0.34640  Biso   1.000  H
  H127     1.0000 0.96810  0.03520  0.32470  Biso   1.000  H
  C102     1.0000 0.05490  0.41360  0.25340  Biso   1.000  C
  H128     1.0000 0.04960  0.39060  0.24190  Biso   1.000  H
  H129     1.0000 0.07830  0.44650  0.24860  Biso   1.000  H
  H130     1.0000 0.06760  0.40550  0.26600  Biso   1.000  H
  C103     1.0000 0.90520  0.00910  0.35680  Biso   1.000  C
  H131     1.0000 0.87990  0.01100  0.36500  Biso   1.000  H
  H132     1.0000 0.89090  0.98880  0.34410  Biso   1.000  H
  H133     1.0000 0.92020  0.99500  0.36590  Biso   1.000  H
  C104     1.0000 0.02700  0.41500  0.23630  Biso   1.000  C
  H134     1.0000 0.04150  0.39370  0.23540  Biso   1.000  H
  H135     1.0000 0.00010  0.40300  0.22600  Biso   1.000  H
  H136     1.0000 0.05100  0.44790  0.23320  Biso   1.000  H
  C105     1.0000 0.98610  0.42490  0.23970  Biso   1.000  C
  H137     1.0000 0.98010  0.40240  0.22790  Biso   1.000  H
  H138     1.0000 0.95550  0.42310  0.24390  Biso   1.000  H
  H139     1.0000 0.00940  0.45800  0.23520  Biso   1.000  H
  C106     1.0000 0.98440  0.44380  0.25900  Biso   1.000  C
  H140     1.0000 0.95930  0.43290  0.24800  Biso   1.000  H
  H141     1.0000 0.96990  0.44210  0.27310  Biso   1.000  H
  H142     1.0000 0.00970  0.47730  0.25610  Biso   1.000  H
  C107     1.0000 0.01530  0.44630  0.27680  Biso   1.000  C
  H143     1.0000 0.98460  0.44520  0.28050  Biso   1.000  H
  H144     1.0000 0.02800  0.43860  0.28950  Biso   1.000  H
  H145     1.0000 0.03870  0.47960  0.27200  Biso   1.000  H
  C108     1.0000 0.04580  0.42880  0.27640  Biso   1.000  C
  H146     1.0000 0.06040  0.40760  0.27650  Biso   1.000  H
  H147     1.0000 0.07100  0.46200  0.27340  Biso   1.000  H
  H148     1.0000 0.03120  0.42690  0.29040  Biso   1.000  H
  C109     1.0000 0.44227  0.56723  0.69703  Biso   1.000  C
  C110     1.0000 0.43327  0.54483  0.71713  Biso   1.000  C
  H149     1.0000 0.43827  0.51803  0.71893  Biso   1.000  H
  C111     1.0000 0.41727  0.56043  0.73433  Biso   1.000  C
  H150     1.0000 0.41297  0.54513  0.74793  Biso   1.000  H
  C112     1.0000 0.40747  0.59753  0.73223  Biso   1.000  C
  C113     1.0000 0.41897  0.62293  0.71273  Biso   1.000  C
  H151     1.0000 0.41467  0.65013  0.71113  Biso   1.000  H
  C114     1.0000 0.43667  0.60793  0.69583  Biso   1.000  C
  H152     1.0000 0.44527  0.62603  0.68293  Biso   1.000  H
  O17      1.0000 0.48637  0.58963  0.66483  Biso   1.000  O
  N9       1.0000 0.50807  0.58333  0.64603  Biso   1.000  N
  C115     1.0000 0.53947  0.62463  0.63883  Biso   1.000  C
  H153     1.0000 0.54397  0.65253  0.64643  Biso   1.000  H
  C116     1.0000 0.56917  0.63243  0.61993  Biso   1.000  C
  C117     1.0000 0.56337  0.59303  0.60663  Biso   1.000  C
  C118     1.0000 0.59467  0.60543  0.58833  Biso   1.000  C
  C119     1.0000 0.63027  0.65393  0.58423  Biso   1.000  C
  H154     1.0000 0.65097  0.66113  0.57223  Biso   1.000  H
  C120     1.0000 0.63567  0.69143  0.59763  Biso   1.000  C
  C121     1.0000 0.60557  0.67993  0.61523  Biso   1.000  C
  H155     1.0000 0.60977  0.70543  0.62453  Biso   1.000  H
  C122     1.0000 0.59247  0.56983  0.57323  Biso   1.000  C
  H156     1.0000 0.61367  0.58153  0.56123  Biso   1.000  H
  N10      1.0000 0.56447  0.52443  0.57473  Biso   1.000  N
  O18      1.0000 0.57347  0.50153  0.55723  Biso   1.000  O
  C123     1.0000 0.53917  0.38803  0.52713  Biso   1.000  C
  H157     1.0000 0.50717  0.36763  0.53223  Biso   1.000  H
  C124     1.0000 0.55447  0.37243  0.50973  Biso   1.000  C
  H158     1.0000 0.53327  0.34143  0.50383  Biso   1.000  H
  O19      1.0000 0.53077  0.54853  0.61083  Biso   1.000  O
  C125     1.0000 0.67347  0.74433  0.59233  Biso   1.000  C
  O20      1.0000 0.58727  0.34133  0.47482  Biso   1.000  O
  C126     1.0000 0.61047  0.39333  0.68323  Biso   1.000  C
  C127     1.0000 0.63517  0.42863  0.70203  Biso   1.000  C
  H159     1.0000 0.65937  0.46043  0.69643  Biso   1.000  H
  H160     1.0000 0.61077  0.43193  0.71023  Biso   1.000  H
  H161     1.0000 0.65107  0.41603  0.71133  Biso   1.000  H
  C128     1.0000 0.64947  0.38903  0.67063  Biso   1.000  C
  H162     1.0000 0.67477  0.42143  0.66593  Biso   1.000  H
  H163     1.0000 0.66397  0.37463  0.67973  Biso   1.000  H
  H164     1.0000 0.63477  0.36853  0.65803  Biso   1.000  H
  C129     1.0000 0.72157  0.74693  0.58673  Biso   1.000  C
  H165     1.0000 0.71627  0.72393  0.57523  Biso   1.000  H
  H166     1.0000 0.74497  0.77983  0.58193  Biso   1.000  H
  H167     1.0000 0.73427  0.73883  0.59933  Biso   1.000  H
  C130     1.0000 0.57187  0.34243  0.69013  Biso   1.000  C
  H168     1.0000 0.54657  0.34433  0.69833  Biso   1.000  H
  H169     1.0000 0.55757  0.32213  0.67743  Biso   1.000  H
  H170     1.0000 0.58687  0.32833  0.69923  Biso   1.000  H
  C131     1.0000 0.69367  0.74833  0.56963  Biso   1.000  C
  H171     1.0000 0.70817  0.72703  0.56873  Biso   1.000  H
  H172     1.0000 0.66677  0.73633  0.55933  Biso   1.000  H
  H173     1.0000 0.71767  0.78123  0.56653  Biso   1.000  H
  C132     1.0000 0.65277  0.75823  0.57303  Biso   1.000  C
  H174     1.0000 0.64677  0.73573  0.56123  Biso   1.000  H
  H175     1.0000 0.62217  0.75643  0.57723  Biso   1.000  H
  H176     1.0000 0.67607  0.79133  0.56853  Biso   1.000  H
  C133     1.0000 0.65107  0.77713  0.59233  Biso   1.000  C
  H177     1.0000 0.62597  0.76623  0.58133  Biso   1.000  H
  H178     1.0000 0.63657  0.77543  0.60643  Biso   1.000  H
  H179     1.0000 0.67637  0.81063  0.58943  Biso   1.000  H
  C134     1.0000 0.68197  0.77963  0.61013  Biso   1.000  C
  H180     1.0000 0.65127  0.77853  0.61383  Biso   1.000  H
  H181     1.0000 0.69467  0.77193  0.62283  Biso   1.000  H
  H182     1.0000 0.70537  0.81293  0.60533  Biso   1.000  H
  C135     1.0000 0.71247  0.76213  0.60973  Biso   1.000  C
  H183     1.0000 0.72707  0.74093  0.60983  Biso   1.000  H
  H184     1.0000 0.73767  0.79533  0.60673  Biso   1.000  H
  H185     1.0000 0.69787  0.76023  0.62373  Biso   1.000  H
  C136     1.0000 0.10893  0.90057  0.03037  Biso   1.000  C
  C137     1.0000 0.09993  0.87817  0.05047  Biso   1.000  C
  H186     1.0000 0.10493  0.85137  0.05227  Biso   1.000  H
  C138     1.0000 0.08393  0.89377  0.06767  Biso   1.000  C
  H187     1.0000 0.07963  0.87847  0.08127  Biso   1.000  H
  C139     1.0000 0.07413  0.93087  0.06557  Biso   1.000  C
  C140     1.0000 0.08563  0.95627  0.04607  Biso   1.000  C
  H188     1.0000 0.08133  0.98347  0.04447  Biso   1.000  H
  C141     1.0000 0.10333  0.94127  0.02917  Biso   1.000  C
  H189     1.0000 0.11193  0.95937  0.01627  Biso   1.000  H
  O21      1.0000 0.15303  0.92297  0.99817  Biso   1.000  O
  N11      1.0000 0.17473  0.91667  0.97937  Biso   1.000  N
  C142     1.0000 0.20613  0.95797  0.97217  Biso   1.000  C
  H190     1.0000 0.21063  0.98587  0.97977  Biso   1.000  H
  C143     1.0000 0.23583  0.96577  0.95327  Biso   1.000  C
  C144     1.0000 0.23003  0.92637  0.93997  Biso   1.000  C
  C145     1.0000 0.26133  0.93877  0.92167  Biso   1.000  C
  C146     1.0000 0.29693  0.98727  0.91757  Biso   1.000  C
  H191     1.0000 0.31763  0.99447  0.90557  Biso   1.000  H
  C147     1.0000 0.30233  0.02477  0.93097  Biso   1.000  C
  C148     1.0000 0.27223  0.01327  0.94857  Biso   1.000  C
  H192     1.0000 0.27643  0.03877  0.95787  Biso   1.000  H
  C149     1.0000 0.25913  0.90317  0.90657  Biso   1.000  C
  H193     1.0000 0.28033  0.91487  0.89457  Biso   1.000  H
  N12      1.0000 0.23113  0.85777  0.90807  Biso   1.000  N
  O22      1.0000 0.24013  0.83487  0.89057  Biso   1.000  O
  C150     1.0000 0.20583  0.72137  0.86047  Biso   1.000  C
  H194     1.0000 0.17383  0.70097  0.86557  Biso   1.000  H
  C151     1.0000 0.22113  0.70577  0.84307  Biso   1.000  C
  H195     1.0000 0.19993  0.67477  0.83717  Biso   1.000  H
  O23      1.0000 0.19743  0.88187  0.94417  Biso   1.000  O
  C152     1.0000 0.34013  0.07767  0.92567  Biso   1.000  C
  O24      1.0000 0.25393  0.67467  0.80816  Biso   1.000  O
  C153     1.0000 0.27713  0.72667  0.01657  Biso   1.000  C
  C154     1.0000 0.30183  0.76197  0.03537  Biso   1.000  C
  H196     1.0000 0.32603  0.79377  0.02977  Biso   1.000  H
  H197     1.0000 0.27743  0.76527  0.04357  Biso   1.000  H
  H198     1.0000 0.31773  0.74937  0.04467  Biso   1.000  H
  C155     1.0000 0.31613  0.72237  0.00397  Biso   1.000  C
  H199     1.0000 0.34143  0.75477  0.99927  Biso   1.000  H
  H200     1.0000 0.33063  0.70797  0.01307  Biso   1.000  H
  H201     1.0000 0.30143  0.70187  0.99137  Biso   1.000  H
  C156     1.0000 0.38823  0.08027  0.92007  Biso   1.000  C
  H202     1.0000 0.38293  0.05727  0.90857  Biso   1.000  H
  H203     1.0000 0.41163  0.11317  0.91527  Biso   1.000  H
  H204     1.0000 0.40093  0.07217  0.93267  Biso   1.000  H
  C157     1.0000 0.23853  0.67577  0.02347  Biso   1.000  C
  H205     1.0000 0.21323  0.67767  0.03167  Biso   1.000  H
  H206     1.0000 0.22423  0.65547  0.01077  Biso   1.000  H
  H207     1.0000 0.25353  0.66167  0.03257  Biso   1.000  H
  C158     1.0000 0.36033  0.08167  0.90297  Biso   1.000  C
  H208     1.0000 0.37483  0.06037  0.90207  Biso   1.000  H
  H209     1.0000 0.33343  0.06967  0.89267  Biso   1.000  H
  H210     1.0000 0.38433  0.11457  0.89987  Biso   1.000  H
  C159     1.0000 0.31943  0.09157  0.90637  Biso   1.000  C
  H211     1.0000 0.31343  0.06907  0.89457  Biso   1.000  H
  H212     1.0000 0.28883  0.08977  0.91057  Biso   1.000  H
  H213     1.0000 0.34273  0.12467  0.90187  Biso   1.000  H
  C160     1.0000 0.31773  0.11047  0.92567  Biso   1.000  C
  H214     1.0000 0.29263  0.09957  0.91467  Biso   1.000  H
  H215     1.0000 0.30323  0.10877  0.93977  Biso   1.000  H
  H216     1.0000 0.34303  0.14397  0.92277  Biso   1.000  H
  C161     1.0000 0.34863  0.11297  0.94347  Biso   1.000  C
  H217     1.0000 0.31793  0.11187  0.94717  Biso   1.000  H
  H218     1.0000 0.36133  0.10527  0.95617  Biso   1.000  H
  H219     1.0000 0.37203  0.14627  0.93867  Biso   1.000  H
  C162     1.0000 0.37913  0.09547  0.94307  Biso   1.000  C
  H220     1.0000 0.39373  0.07427  0.94317  Biso   1.000  H
  H221     1.0000 0.40433  0.12867  0.94007  Biso   1.000  H
  H222     1.0000 0.36453  0.09357  0.95707  Biso   1.000  H
  C163     1.0000 0.76610  0.54170  0.36370  Biso   1.000  C
  C164     1.0000 0.78850  0.55510  0.38380  Biso   1.000  C
  H223     1.0000 0.81530  0.58690  0.38560  Biso   1.000  H
  C165     1.0000 0.77290  0.52350  0.40100  Biso   1.000  C
  H224     1.0000 0.78820  0.53450  0.41460  Biso   1.000  H
  C166     1.0000 0.73580  0.47660  0.39890  Biso   1.000  C
  C167     1.0000 0.71040  0.46270  0.37940  Biso   1.000  C
  H225     1.0000 0.68320  0.43120  0.37780  Biso   1.000  H
  C168     1.0000 0.72540  0.49540  0.36250  Biso   1.000  C
  H226     1.0000 0.70730  0.48590  0.34960  Biso   1.000  H
  O25      1.0000 0.74370  0.56340  0.33150  Biso   1.000  O
  N13      1.0000 0.75000  0.59140  0.31270  Biso   1.000  N
  C169     1.0000 0.70870  0.58150  0.30550  Biso   1.000  C
  H227     1.0000 0.68080  0.55810  0.31310  Biso   1.000  H
  C170     1.0000 0.70090  0.60340  0.28660  Biso   1.000  C
  C171     1.0000 0.74030  0.63700  0.27330  Biso   1.000  C
  C172     1.0000 0.72790  0.65590  0.25500  Biso   1.000  C
  C173     1.0000 0.67940  0.64300  0.25090  Biso   1.000  C
  H228     1.0000 0.67220  0.65650  0.23890  Biso   1.000  H
  C174     1.0000 0.64190  0.61090  0.26430  Biso   1.000  C
  C175     1.0000 0.65340  0.59230  0.28190  Biso   1.000  C
  H229     1.0000 0.62790  0.57100  0.29120  Biso   1.000  H
  C176     1.0000 0.76350  0.68930  0.23990  Biso   1.000  C
  H230     1.0000 0.75180  0.69880  0.22790  Biso   1.000  H
  N14      1.0000 0.80890  0.70670  0.24140  Biso   1.000  N
  O26      1.0000 0.83180  0.73860  0.22390  Biso   1.000  O
  C177     1.0000 0.94530  0.81780  0.19380  Biso   1.000  C
  H231     1.0000 0.96570  0.80620  0.19890  Biso   1.000  H
  C178     1.0000 0.96090  0.84870  0.17640  Biso   1.000  C
  H232     1.0000 0.99190  0.85850  0.17050  Biso   1.000  H
  O27      1.0000 0.78480  0.64890  0.27750  Biso   1.000  O
  C179     1.0000 0.58900  0.59580  0.25900  Biso   1.000  C
  O28      1.0000 0.99200  0.91260  0.14149  Biso   1.000  O
  C180     1.0000 0.94000  0.88380  0.34990  Biso   1.000  C
  C181     1.0000 0.90470  0.87320  0.36870  Biso   1.000  C
  H233     1.0000 0.87290  0.86560  0.36310  Biso   1.000  H
  H234     1.0000 0.90140  0.84550  0.37690  Biso   1.000  H
  H235     1.0000 0.91730  0.90170  0.37800  Biso   1.000  H
  C182     1.0000 0.94430  0.92710  0.33730  Biso   1.000  C
  H236     1.0000 0.91190  0.92000  0.33260  Biso   1.000  H
  H237     1.0000 0.95870  0.95600  0.34640  Biso   1.000  H
  H238     1.0000 0.96480  0.93290  0.32470  Biso   1.000  H
  C183     1.0000 0.58640  0.64130  0.25340  Biso   1.000  C
  H239     1.0000 0.60940  0.65900  0.24190  Biso   1.000  H
  H240     1.0000 0.55350  0.63180  0.24860  Biso   1.000  H
  H241     1.0000 0.59450  0.66210  0.26600  Biso   1.000  H
  C184     1.0000 0.99090  0.89610  0.35680  Biso   1.000  C
  H242     1.0000 0.98900  0.86890  0.36500  Biso   1.000  H
  H243     1.0000 0.01120  0.90210  0.34410  Biso   1.000  H
  H244     1.0000 0.00500  0.92520  0.36590  Biso   1.000  H
  C185     1.0000 0.58500  0.61200  0.23630  Biso   1.000  C
  H245     1.0000 0.60630  0.64780  0.23540  Biso   1.000  H
  H246     1.0000 0.59700  0.59710  0.22600  Biso   1.000  H
  H247     1.0000 0.55210  0.60310  0.23320  Biso   1.000  H
  C186     1.0000 0.57510  0.56120  0.23970  Biso   1.000  C
  H248     1.0000 0.59760  0.57770  0.22790  Biso   1.000  H
  H249     1.0000 0.57690  0.53240  0.24390  Biso   1.000  H
  H250     1.0000 0.54200  0.55140  0.23520  Biso   1.000  H
  C187     1.0000 0.55620  0.54060  0.25900  Biso   1.000  C
  H251     1.0000 0.56710  0.52640  0.24800  Biso   1.000  H
  H252     1.0000 0.55790  0.52780  0.27310  Biso   1.000  H
  H253     1.0000 0.52270  0.53240  0.25610  Biso   1.000  H
  C188     1.0000 0.55370  0.56900  0.27680  Biso   1.000  C
  H254     1.0000 0.55480  0.53940  0.28050  Biso   1.000  H
  H255     1.0000 0.56140  0.58940  0.28950  Biso   1.000  H
  H256     1.0000 0.52040  0.55910  0.27200  Biso   1.000  H
  C189     1.0000 0.57120  0.61700  0.27640  Biso   1.000  C
  H257     1.0000 0.59240  0.65280  0.27650  Biso   1.000  H
  H258     1.0000 0.53800  0.60900  0.27340  Biso   1.000  H
  H259     1.0000 0.57310  0.60430  0.29040  Biso   1.000  H
  C190     1.0000 0.43277  0.87503  0.69703  Biso   1.000  C
  C191     1.0000 0.45517  0.88843  0.71713  Biso   1.000  C
  H260     1.0000 0.48197  0.92023  0.71893  Biso   1.000  H
  C192     1.0000 0.43957  0.85683  0.73433  Biso   1.000  C
  H261     1.0000 0.45487  0.86783  0.74793  Biso   1.000  H
  C193     1.0000 0.40247  0.80993  0.73223  Biso   1.000  C
  C194     1.0000 0.37707  0.79603  0.71273  Biso   1.000  C
  H262     1.0000 0.34987  0.76453  0.71113  Biso   1.000  H
  C195     1.0000 0.39207  0.82873  0.69583  Biso   1.000  C
  H263     1.0000 0.37397  0.81923  0.68293  Biso   1.000  H
  O29      1.0000 0.41037  0.89673  0.66483  Biso   1.000  O
  N15      1.0000 0.41667  0.92473  0.64603  Biso   1.000  N
  C196     1.0000 0.37537  0.91483  0.63883  Biso   1.000  C
  H264     1.0000 0.34747  0.89143  0.64643  Biso   1.000  H
  C197     1.0000 0.36757  0.93673  0.61993  Biso   1.000  C
  C198     1.0000 0.40697  0.97033  0.60663  Biso   1.000  C
  C199     1.0000 0.39457  0.98923  0.58833  Biso   1.000  C
  C200     1.0000 0.34607  0.97633  0.58423  Biso   1.000  C
  H265     1.0000 0.33887  0.98983  0.57223  Biso   1.000  H
  C201     1.0000 0.30857  0.94423  0.59763  Biso   1.000  C
  C202     1.0000 0.32007  0.92563  0.61523  Biso   1.000  C
  H266     1.0000 0.29457  0.90433  0.62453  Biso   1.000  H
  C203     1.0000 0.43017  0.02263  0.57323  Biso   1.000  C
  H267     1.0000 0.41847  0.03213  0.56123  Biso   1.000  H
  N16      1.0000 0.47557  0.04003  0.57473  Biso   1.000  N
  O30      1.0000 0.49847  0.07193  0.55723  Biso   1.000  O
  C204     1.0000 0.61197  0.15113  0.52713  Biso   1.000  C
  H268     1.0000 0.63237  0.13953  0.53223  Biso   1.000  H
  C205     1.0000 0.62757  0.18203  0.50973  Biso   1.000  C
  H269     1.0000 0.65857  0.19183  0.50383  Biso   1.000  H
  O31      1.0000 0.45147  0.98223  0.61083  Biso   1.000  O
  C206     1.0000 0.25567  0.92913  0.59233  Biso   1.000  C
  O32      1.0000 0.65867  0.24593  0.47482  Biso   1.000  O
  C207     1.0000 0.60667  0.21713  0.68323  Biso   1.000  C
  C208     1.0000 0.57137  0.20653  0.70203  Biso   1.000  C
  H270     1.0000 0.53957  0.19893  0.69643  Biso   1.000  H
  H271     1.0000 0.56807  0.17883  0.71023  Biso   1.000  H
  H272     1.0000 0.58397  0.23503  0.71133  Biso   1.000  H
  C209     1.0000 0.61097  0.26043  0.67063  Biso   1.000  C
  H273     1.0000 0.57857  0.25333  0.66593  Biso   1.000  H
  H274     1.0000 0.62537  0.28933  0.67973  Biso   1.000  H
  H275     1.0000 0.63147  0.26623  0.65803  Biso   1.000  H
  C210     1.0000 0.25307  0.97463  0.58673  Biso   1.000  C
  H276     1.0000 0.27607  0.99233  0.57523  Biso   1.000  H
  H277     1.0000 0.22017  0.96513  0.58193  Biso   1.000  H
  H278     1.0000 0.26117  0.99543  0.59933  Biso   1.000  H
  C211     1.0000 0.65757  0.22943  0.69013  Biso   1.000  C
  H279     1.0000 0.65567  0.20223  0.69833  Biso   1.000  H
  H280     1.0000 0.67787  0.23543  0.67743  Biso   1.000  H
  H281     1.0000 0.67167  0.25853  0.69923  Biso   1.000  H
  C212     1.0000 0.25167  0.94533  0.56963  Biso   1.000  C
  H282     1.0000 0.27297  0.98113  0.56873  Biso   1.000  H
  H283     1.0000 0.26367  0.93043  0.55933  Biso   1.000  H
  H284     1.0000 0.21877  0.93643  0.56653  Biso   1.000  H
  C213     1.0000 0.24177  0.89453  0.57303  Biso   1.000  C
  H285     1.0000 0.26427  0.91103  0.56123  Biso   1.000  H
  H286     1.0000 0.24357  0.86573  0.57723  Biso   1.000  H
  H287     1.0000 0.20867  0.88473  0.56853  Biso   1.000  H
  C214     1.0000 0.22287  0.87393  0.59233  Biso   1.000  C
  H288     1.0000 0.23377  0.85973  0.58133  Biso   1.000  H
  H289     1.0000 0.22457  0.86113  0.60643  Biso   1.000  H
  H290     1.0000 0.18937  0.86573  0.58943  Biso   1.000  H
  C215     1.0000 0.22037  0.90233  0.61013  Biso   1.000  C
  H291     1.0000 0.22147  0.87273  0.61383  Biso   1.000  H
  H292     1.0000 0.22807  0.92273  0.62283  Biso   1.000  H
  H293     1.0000 0.18707  0.89243  0.60533  Biso   1.000  H
  C216     1.0000 0.23787  0.95033  0.60973  Biso   1.000  C
  H294     1.0000 0.25907  0.98613  0.60983  Biso   1.000  H
  H295     1.0000 0.20467  0.94233  0.60673  Biso   1.000  H
  H296     1.0000 0.23977  0.93763  0.62373  Biso   1.000  H
  C217     1.0000 0.09943  0.20837  0.03037  Biso   1.000  C
  C218     1.0000 0.12183  0.22177  0.05047  Biso   1.000  C
  H297     1.0000 0.14863  0.25357  0.05227  Biso   1.000  H
  C219     1.0000 0.10623  0.19017  0.06767  Biso   1.000  C
  H298     1.0000 0.12153  0.20117  0.08127  Biso   1.000  H
  C220     1.0000 0.06913  0.14327  0.06557  Biso   1.000  C
  C221     1.0000 0.04373  0.12937  0.04607  Biso   1.000  C
  H299     1.0000 0.01653  0.09787  0.04447  Biso   1.000  H
  C222     1.0000 0.05873  0.16207  0.02917  Biso   1.000  C
  H300     1.0000 0.04063  0.15257  0.01627  Biso   1.000  H
  O33      1.0000 0.07703  0.23007  0.99817  Biso   1.000  O
  N17      1.0000 0.08333  0.25807  0.97937  Biso   1.000  N
  C223     1.0000 0.04203  0.24817  0.97217  Biso   1.000  C
  H301     1.0000 0.01413  0.22477  0.97977  Biso   1.000  H
  C224     1.0000 0.03423  0.27007  0.95327  Biso   1.000  C
  C225     1.0000 0.07363  0.30367  0.93997  Biso   1.000  C
  C226     1.0000 0.06123  0.32257  0.92167  Biso   1.000  C
  C227     1.0000 0.01273  0.30967  0.91757  Biso   1.000  C
  H302     1.0000 0.00553  0.32317  0.90557  Biso   1.000  H
  C228     1.0000 0.97523  0.27757  0.93097  Biso   1.000  C
  C229     1.0000 0.98673  0.25897  0.94857  Biso   1.000  C
  H303     1.0000 0.96123  0.23767  0.95787  Biso   1.000  H
  C230     1.0000 0.09683  0.35597  0.90657  Biso   1.000  C
  H304     1.0000 0.08513  0.36547  0.89457  Biso   1.000  H
  N18      1.0000 0.14223  0.37337  0.90807  Biso   1.000  N
  O34      1.0000 0.16513  0.40527  0.89057  Biso   1.000  O
  C231     1.0000 0.27863  0.48447  0.86047  Biso   1.000  C
  H305     1.0000 0.29903  0.47287  0.86557  Biso   1.000  H
  C232     1.0000 0.29423  0.51537  0.84307  Biso   1.000  C
  H306     1.0000 0.32523  0.52517  0.83717  Biso   1.000  H
  O35      1.0000 0.11813  0.31557  0.94417  Biso   1.000  O
  C233     1.0000 0.92233  0.26247  0.92567  Biso   1.000  C
  O36      1.0000 0.32533  0.57927  0.80816  Biso   1.000  O
  C234     1.0000 0.27333  0.55047  0.01657  Biso   1.000  C
  C235     1.0000 0.23803  0.53987  0.03537  Biso   1.000  C
  H307     1.0000 0.20623  0.53227  0.02977  Biso   1.000  H
  H308     1.0000 0.23473  0.51217  0.04357  Biso   1.000  H
  H309     1.0000 0.25063  0.56837  0.04467  Biso   1.000  H
  C236     1.0000 0.27763  0.59377  0.00397  Biso   1.000  C
  H310     1.0000 0.24523  0.58667  0.99927  Biso   1.000  H
  H311     1.0000 0.29203  0.62267  0.01307  Biso   1.000  H
  H312     1.0000 0.29813  0.59957  0.99137  Biso   1.000  H
  C237     1.0000 0.91973  0.30797  0.92007  Biso   1.000  C
  H313     1.0000 0.94273  0.32567  0.90857  Biso   1.000  H
  H314     1.0000 0.88683  0.29847  0.91527  Biso   1.000  H
  H315     1.0000 0.92783  0.32877  0.93267  Biso   1.000  H
  C238     1.0000 0.32423  0.56277  0.02347  Biso   1.000  C
  H316     1.0000 0.32233  0.53557  0.03167  Biso   1.000  H
  H317     1.0000 0.34453  0.56877  0.01077  Biso   1.000  H
  H318     1.0000 0.33833  0.59187  0.03257  Biso   1.000  H
  C239     1.0000 0.91833  0.27867  0.90297  Biso   1.000  C
  H319     1.0000 0.93963  0.31447  0.90207  Biso   1.000  H
  H320     1.0000 0.93033  0.26377  0.89267  Biso   1.000  H
  H321     1.0000 0.88543  0.26977  0.89987  Biso   1.000  H
  C240     1.0000 0.90843  0.22787  0.90637  Biso   1.000  C
  H322     1.0000 0.93093  0.24437  0.89457  Biso   1.000  H
  H323     1.0000 0.91023  0.19907  0.91057  Biso   1.000  H
  H324     1.0000 0.87533  0.21807  0.90187  Biso   1.000  H
  C241     1.0000 0.88953  0.20727  0.92567  Biso   1.000  C
  H325     1.0000 0.90043  0.19307  0.91467  Biso   1.000  H
  H326     1.0000 0.89123  0.19447  0.93977  Biso   1.000  H
  H327     1.0000 0.85603  0.19907  0.92277  Biso   1.000  H
  C242     1.0000 0.88703  0.23567  0.94347  Biso   1.000  C
  H328     1.0000 0.88813  0.20607  0.94717  Biso   1.000  H
  H329     1.0000 0.89473  0.25607  0.95617  Biso   1.000  H
  H330     1.0000 0.85373  0.22577  0.93867  Biso   1.000  H
  C243     1.0000 0.90453  0.28367  0.94307  Biso   1.000  C
  H331     1.0000 0.92573  0.31947  0.94317  Biso   1.000  H
  H332     1.0000 0.87133  0.27567  0.94007  Biso   1.000  H
  H333     1.0000 0.90643  0.27097  0.95707  Biso   1.000  H
  C244     1.0000 0.77560  0.54170  0.36370  Biso   1.000  C
  C245     1.0000 0.76660  0.55510  0.38380  Biso   1.000  C
  H334     1.0000 0.77160  0.58690  0.38560  Biso   1.000  H
  C246     1.0000 0.75060  0.52350  0.40100  Biso   1.000  C
  H335     1.0000 0.74630  0.53450  0.41460  Biso   1.000  H
  C247     1.0000 0.74080  0.47660  0.39890  Biso   1.000  C
  C248     1.0000 0.75230  0.46270  0.37940  Biso   1.000  C
  H336     1.0000 0.74800  0.43120  0.37780  Biso   1.000  H
  C249     1.0000 0.77000  0.49540  0.36250  Biso   1.000  C
  H337     1.0000 0.77860  0.48590  0.34960  Biso   1.000  H
  O37      1.0000 0.81970  0.56340  0.33150  Biso   1.000  O
  N19      1.0000 0.84140  0.59140  0.31270  Biso   1.000  N
  C250     1.0000 0.87280  0.58150  0.30550  Biso   1.000  C
  H338     1.0000 0.87730  0.55810  0.31310  Biso   1.000  H
  C251     1.0000 0.90250  0.60340  0.28660  Biso   1.000  C
  C252     1.0000 0.89670  0.63700  0.27330  Biso   1.000  C
  C253     1.0000 0.92800  0.65590  0.25500  Biso   1.000  C
  C254     1.0000 0.96360  0.64300  0.25090  Biso   1.000  C
  H339     1.0000 0.98430  0.65650  0.23890  Biso   1.000  H
  C255     1.0000 0.96900  0.61090  0.26430  Biso   1.000  C
  C256     1.0000 0.93890  0.59230  0.28190  Biso   1.000  C
  H340     1.0000 0.94310  0.57100  0.29120  Biso   1.000  H
  C257     1.0000 0.92580  0.68930  0.23990  Biso   1.000  C
  H341     1.0000 0.94700  0.69880  0.22790  Biso   1.000  H
  N20      1.0000 0.89780  0.70670  0.24140  Biso   1.000  N
  O38      1.0000 0.90680  0.73860  0.22390  Biso   1.000  O
  C258     1.0000 0.87250  0.81780  0.19380  Biso   1.000  C
  H342     1.0000 0.84050  0.80620  0.19890  Biso   1.000  H
  C259     1.0000 0.88780  0.84870  0.17640  Biso   1.000  C
  H343     1.0000 0.86660  0.85850  0.17050  Biso   1.000  H
  O39      1.0000 0.86410  0.64890  0.27750  Biso   1.000  O
  C260     1.0000 0.00680  0.59580  0.25900  Biso   1.000  C
  O40      1.0000 0.92060  0.91260  0.14149  Biso   1.000  O
  C261     1.0000 0.94380  0.88380  0.34990  Biso   1.000  C
  C262     1.0000 0.96850  0.87320  0.36870  Biso   1.000  C
  H344     1.0000 0.99270  0.86560  0.36310  Biso   1.000  H
  H345     1.0000 0.94410  0.84550  0.37690  Biso   1.000  H
  H346     1.0000 0.98440  0.90170  0.37800  Biso   1.000  H
  C263     1.0000 0.98280  0.92710  0.33730  Biso   1.000  C
  H347     1.0000 0.00810  0.92000  0.33260  Biso   1.000  H
  H348     1.0000 0.99730  0.95600  0.34640  Biso   1.000  H
  H349     1.0000 0.96810  0.93290  0.32470  Biso   1.000  H
  C264     1.0000 0.05490  0.64130  0.25340  Biso   1.000  C
  H350     1.0000 0.04960  0.65900  0.24190  Biso   1.000  H
  H351     1.0000 0.07830  0.63180  0.24860  Biso   1.000  H
  H352     1.0000 0.06760  0.66210  0.26600  Biso   1.000  H
  C265     1.0000 0.90520  0.89610  0.35680  Biso   1.000  C
  H353     1.0000 0.87990  0.86890  0.36500  Biso   1.000  H
  H354     1.0000 0.89090  0.90210  0.34410  Biso   1.000  H
  H355     1.0000 0.92020  0.92520  0.36590  Biso   1.000  H
  C266     1.0000 0.02700  0.61200  0.23630  Biso   1.000  C
  H356     1.0000 0.04150  0.64780  0.23540  Biso   1.000  H
  H357     1.0000 0.00010  0.59710  0.22600  Biso   1.000  H
  H358     1.0000 0.05100  0.60310  0.23320  Biso   1.000  H
  C267     1.0000 0.98610  0.56120  0.23970  Biso   1.000  C
  H359     1.0000 0.98010  0.57770  0.22790  Biso   1.000  H
  H360     1.0000 0.95550  0.53240  0.24390  Biso   1.000  H
  H361     1.0000 0.00940  0.55140  0.23520  Biso   1.000  H
  C268     1.0000 0.98440  0.54060  0.25900  Biso   1.000  C
  H362     1.0000 0.95930  0.52640  0.24800  Biso   1.000  H
  H363     1.0000 0.96990  0.52780  0.27310  Biso   1.000  H
  H364     1.0000 0.00970  0.53240  0.25610  Biso   1.000  H
  C269     1.0000 0.01530  0.56900  0.27680  Biso   1.000  C
  H365     1.0000 0.98460  0.53940  0.28050  Biso   1.000  H
  H366     1.0000 0.02800  0.58940  0.28950  Biso   1.000  H
  H367     1.0000 0.03870  0.55910  0.27200  Biso   1.000  H
  C270     1.0000 0.04580  0.61700  0.27640  Biso   1.000  C
  H368     1.0000 0.06040  0.65280  0.27650  Biso   1.000  H
  H369     1.0000 0.07100  0.60900  0.27340  Biso   1.000  H
  H370     1.0000 0.03120  0.60430  0.29040  Biso   1.000  H
  C271     1.0000 0.44227  0.87503  0.69703  Biso   1.000  C
  C272     1.0000 0.43327  0.88843  0.71713  Biso   1.000  C
  H371     1.0000 0.43827  0.92023  0.71893  Biso   1.000  H
  C273     1.0000 0.41727  0.85683  0.73433  Biso   1.000  C
  H372     1.0000 0.41297  0.86783  0.74793  Biso   1.000  H
  C274     1.0000 0.40747  0.80993  0.73223  Biso   1.000  C
  C275     1.0000 0.41897  0.79603  0.71273  Biso   1.000  C
  H373     1.0000 0.41467  0.76453  0.71113  Biso   1.000  H
  C276     1.0000 0.43667  0.82873  0.69583  Biso   1.000  C
  H374     1.0000 0.44527  0.81923  0.68293  Biso   1.000  H
  O41      1.0000 0.48637  0.89673  0.66483  Biso   1.000  O
  N21      1.0000 0.50807  0.92473  0.64603  Biso   1.000  N
  C277     1.0000 0.53947  0.91483  0.63883  Biso   1.000  C
  H375     1.0000 0.54397  0.89143  0.64643  Biso   1.000  H
  C278     1.0000 0.56917  0.93673  0.61993  Biso   1.000  C
  C279     1.0000 0.56337  0.97033  0.60663  Biso   1.000  C
  C280     1.0000 0.59467  0.98923  0.58833  Biso   1.000  C
  C281     1.0000 0.63027  0.97633  0.58423  Biso   1.000  C
  H376     1.0000 0.65097  0.98983  0.57223  Biso   1.000  H
  C282     1.0000 0.63567  0.94423  0.59763  Biso   1.000  C
  C283     1.0000 0.60557  0.92563  0.61523  Biso   1.000  C
  H377     1.0000 0.60977  0.90433  0.62453  Biso   1.000  H
  C284     1.0000 0.59247  0.02263  0.57323  Biso   1.000  C
  H378     1.0000 0.61367  0.03213  0.56123  Biso   1.000  H
  N22      1.0000 0.56447  0.04003  0.57473  Biso   1.000  N
  O42      1.0000 0.57347  0.07193  0.55723  Biso   1.000  O
  C285     1.0000 0.53917  0.15113  0.52713  Biso   1.000  C
  H379     1.0000 0.50717  0.13953  0.53223  Biso   1.000  H
  C286     1.0000 0.55447  0.18203  0.50973  Biso   1.000  C
  H380     1.0000 0.53327  0.19183  0.50383  Biso   1.000  H
  O43      1.0000 0.53077  0.98223  0.61083  Biso   1.000  O
  C287     1.0000 0.67347  0.92913  0.59233  Biso   1.000  C
  O44      1.0000 0.58727  0.24593  0.47482  Biso   1.000  O
  C288     1.0000 0.61047  0.21713  0.68323  Biso   1.000  C
  C289     1.0000 0.63517  0.20653  0.70203  Biso   1.000  C
  H381     1.0000 0.65937  0.19893  0.69643  Biso   1.000  H
  H382     1.0000 0.61077  0.17883  0.71023  Biso   1.000  H
  H383     1.0000 0.65107  0.23503  0.71133  Biso   1.000  H
  C290     1.0000 0.64947  0.26043  0.67063  Biso   1.000  C
  H384     1.0000 0.67477  0.25333  0.66593  Biso   1.000  H
  H385     1.0000 0.66397  0.28933  0.67973  Biso   1.000  H
  H386     1.0000 0.63477  0.26623  0.65803  Biso   1.000  H
  C291     1.0000 0.72157  0.97463  0.58673  Biso   1.000  C
  H387     1.0000 0.71627  0.99233  0.57523  Biso   1.000  H
  H388     1.0000 0.74497  0.96513  0.58193  Biso   1.000  H
  H389     1.0000 0.73427  0.99543  0.59933  Biso   1.000  H
  C292     1.0000 0.57187  0.22943  0.69013  Biso   1.000  C
  H390     1.0000 0.54657  0.20223  0.69833  Biso   1.000  H
  H391     1.0000 0.55757  0.23543  0.67743  Biso   1.000  H
  H392     1.0000 0.58687  0.25853  0.69923  Biso   1.000  H
  C293     1.0000 0.69367  0.94533  0.56963  Biso   1.000  C
  H393     1.0000 0.70817  0.98113  0.56873  Biso   1.000  H
  H394     1.0000 0.66677  0.93043  0.55933  Biso   1.000  H
  H395     1.0000 0.71767  0.93643  0.56653  Biso   1.000  H
  C294     1.0000 0.65277  0.89453  0.57303  Biso   1.000  C
  H396     1.0000 0.64677  0.91103  0.56123  Biso   1.000  H
  H397     1.0000 0.62217  0.86573  0.57723  Biso   1.000  H
  H398     1.0000 0.67607  0.88473  0.56853  Biso   1.000  H
  C295     1.0000 0.65107  0.87393  0.59233  Biso   1.000  C
  H399     1.0000 0.62597  0.85973  0.58133  Biso   1.000  H
  H400     1.0000 0.63657  0.86113  0.60643  Biso   1.000  H
  H401     1.0000 0.67637  0.86573  0.58943  Biso   1.000  H
  C296     1.0000 0.68197  0.90233  0.61013  Biso   1.000  C
  H402     1.0000 0.65127  0.87273  0.61383  Biso   1.000  H
  H403     1.0000 0.69467  0.92273  0.62283  Biso   1.000  H
  H404     1.0000 0.70537  0.89243  0.60533  Biso   1.000  H
  C297     1.0000 0.71247  0.95033  0.60973  Biso   1.000  C
  H405     1.0000 0.72707  0.98613  0.60983  Biso   1.000  H
  H406     1.0000 0.73767  0.94233  0.60673  Biso   1.000  H
  H407     1.0000 0.69787  0.93763  0.62373  Biso   1.000  H
  C298     1.0000 0.10893  0.20837  0.03037  Biso   1.000  C
  C299     1.0000 0.09993  0.22177  0.05047  Biso   1.000  C
  H408     1.0000 0.10493  0.25357  0.05227  Biso   1.000  H
  C300     1.0000 0.08393  0.19017  0.06767  Biso   1.000  C
  H409     1.0000 0.07963  0.20117  0.08127  Biso   1.000  H
  C301     1.0000 0.07413  0.14327  0.06557  Biso   1.000  C
  C302     1.0000 0.08563  0.12937  0.04607  Biso   1.000  C
  H410     1.0000 0.08133  0.09787  0.04447  Biso   1.000  H
  C303     1.0000 0.10333  0.16207  0.02917  Biso   1.000  C
  H411     1.0000 0.11193  0.15257  0.01627  Biso   1.000  H
  O45      1.0000 0.15303  0.23007  0.99817  Biso   1.000  O
  N23      1.0000 0.17473  0.25807  0.97937  Biso   1.000  N
  C304     1.0000 0.20613  0.24817  0.97217  Biso   1.000  C
  H412     1.0000 0.21063  0.22477  0.97977  Biso   1.000  H
  C305     1.0000 0.23583  0.27007  0.95327  Biso   1.000  C
  C306     1.0000 0.23003  0.30367  0.93997  Biso   1.000  C
  C307     1.0000 0.26133  0.32257  0.92167  Biso   1.000  C
  C308     1.0000 0.29693  0.30967  0.91757  Biso   1.000  C
  H413     1.0000 0.31763  0.32317  0.90557  Biso   1.000  H
  C309     1.0000 0.30233  0.27757  0.93097  Biso   1.000  C
  C310     1.0000 0.27223  0.25897  0.94857  Biso   1.000  C
  H414     1.0000 0.27643  0.23767  0.95787  Biso   1.000  H
  C311     1.0000 0.25913  0.35597  0.90657  Biso   1.000  C
  H415     1.0000 0.28033  0.36547  0.89457  Biso   1.000  H
  N24      1.0000 0.23113  0.37337  0.90807  Biso   1.000  N
  O46      1.0000 0.24013  0.40527  0.89057  Biso   1.000  O
  C312     1.0000 0.20583  0.48447  0.86047  Biso   1.000  C
  H416     1.0000 0.17383  0.47287  0.86557  Biso   1.000  H
  C313     1.0000 0.22113  0.51537  0.84307  Biso   1.000  C
  H417     1.0000 0.19993  0.52517  0.83717  Biso   1.000  H
  O47      1.0000 0.19743  0.31557  0.94417  Biso   1.000  O
  C314     1.0000 0.34013  0.26247  0.92567  Biso   1.000  C
  O48      1.0000 0.25393  0.57927  0.80816  Biso   1.000  O
  C315     1.0000 0.27713  0.55047  0.01657  Biso   1.000  C
  C316     1.0000 0.30183  0.53987  0.03537  Biso   1.000  C
  H418     1.0000 0.32603  0.53227  0.02977  Biso   1.000  H
  H419     1.0000 0.27743  0.51217  0.04357  Biso   1.000  H
  H420     1.0000 0.31773  0.56837  0.04467  Biso   1.000  H
  C317     1.0000 0.31613  0.59377  0.00397  Biso   1.000  C
  H421     1.0000 0.34143  0.58667  0.99927  Biso   1.000  H
  H422     1.0000 0.33063  0.62267  0.01307  Biso   1.000  H
  H423     1.0000 0.30143  0.59957  0.99137  Biso   1.000  H
  C318     1.0000 0.38823  0.30797  0.92007  Biso   1.000  C
  H424     1.0000 0.38293  0.32567  0.90857  Biso   1.000  H
  H425     1.0000 0.41163  0.29847  0.91527  Biso   1.000  H
  H426     1.0000 0.40093  0.32877  0.93267  Biso   1.000  H
  C319     1.0000 0.23853  0.56277  0.02347  Biso   1.000  C
  H427     1.0000 0.21323  0.53557  0.03167  Biso   1.000  H
  H428     1.0000 0.22423  0.56877  0.01077  Biso   1.000  H
  H429     1.0000 0.25353  0.59187  0.03257  Biso   1.000  H
  C320     1.0000 0.36033  0.27867  0.90297  Biso   1.000  C
  H430     1.0000 0.37483  0.31447  0.90207  Biso   1.000  H
  H431     1.0000 0.33343  0.26377  0.89267  Biso   1.000  H
  H432     1.0000 0.38433  0.26977  0.89987  Biso   1.000  H
  C321     1.0000 0.31943  0.22787  0.90637  Biso   1.000  C
  H433     1.0000 0.31343  0.24437  0.89457  Biso   1.000  H
  H434     1.0000 0.28883  0.19907  0.91057  Biso   1.000  H
  H435     1.0000 0.34273  0.21807  0.90187  Biso   1.000  H
  C322     1.0000 0.31773  0.20727  0.92567  Biso   1.000  C
  H436     1.0000 0.29263  0.19307  0.91467  Biso   1.000  H
  H437     1.0000 0.30323  0.19447  0.93977  Biso   1.000  H
  H438     1.0000 0.34303  0.19907  0.92277  Biso   1.000  H
  C323     1.0000 0.34863  0.23567  0.94347  Biso   1.000  C
  H439     1.0000 0.31793  0.20607  0.94717  Biso   1.000  H
  H440     1.0000 0.36133  0.25607  0.95617  Biso   1.000  H
  H441     1.0000 0.37203  0.22577  0.93867  Biso   1.000  H
  C324     1.0000 0.37913  0.28367  0.94307  Biso   1.000  C
  H442     1.0000 0.39373  0.31947  0.94317  Biso   1.000  H
  H443     1.0000 0.40433  0.27567  0.94007  Biso   1.000  H
  H444     1.0000 0.36453  0.27097  0.95707  Biso   1.000  H
  C325     1.0000 0.76610  0.22440  0.36370  Biso   1.000  C
  C326     1.0000 0.78850  0.23340  0.38380  Biso   1.000  C
  H445     1.0000 0.81530  0.22840  0.38560  Biso   1.000  H
  C327     1.0000 0.77290  0.24940  0.40100  Biso   1.000  C
  H446     1.0000 0.78820  0.25370  0.41460  Biso   1.000  H
  C328     1.0000 0.73580  0.25920  0.39890  Biso   1.000  C
  C329     1.0000 0.71040  0.24770  0.37940  Biso   1.000  C
  H447     1.0000 0.68320  0.25200  0.37780  Biso   1.000  H
  C330     1.0000 0.72540  0.23000  0.36250  Biso   1.000  C
  H448     1.0000 0.70730  0.22140  0.34960  Biso   1.000  H
  O49      1.0000 0.74370  0.18030  0.33150  Biso   1.000  O
  N25      1.0000 0.75000  0.15860  0.31270  Biso   1.000  N
  C331     1.0000 0.70870  0.12720  0.30550  Biso   1.000  C
  H449     1.0000 0.68080  0.12270  0.31310  Biso   1.000  H
  C332     1.0000 0.70090  0.09750  0.28660  Biso   1.000  C
  C333     1.0000 0.74030  0.10330  0.27330  Biso   1.000  C
  C334     1.0000 0.72790  0.07200  0.25500  Biso   1.000  C
  C335     1.0000 0.67940  0.03640  0.25090  Biso   1.000  C
  H450     1.0000 0.67220  0.01570  0.23890  Biso   1.000  H
  C336     1.0000 0.64190  0.03100  0.26430  Biso   1.000  C
  C337     1.0000 0.65340  0.06110  0.28190  Biso   1.000  C
  H451     1.0000 0.62790  0.05690  0.29120  Biso   1.000  H
  C338     1.0000 0.76350  0.07420  0.23990  Biso   1.000  C
  H452     1.0000 0.75180  0.05300  0.22790  Biso   1.000  H
  N26      1.0000 0.80890  0.10220  0.24140  Biso   1.000  N
  O50      1.0000 0.83180  0.09320  0.22390  Biso   1.000  O
  C339     1.0000 0.94530  0.12750  0.19380  Biso   1.000  C
  H453     1.0000 0.96570  0.15950  0.19890  Biso   1.000  H
  C340     1.0000 0.96090  0.11220  0.17640  Biso   1.000  C
  H454     1.0000 0.99190  0.13340  0.17050  Biso   1.000  H
  O51      1.0000 0.78480  0.13590  0.27750  Biso   1.000  O
  C341     1.0000 0.58900  0.99320  0.25900  Biso   1.000  C
  O52      1.0000 0.99200  0.07940  0.14149  Biso   1.000  O
  C342     1.0000 0.94000  0.05620  0.34990  Biso   1.000  C
  C343     1.0000 0.90470  0.03150  0.36870  Biso   1.000  C
  H455     1.0000 0.87290  0.00730  0.36310  Biso   1.000  H
  H456     1.0000 0.90140  0.05590  0.37690  Biso   1.000  H
  H457     1.0000 0.91730  0.01560  0.37800  Biso   1.000  H
  C344     1.0000 0.94430  0.01720  0.33730  Biso   1.000  C
  H458     1.0000 0.91190  0.99190  0.33260  Biso   1.000  H
  H459     1.0000 0.95870  0.00270  0.34640  Biso   1.000  H
  H460     1.0000 0.96480  0.03190  0.32470  Biso   1.000  H
  C345     1.0000 0.58640  0.94510  0.25340  Biso   1.000  C
  H461     1.0000 0.60940  0.95040  0.24190  Biso   1.000  H
  H462     1.0000 0.55350  0.92170  0.24860  Biso   1.000  H
  H463     1.0000 0.59450  0.93240  0.26600  Biso   1.000  H
  C346     1.0000 0.99090  0.09480  0.35680  Biso   1.000  C
  H464     1.0000 0.98900  0.12010  0.36500  Biso   1.000  H
  H465     1.0000 0.01120  0.10910  0.34410  Biso   1.000  H
  H466     1.0000 0.00500  0.07980  0.36590  Biso   1.000  H
  C347     1.0000 0.58500  0.97300  0.23630  Biso   1.000  C
  H467     1.0000 0.60630  0.95850  0.23540  Biso   1.000  H
  H468     1.0000 0.59700  0.99990  0.22600  Biso   1.000  H
  H469     1.0000 0.55210  0.94900  0.23320  Biso   1.000  H
  C348     1.0000 0.57510  0.01390  0.23970  Biso   1.000  C
  H470     1.0000 0.59760  0.01990  0.22790  Biso   1.000  H
  H471     1.0000 0.57690  0.04450  0.24390  Biso   1.000  H
  H472     1.0000 0.54200  0.99060  0.23520  Biso   1.000  H
  C349     1.0000 0.55620  0.01560  0.25900  Biso   1.000  C
  H473     1.0000 0.56710  0.04070  0.24800  Biso   1.000  H
  H474     1.0000 0.55790  0.03010  0.27310  Biso   1.000  H
  H475     1.0000 0.52270  0.99030  0.25610  Biso   1.000  H
  C350     1.0000 0.55370  0.98470  0.27680  Biso   1.000  C
  H476     1.0000 0.55480  0.01540  0.28050  Biso   1.000  H
  H477     1.0000 0.56140  0.97200  0.28950  Biso   1.000  H
  H478     1.0000 0.52040  0.96130  0.27200  Biso   1.000  H
  C351     1.0000 0.57120  0.95420  0.27640  Biso   1.000  C
  H479     1.0000 0.59240  0.93960  0.27650  Biso   1.000  H
  H480     1.0000 0.53800  0.92900  0.27340  Biso   1.000  H
  H481     1.0000 0.57310  0.96880  0.29040  Biso   1.000  H
  C352     1.0000 0.43277  0.55773  0.69703  Biso   1.000  C
  C353     1.0000 0.45517  0.56673  0.71713  Biso   1.000  C
  H482     1.0000 0.48197  0.56173  0.71893  Biso   1.000  H
  C354     1.0000 0.43957  0.58273  0.73433  Biso   1.000  C
  H483     1.0000 0.45487  0.58703  0.74793  Biso   1.000  H
  C355     1.0000 0.40247  0.59253  0.73223  Biso   1.000  C
  C356     1.0000 0.37707  0.58103  0.71273  Biso   1.000  C
  H484     1.0000 0.34987  0.58533  0.71113  Biso   1.000  H
  C357     1.0000 0.39207  0.56333  0.69583  Biso   1.000  C
  H485     1.0000 0.37397  0.55473  0.68293  Biso   1.000  H
  O53      1.0000 0.41037  0.51363  0.66483  Biso   1.000  O
  N27      1.0000 0.41667  0.49193  0.64603  Biso   1.000  N
  C358     1.0000 0.37537  0.46053  0.63883  Biso   1.000  C
  H486     1.0000 0.34747  0.45603  0.64643  Biso   1.000  H
  C359     1.0000 0.36757  0.43083  0.61993  Biso   1.000  C
  C360     1.0000 0.40697  0.43663  0.60663  Biso   1.000  C
  C361     1.0000 0.39457  0.40533  0.58833  Biso   1.000  C
  C362     1.0000 0.34607  0.36973  0.58423  Biso   1.000  C
  H487     1.0000 0.33887  0.34903  0.57223  Biso   1.000  H
  C363     1.0000 0.30857  0.36433  0.59763  Biso   1.000  C
  C364     1.0000 0.32007  0.39443  0.61523  Biso   1.000  C
  H488     1.0000 0.29457  0.39023  0.62453  Biso   1.000  H
  C365     1.0000 0.43017  0.40753  0.57323  Biso   1.000  C
  H489     1.0000 0.41847  0.38633  0.56123  Biso   1.000  H
  N28      1.0000 0.47557  0.43553  0.57473  Biso   1.000  N
  O54      1.0000 0.49847  0.42653  0.55723  Biso   1.000  O
  C366     1.0000 0.61197  0.46083  0.52713  Biso   1.000  C
  H490     1.0000 0.63237  0.49283  0.53223  Biso   1.000  H
  C367     1.0000 0.62757  0.44553  0.50973  Biso   1.000  C
  H491     1.0000 0.65857  0.46673  0.50383  Biso   1.000  H
  O55      1.0000 0.45147  0.46923  0.61083  Biso   1.000  O
  C368     1.0000 0.25567  0.32653  0.59233  Biso   1.000  C
  O56      1.0000 0.65867  0.41273  0.47482  Biso   1.000  O
  C369     1.0000 0.60667  0.38953  0.68323  Biso   1.000  C
  C370     1.0000 0.57137  0.36483  0.70203  Biso   1.000  C
  H492     1.0000 0.53957  0.34063  0.69643  Biso   1.000  H
  H493     1.0000 0.56807  0.38923  0.71023  Biso   1.000  H
  H494     1.0000 0.58397  0.34893  0.71133  Biso   1.000  H
  C371     1.0000 0.61097  0.35053  0.67063  Biso   1.000  C
  H495     1.0000 0.57857  0.32523  0.66593  Biso   1.000  H
  H496     1.0000 0.62537  0.33603  0.67973  Biso   1.000  H
  H497     1.0000 0.63147  0.36523  0.65803  Biso   1.000  H
  C372     1.0000 0.25307  0.27843  0.58673  Biso   1.000  C
  H498     1.0000 0.27607  0.28373  0.57523  Biso   1.000  H
  H499     1.0000 0.22017  0.25503  0.58193  Biso   1.000  H
  H500     1.0000 0.26117  0.26573  0.59933  Biso   1.000  H
  C373     1.0000 0.65757  0.42813  0.69013  Biso   1.000  C
  H501     1.0000 0.65567  0.45343  0.69833  Biso   1.000  H
  H502     1.0000 0.67787  0.44243  0.67743  Biso   1.000  H
  H503     1.0000 0.67167  0.41313  0.69923  Biso   1.000  H
  C374     1.0000 0.25167  0.30633  0.56963  Biso   1.000  C
  H504     1.0000 0.27297  0.29183  0.56873  Biso   1.000  H
  H505     1.0000 0.26367  0.33323  0.55933  Biso   1.000  H
  H506     1.0000 0.21877  0.28233  0.56653  Biso   1.000  H
  C375     1.0000 0.24177  0.34723  0.57303  Biso   1.000  C
  H507     1.0000 0.26427  0.35323  0.56123  Biso   1.000  H
  H508     1.0000 0.24357  0.37783  0.57723  Biso   1.000  H
  H509     1.0000 0.20867  0.32393  0.56853  Biso   1.000  H
  C376     1.0000 0.22287  0.34893  0.59233  Biso   1.000  C
  H510     1.0000 0.23377  0.37403  0.58133  Biso   1.000  H
  H511     1.0000 0.22457  0.36343  0.60643  Biso   1.000  H
  H512     1.0000 0.18937  0.32363  0.58943  Biso   1.000  H
  C377     1.0000 0.22037  0.31803  0.61013  Biso   1.000  C
  H513     1.0000 0.22147  0.34873  0.61383  Biso   1.000  H
  H514     1.0000 0.22807  0.30533  0.62283  Biso   1.000  H
  H515     1.0000 0.18707  0.29463  0.60533  Biso   1.000  H
  C378     1.0000 0.23787  0.28753  0.60973  Biso   1.000  C
  H516     1.0000 0.25907  0.27293  0.60983  Biso   1.000  H
  H517     1.0000 0.20467  0.26233  0.60673  Biso   1.000  H
  H518     1.0000 0.23977  0.30213  0.62373  Biso   1.000  H
  C379     1.0000 0.09943  0.89107  0.03037  Biso   1.000  C
  C380     1.0000 0.12183  0.90007  0.05047  Biso   1.000  C
  H519     1.0000 0.14863  0.89507  0.05227  Biso   1.000  H
  C381     1.0000 0.10623  0.91607  0.06767  Biso   1.000  C
  H520     1.0000 0.12153  0.92037  0.08127  Biso   1.000  H
  C382     1.0000 0.06913  0.92587  0.06557  Biso   1.000  C
  C383     1.0000 0.04373  0.91437  0.04607  Biso   1.000  C
  H521     1.0000 0.01653  0.91867  0.04447  Biso   1.000  H
  C384     1.0000 0.05873  0.89667  0.02917  Biso   1.000  C
  H522     1.0000 0.04063  0.88807  0.01627  Biso   1.000  H
  O57      1.0000 0.07703  0.84697  0.99817  Biso   1.000  O
  N29      1.0000 0.08333  0.82527  0.97937  Biso   1.000  N
  C385     1.0000 0.04203  0.79387  0.97217  Biso   1.000  C
  H523     1.0000 0.01413  0.78937  0.97977  Biso   1.000  H
  C386     1.0000 0.03423  0.76417  0.95327  Biso   1.000  C
  C387     1.0000 0.07363  0.76997  0.93997  Biso   1.000  C
  C388     1.0000 0.06123  0.73867  0.92167  Biso   1.000  C
  C389     1.0000 0.01273  0.70307  0.91757  Biso   1.000  C
  H524     1.0000 0.00553  0.68237  0.90557  Biso   1.000  H
  C390     1.0000 0.97523  0.69767  0.93097  Biso   1.000  C
  C391     1.0000 0.98673  0.72777  0.94857  Biso   1.000  C
  H525     1.0000 0.96123  0.72357  0.95787  Biso   1.000  H
  C392     1.0000 0.09683  0.74087  0.90657  Biso   1.000  C
  H526     1.0000 0.08513  0.71967  0.89457  Biso   1.000  H
  N30      1.0000 0.14223  0.76887  0.90807  Biso   1.000  N
  O58      1.0000 0.16513  0.75987  0.89057  Biso   1.000  O
  C393     1.0000 0.27863  0.79417  0.86047  Biso   1.000  C
  H527     1.0000 0.29903  0.82617  0.86557  Biso   1.000  H
  C394     1.0000 0.29423  0.77887  0.84307  Biso   1.000  C
  H528     1.0000 0.32523  0.80007  0.83717  Biso   1.000  H
  O59      1.0000 0.11813  0.80257  0.94417  Biso   1.000  O
  C395     1.0000 0.92233  0.65987  0.92567  Biso   1.000  C
  O60      1.0000 0.32533  0.74607  0.80816  Biso   1.000  O
  C396     1.0000 0.27333  0.72287  0.01657  Biso   1.000  C
  C397     1.0000 0.23803  0.69817  0.03537  Biso   1.000  C
  H529     1.0000 0.20623  0.67397  0.02977  Biso   1.000  H
  H530     1.0000 0.23473  0.72257  0.04357  Biso   1.000  H
  H531     1.0000 0.25063  0.68227  0.04467  Biso   1.000  H
  C398     1.0000 0.27763  0.68387  0.00397  Biso   1.000  C
  H532     1.0000 0.24523  0.65857  0.99927  Biso   1.000  H
  H533     1.0000 0.29203  0.66937  0.01307  Biso   1.000  H
  H534     1.0000 0.29813  0.69857  0.99137  Biso   1.000  H
  C399     1.0000 0.91973  0.61177  0.92007  Biso   1.000  C
  H535     1.0000 0.94273  0.61707  0.90857  Biso   1.000  H
  H536     1.0000 0.88683  0.58837  0.91527  Biso   1.000  H
  H537     1.0000 0.92783  0.59907  0.93267  Biso   1.000  H
  C400     1.0000 0.32423  0.76147  0.02347  Biso   1.000  C
  H538     1.0000 0.32233  0.78677  0.03167  Biso   1.000  H
  H539     1.0000 0.34453  0.77577  0.01077  Biso   1.000  H
  H540     1.0000 0.33833  0.74647  0.03257  Biso   1.000  H
  C401     1.0000 0.91833  0.63967  0.90297  Biso   1.000  C
  H541     1.0000 0.93963  0.62517  0.90207  Biso   1.000  H
  H542     1.0000 0.93033  0.66657  0.89267  Biso   1.000  H
  H543     1.0000 0.88543  0.61567  0.89987  Biso   1.000  H
  C402     1.0000 0.90843  0.68057  0.90637  Biso   1.000  C
  H544     1.0000 0.93093  0.68657  0.89457  Biso   1.000  H
  H545     1.0000 0.91023  0.71117  0.91057  Biso   1.000  H
  H546     1.0000 0.87533  0.65727  0.90187  Biso   1.000  H
  C403     1.0000 0.88953  0.68227  0.92567  Biso   1.000  C
  H547     1.0000 0.90043  0.70737  0.91467  Biso   1.000  H
  H548     1.0000 0.89123  0.69677  0.93977  Biso   1.000  H
  H549     1.0000 0.85603  0.65697  0.92277  Biso   1.000  H
  C404     1.0000 0.88703  0.65137  0.94347  Biso   1.000  C
  H550     1.0000 0.88813  0.68207  0.94717  Biso   1.000  H
  H551     1.0000 0.89473  0.63867  0.95617  Biso   1.000  H
  H552     1.0000 0.85373  0.62797  0.93867  Biso   1.000  H
  C405     1.0000 0.90453  0.62087  0.94307  Biso   1.000  C
  H553     1.0000 0.92573  0.60627  0.94317  Biso   1.000  H
  H554     1.0000 0.87133  0.59567  0.94007  Biso   1.000  H
  H555     1.0000 0.90643  0.63547  0.95707  Biso   1.000  H
  C406     1.0000 0.45830  0.23390  0.36370  Biso   1.000  C
  C407     1.0000 0.44490  0.21150  0.38380  Biso   1.000  C
  H556     1.0000 0.41310  0.18470  0.38560  Biso   1.000  H
  C408     1.0000 0.47650  0.22710  0.40100  Biso   1.000  C
  H557     1.0000 0.46550  0.21180  0.41460  Biso   1.000  H
  C409     1.0000 0.52340  0.26420  0.39890  Biso   1.000  C
  C410     1.0000 0.53730  0.28960  0.37940  Biso   1.000  C
  H558     1.0000 0.56880  0.31680  0.37780  Biso   1.000  H
  C411     1.0000 0.50460  0.27460  0.36250  Biso   1.000  C
  H559     1.0000 0.51410  0.29270  0.34960  Biso   1.000  H
  O61      1.0000 0.43660  0.25630  0.33150  Biso   1.000  O
  N31      1.0000 0.40860  0.25000  0.31270  Biso   1.000  N
  C412     1.0000 0.41850  0.29130  0.30550  Biso   1.000  C
  H560     1.0000 0.44190  0.31920  0.31310  Biso   1.000  H
  C413     1.0000 0.39660  0.29910  0.28660  Biso   1.000  C
  C414     1.0000 0.36300  0.25970  0.27330  Biso   1.000  C
  C415     1.0000 0.34410  0.27210  0.25500  Biso   1.000  C
  C416     1.0000 0.35700  0.32060  0.25090  Biso   1.000  C
  H561     1.0000 0.34350  0.32780  0.23890  Biso   1.000  H
  C417     1.0000 0.38910  0.35810  0.26430  Biso   1.000  C
  C418     1.0000 0.40770  0.34660  0.28190  Biso   1.000  C
  H562     1.0000 0.42900  0.37210  0.29120  Biso   1.000  H
  C419     1.0000 0.31070  0.23650  0.23990  Biso   1.000  C
  H563     1.0000 0.30120  0.24820  0.22790  Biso   1.000  H
  N32      1.0000 0.29330  0.19110  0.24140  Biso   1.000  N
  O62      1.0000 0.26140  0.16820  0.22390  Biso   1.000  O
  C420     1.0000 0.18220  0.05470  0.19380  Biso   1.000  C
  H564     1.0000 0.19380  0.03430  0.19890  Biso   1.000  H
  C421     1.0000 0.15130  0.03910  0.17640  Biso   1.000  C
  H565     1.0000 0.14150  0.00810  0.17050  Biso   1.000  H
  O63      1.0000 0.35110  0.21520  0.27750  Biso   1.000  O
  C422     1.0000 0.40420  0.41100  0.25900  Biso   1.000  C
  O64      1.0000 0.08740  0.00800  0.14149  Biso   1.000  O
  C423     1.0000 0.11620  0.06000  0.34990  Biso   1.000  C
  C424     1.0000 0.12680  0.09530  0.36870  Biso   1.000  C
  H566     1.0000 0.13440  0.12710  0.36310  Biso   1.000  H
  H567     1.0000 0.15450  0.09860  0.37690  Biso   1.000  H
  H568     1.0000 0.09830  0.08270  0.37800  Biso   1.000  H
  C425     1.0000 0.07290  0.05570  0.33730  Biso   1.000  C
  H569     1.0000 0.08000  0.08810  0.33260  Biso   1.000  H
  H570     1.0000 0.04400  0.04130  0.34640  Biso   1.000  H
  H571     1.0000 0.06710  0.03520  0.32470  Biso   1.000  H
  C426     1.0000 0.35870  0.41360  0.25340  Biso   1.000  C
  H572     1.0000 0.34100  0.39060  0.24190  Biso   1.000  H
  H573     1.0000 0.36820  0.44650  0.24860  Biso   1.000  H
  H574     1.0000 0.33790  0.40550  0.26600  Biso   1.000  H
  C427     1.0000 0.10390  0.00910  0.35680  Biso   1.000  C
  H575     1.0000 0.13110  0.01100  0.36500  Biso   1.000  H
  H576     1.0000 0.09790  0.98880  0.34410  Biso   1.000  H
  H577     1.0000 0.07480  0.99500  0.36590  Biso   1.000  H
  C428     1.0000 0.38800  0.41500  0.23630  Biso   1.000  C
  H578     1.0000 0.35220  0.39370  0.23540  Biso   1.000  H
  H579     1.0000 0.40290  0.40300  0.22600  Biso   1.000  H
  H580     1.0000 0.39690  0.44790  0.23320  Biso   1.000  H
  C429     1.0000 0.43880  0.42490  0.23970  Biso   1.000  C
  H581     1.0000 0.42230  0.40240  0.22790  Biso   1.000  H
  H582     1.0000 0.46760  0.42310  0.24390  Biso   1.000  H
  H583     1.0000 0.44860  0.45800  0.23520  Biso   1.000  H
  C430     1.0000 0.45940  0.44380  0.25900  Biso   1.000  C
  H584     1.0000 0.47360  0.43290  0.24800  Biso   1.000  H
  H585     1.0000 0.47220  0.44210  0.27310  Biso   1.000  H
  H586     1.0000 0.46760  0.47730  0.25610  Biso   1.000  H
  C431     1.0000 0.43100  0.44630  0.27680  Biso   1.000  C
  H587     1.0000 0.46060  0.44520  0.28050  Biso   1.000  H
  H588     1.0000 0.41060  0.43860  0.28950  Biso   1.000  H
  H589     1.0000 0.44090  0.47960  0.27200  Biso   1.000  H
  C432     1.0000 0.38300  0.42880  0.27640  Biso   1.000  C
  H590     1.0000 0.34720  0.40760  0.27650  Biso   1.000  H
  H591     1.0000 0.39100  0.46200  0.27340  Biso   1.000  H
  H592     1.0000 0.39570  0.42690  0.29040  Biso   1.000  H
  C433     1.0000 0.12497  0.56723  0.69703  Biso   1.000  C
  C434     1.0000 0.11157  0.54483  0.71713  Biso   1.000  C
  H593     1.0000 0.07977  0.51803  0.71893  Biso   1.000  H
  C435     1.0000 0.14317  0.56043  0.73433  Biso   1.000  C
  H594     1.0000 0.13217  0.54513  0.74793  Biso   1.000  H
  C436     1.0000 0.19007  0.59753  0.73223  Biso   1.000  C
  C437     1.0000 0.20397  0.62293  0.71273  Biso   1.000  C
  H595     1.0000 0.23547  0.65013  0.71113  Biso   1.000  H
  C438     1.0000 0.17127  0.60793  0.69583  Biso   1.000  C
  H596     1.0000 0.18077  0.62603  0.68293  Biso   1.000  H
  O65      1.0000 0.10327  0.58963  0.66483  Biso   1.000  O
  N33      1.0000 0.07527  0.58333  0.64603  Biso   1.000  N
  C439     1.0000 0.08517  0.62463  0.63883  Biso   1.000  C
  H597     1.0000 0.10857  0.65253  0.64643  Biso   1.000  H
  C440     1.0000 0.06327  0.63243  0.61993  Biso   1.000  C
  C441     1.0000 0.02967  0.59303  0.60663  Biso   1.000  C
  C442     1.0000 0.01077  0.60543  0.58833  Biso   1.000  C
  C443     1.0000 0.02367  0.65393  0.58423  Biso   1.000  C
  H598     1.0000 0.01017  0.66113  0.57223  Biso   1.000  H
  C444     1.0000 0.05577  0.69143  0.59763  Biso   1.000  C
  C445     1.0000 0.07437  0.67993  0.61523  Biso   1.000  C
  H599     1.0000 0.09567  0.70543  0.62453  Biso   1.000  H
  C446     1.0000 0.97737  0.56983  0.57323  Biso   1.000  C
  H600     1.0000 0.96787  0.58153  0.56123  Biso   1.000  H
  N34      1.0000 0.95997  0.52443  0.57473  Biso   1.000  N
  O66      1.0000 0.92807  0.50153  0.55723  Biso   1.000  O
  C447     1.0000 0.84887  0.38803  0.52713  Biso   1.000  C
  H601     1.0000 0.86047  0.36763  0.53223  Biso   1.000  H
  C448     1.0000 0.81797  0.37243  0.50973  Biso   1.000  C
  H602     1.0000 0.80817  0.34143  0.50383  Biso   1.000  H
  O67      1.0000 0.01777  0.54853  0.61083  Biso   1.000  O
  C449     1.0000 0.07087  0.74433  0.59233  Biso   1.000  C
  O68      1.0000 0.75407  0.34133  0.47482  Biso   1.000  O
  C450     1.0000 0.78287  0.39333  0.68323  Biso   1.000  C
  C451     1.0000 0.79347  0.42863  0.70203  Biso   1.000  C
  H603     1.0000 0.80107  0.46043  0.69643  Biso   1.000  H
  H604     1.0000 0.82117  0.43193  0.71023  Biso   1.000  H
  H605     1.0000 0.76497  0.41603  0.71133  Biso   1.000  H
  C452     1.0000 0.73957  0.38903  0.67063  Biso   1.000  C
  H606     1.0000 0.74667  0.42143  0.66593  Biso   1.000  H
  H607     1.0000 0.71067  0.37463  0.67973  Biso   1.000  H
  H608     1.0000 0.73377  0.36853  0.65803  Biso   1.000  H
  C453     1.0000 0.02537  0.74693  0.58673  Biso   1.000  C
  H609     1.0000 0.00767  0.72393  0.57523  Biso   1.000  H
  H610     1.0000 0.03487  0.77983  0.58193  Biso   1.000  H
  H611     1.0000 0.00457  0.73883  0.59933  Biso   1.000  H
  C454     1.0000 0.77057  0.34243  0.69013  Biso   1.000  C
  H612     1.0000 0.79777  0.34433  0.69833  Biso   1.000  H
  H613     1.0000 0.76457  0.32213  0.67743  Biso   1.000  H
  H614     1.0000 0.74147  0.32833  0.69923  Biso   1.000  H
  C455     1.0000 0.05467  0.74833  0.56963  Biso   1.000  C
  H615     1.0000 0.01887  0.72703  0.56873  Biso   1.000  H
  H616     1.0000 0.06957  0.73633  0.55933  Biso   1.000  H
  H617     1.0000 0.06357  0.78123  0.56653  Biso   1.000  H
  C456     1.0000 0.10547  0.75823  0.57303  Biso   1.000  C
  H618     1.0000 0.08897  0.73573  0.56123  Biso   1.000  H
  H619     1.0000 0.13427  0.75643  0.57723  Biso   1.000  H
  H620     1.0000 0.11527  0.79133  0.56853  Biso   1.000  H
  C457     1.0000 0.12607  0.77713  0.59233  Biso   1.000  C
  H621     1.0000 0.14027  0.76623  0.58133  Biso   1.000  H
  H622     1.0000 0.13887  0.77543  0.60643  Biso   1.000  H
  H623     1.0000 0.13427  0.81063  0.58943  Biso   1.000  H
  C458     1.0000 0.09767  0.77963  0.61013  Biso   1.000  C
  H624     1.0000 0.12727  0.77853  0.61383  Biso   1.000  H
  H625     1.0000 0.07727  0.77193  0.62283  Biso   1.000  H
  H626     1.0000 0.10757  0.81293  0.60533  Biso   1.000  H
  C459     1.0000 0.04967  0.76213  0.60973  Biso   1.000  C
  H627     1.0000 0.01387  0.74093  0.60983  Biso   1.000  H
  H628     1.0000 0.05767  0.79533  0.60673  Biso   1.000  H
  H629     1.0000 0.06237  0.76023  0.62373  Biso   1.000  H
  C460     1.0000 0.79163  0.90057  0.03037  Biso   1.000  C
  C461     1.0000 0.77823  0.87817  0.05047  Biso   1.000  C
  H630     1.0000 0.74643  0.85137  0.05227  Biso   1.000  H
  C462     1.0000 0.80983  0.89377  0.06767  Biso   1.000  C
  H631     1.0000 0.79883  0.87847  0.08127  Biso   1.000  H
  C463     1.0000 0.85673  0.93087  0.06557  Biso   1.000  C
  C464     1.0000 0.87063  0.95627  0.04607  Biso   1.000  C
  H632     1.0000 0.90213  0.98347  0.04447  Biso   1.000  H
  C465     1.0000 0.83793  0.94127  0.02917  Biso   1.000  C
  H633     1.0000 0.84743  0.95937  0.01627  Biso   1.000  H
  O69      1.0000 0.76993  0.92297  0.99817  Biso   1.000  O
  N35      1.0000 0.74193  0.91667  0.97937  Biso   1.000  N
  C466     1.0000 0.75183  0.95797  0.97217  Biso   1.000  C
  H634     1.0000 0.77523  0.98587  0.97977  Biso   1.000  H
  C467     1.0000 0.72993  0.96577  0.95327  Biso   1.000  C
  C468     1.0000 0.69633  0.92637  0.93997  Biso   1.000  C
  C469     1.0000 0.67743  0.93877  0.92167  Biso   1.000  C
  C470     1.0000 0.69033  0.98727  0.91757  Biso   1.000  C
  H635     1.0000 0.67683  0.99447  0.90557  Biso   1.000  H
  C471     1.0000 0.72243  0.02477  0.93097  Biso   1.000  C
  C472     1.0000 0.74103  0.01327  0.94857  Biso   1.000  C
  H636     1.0000 0.76233  0.03877  0.95787  Biso   1.000  H
  C473     1.0000 0.64403  0.90317  0.90657  Biso   1.000  C
  H637     1.0000 0.63453  0.91487  0.89457  Biso   1.000  H
  N36      1.0000 0.62663  0.85777  0.90807  Biso   1.000  N
  O70      1.0000 0.59473  0.83487  0.89057  Biso   1.000  O
  C474     1.0000 0.51553  0.72137  0.86047  Biso   1.000  C
  H638     1.0000 0.52713  0.70097  0.86557  Biso   1.000  H
  C475     1.0000 0.48463  0.70577  0.84307  Biso   1.000  C
  H639     1.0000 0.47483  0.67477  0.83717  Biso   1.000  H
  O71      1.0000 0.68443  0.88187  0.94417  Biso   1.000  O
  C476     1.0000 0.73753  0.07767  0.92567  Biso   1.000  C
  O72      1.0000 0.42073  0.67467  0.80816  Biso   1.000  O
  C477     1.0000 0.44953  0.72667  0.01657  Biso   1.000  C
  C478     1.0000 0.46013  0.76197  0.03537  Biso   1.000  C
  H640     1.0000 0.46773  0.79377  0.02977  Biso   1.000  H
  H641     1.0000 0.48783  0.76527  0.04357  Biso   1.000  H
  H642     1.0000 0.43163  0.74937  0.04467  Biso   1.000  H
  C479     1.0000 0.40623  0.72237  0.00397  Biso   1.000  C
  H643     1.0000 0.41333  0.75477  0.99927  Biso   1.000  H
  H644     1.0000 0.37733  0.70797  0.01307  Biso   1.000  H
  H645     1.0000 0.40043  0.70187  0.99137  Biso   1.000  H
  C480     1.0000 0.69203  0.08027  0.92007  Biso   1.000  C
  H646     1.0000 0.67433  0.05727  0.90857  Biso   1.000  H
  H647     1.0000 0.70153  0.11317  0.91527  Biso   1.000  H
  H648     1.0000 0.67123  0.07217  0.93267  Biso   1.000  H
  C481     1.0000 0.43723  0.67577  0.02347  Biso   1.000  C
  H649     1.0000 0.46443  0.67767  0.03167  Biso   1.000  H
  H650     1.0000 0.43123  0.65547  0.01077  Biso   1.000  H
  H651     1.0000 0.40813  0.66167  0.03257  Biso   1.000  H
  C482     1.0000 0.72133  0.08167  0.90297  Biso   1.000  C
  H652     1.0000 0.68553  0.06037  0.90207  Biso   1.000  H
  H653     1.0000 0.73623  0.06967  0.89267  Biso   1.000  H
  H654     1.0000 0.73023  0.11457  0.89987  Biso   1.000  H
  C483     1.0000 0.77213  0.09157  0.90637  Biso   1.000  C
  H655     1.0000 0.75563  0.06907  0.89457  Biso   1.000  H
  H656     1.0000 0.80093  0.08977  0.91057  Biso   1.000  H
  H657     1.0000 0.78193  0.12467  0.90187  Biso   1.000  H
  C484     1.0000 0.79273  0.11047  0.92567  Biso   1.000  C
  H658     1.0000 0.80693  0.09957  0.91467  Biso   1.000  H
  H659     1.0000 0.80553  0.10877  0.93977  Biso   1.000  H
  H660     1.0000 0.80093  0.14397  0.92277  Biso   1.000  H
  C485     1.0000 0.76433  0.11297  0.94347  Biso   1.000  C
  H661     1.0000 0.79393  0.11187  0.94717  Biso   1.000  H
  H662     1.0000 0.74393  0.10527  0.95617  Biso   1.000  H
  H663     1.0000 0.77423  0.14627  0.93867  Biso   1.000  H
  C486     1.0000 0.71633  0.09547  0.94307  Biso   1.000  C
  H664     1.0000 0.68053  0.07427  0.94317  Biso   1.000  H
  H665     1.0000 0.72433  0.12867  0.94007  Biso   1.000  H
  H666     1.0000 0.72903  0.09357  0.95707  Biso   1.000  H
  Co1      1.0000 0.29622  0.14811  0.26527  Biso   1.000  Co
  Co2      1.0000 0.35913  0.17956  0.30373  Biso   1.000  Co
  Zn1      1.0000 0.59976  0.29988  0.45668  Biso   1.000  Zn
  B1       1.0000 0.42420  0.21210  0.34320  Biso   1.000  B
  O73      1.0000 0.37470  0.18735  0.35120  Biso   1.000  O
  N37      1.0000 0.33820  0.16910  0.33620  Biso   1.000  N
  C487     1.0000 0.29630  0.14815  0.34470  Biso   1.000  C
  H667     1.0000 0.29480  0.14740  0.35990  Biso   1.000  H
  C488     1.0000 0.25080  0.12540  0.33310  Biso   1.000  C
  C489     1.0000 0.24730  0.12365  0.31010  Biso   1.000  C
  C490     1.0000 0.19970  0.09985  0.30070  Biso   1.000  C
  C491     1.0000 0.15890  0.07945  0.31420  Biso   1.000  C
  H668     1.0000 0.12750  0.06375  0.30790  Biso   1.000  H
  C492     1.0000 0.16270  0.08135  0.33630  Biso   1.000  C
  C493     1.0000 0.20840  0.10420  0.34560  Biso   1.000  C
  H669     1.0000 0.21110  0.10555  0.36080  Biso   1.000  H
  C494     1.0000 0.19000  0.09500  0.27790  Biso   1.000  C
  H670     1.0000 0.15710  0.07855  0.27350  Biso   1.000  H
  N38      1.0000 0.22220  0.11110  0.26350  Biso   1.000  N
  O74      1.0000 0.19910  0.09955  0.24350  Biso   1.000  O
  B2       1.0000 0.23040  0.11520  0.22530  Biso   1.000  B
  C495     1.0000 0.19750  0.09875  0.20420  Biso   1.000  C
  C496     1.0000 0.13430  0.06715  0.16750  Biso   1.000  C
  C497     1.0000 0.55900  0.27950  0.41710  Biso   1.000  C
  O75      1.0000 0.60340  0.30170  0.41120  Biso   1.000  O
  O76      1.0000 0.54600  0.27300  0.43560  Biso   1.000  O
  O77      1.0000 0.28490  0.14245  0.29830  Biso   1.000  O
  C498     1.0000 0.10090  0.05045  0.14840  Biso   1.000  C
  Co3      1.0000 0.96289  0.48144  0.59860  Biso   1.000  Co
  Co4      1.0000 0.02580  0.51290  0.63706  Biso   1.000  Co
  Zn2      1.0000 0.26643  0.63321  0.79001  Biso   1.000  Zn
  B3       1.0000 0.09087  0.54543  0.67653  Biso   1.000  B
  O78      1.0000 0.04137  0.52068  0.68453  Biso   1.000  O
  N39      1.0000 0.00487  0.50243  0.66953  Biso   1.000  N
  C499     1.0000 0.96297  0.48148  0.67803  Biso   1.000  C
  H671     1.0000 0.96147  0.48073  0.69323  Biso   1.000  H
  C500     1.0000 0.91747  0.45873  0.66643  Biso   1.000  C
  C501     1.0000 0.91397  0.45698  0.64343  Biso   1.000  C
  C502     1.0000 0.86637  0.43318  0.63403  Biso   1.000  C
  C503     1.0000 0.82557  0.41278  0.64753  Biso   1.000  C
  H672     1.0000 0.79417  0.39708  0.64123  Biso   1.000  H
  C504     1.0000 0.82937  0.41468  0.66963  Biso   1.000  C
  C505     1.0000 0.87507  0.43753  0.67893  Biso   1.000  C
  H673     1.0000 0.87777  0.43888  0.69413  Biso   1.000  H
  C506     1.0000 0.85667  0.42833  0.61123  Biso   1.000  C
  H674     1.0000 0.82377  0.41188  0.60683  Biso   1.000  H
  N40      1.0000 0.88887  0.44443  0.59683  Biso   1.000  N
  O79      1.0000 0.86577  0.43288  0.57683  Biso   1.000  O
  B4       1.0000 0.89707  0.44853  0.55863  Biso   1.000  B
  C507     1.0000 0.86417  0.43208  0.53753  Biso   1.000  C
  C508     1.0000 0.80097  0.40048  0.50083  Biso   1.000  C
  C509     1.0000 0.22567  0.61283  0.75043  Biso   1.000  C
  O80      1.0000 0.27007  0.63503  0.74453  Biso   1.000  O
  O81      1.0000 0.21267  0.60633  0.76893  Biso   1.000  O
  O82      1.0000 0.95157  0.47578  0.63163  Biso   1.000  O
  C510     1.0000 0.76757  0.38378  0.48173  Biso   1.000  C
  Co5      1.0000 0.62955  0.81478  0.93194  Biso   1.000  Co
  Co6      1.0000 0.69246  0.84623  0.97040  Biso   1.000  Co
  Zn3      1.0000 0.93309  0.96655  0.12335  Biso   1.000  Zn
  B5       1.0000 0.75753  0.87877  0.00987  Biso   1.000  B
  O83      1.0000 0.70803  0.85402  0.01787  Biso   1.000  O
  N41      1.0000 0.67153  0.83577  0.00287  Biso   1.000  N
  C511     1.0000 0.62963  0.81482  0.01137  Biso   1.000  C
  H675     1.0000 0.62813  0.81407  0.02657  Biso   1.000  H
  C512     1.0000 0.58413  0.79207  0.99977  Biso   1.000  C
  C513     1.0000 0.58063  0.79032  0.97677  Biso   1.000  C
  C514     1.0000 0.53303  0.76652  0.96737  Biso   1.000  C
  C515     1.0000 0.49223  0.74612  0.98087  Biso   1.000  C
  H676     1.0000 0.46083  0.73042  0.97457  Biso   1.000  H
  C516     1.0000 0.49603  0.74802  0.00297  Biso   1.000  C
  C517     1.0000 0.54173  0.77087  0.01227  Biso   1.000  C
  H677     1.0000 0.54443  0.77222  0.02747  Biso   1.000  H
  C518     1.0000 0.52333  0.76167  0.94457  Biso   1.000  C
  H678     1.0000 0.49043  0.74522  0.94017  Biso   1.000  H
  N42      1.0000 0.55553  0.77777  0.93017  Biso   1.000  N
  O84      1.0000 0.53243  0.76622  0.91017  Biso   1.000  O
  B6       1.0000 0.56373  0.78187  0.89197  Biso   1.000  B
  C519     1.0000 0.53083  0.76542  0.87087  Biso   1.000  C
  C520     1.0000 0.46763  0.73382  0.83417  Biso   1.000  C
  C521     1.0000 0.89233  0.94617  0.08377  Biso   1.000  C
  O85      1.0000 0.93673  0.96837  0.07787  Biso   1.000  O
  O86      1.0000 0.87933  0.93967  0.10227  Biso   1.000  O
  O87      1.0000 0.61823  0.80912  0.96497  Biso   1.000  O
  C522     1.0000 0.43423  0.71712  0.81507  Biso   1.000  C
  Co7      1.0000 0.85189  0.14811  0.26527  Biso   1.000  Co
  Co8      1.0000 0.82044  0.17956  0.30373  Biso   1.000  Co
  Zn4      1.0000 0.70012  0.29988  0.45668  Biso   1.000  Zn
  B7       1.0000 0.78790  0.21210  0.34320  Biso   1.000  B
  O88      1.0000 0.81265  0.18735  0.35120  Biso   1.000  O
  N43      1.0000 0.83090  0.16910  0.33620  Biso   1.000  N
  C523     1.0000 0.85185  0.14815  0.34470  Biso   1.000  C
  H679     1.0000 0.85260  0.14740  0.35990  Biso   1.000  H
  C524     1.0000 0.87460  0.12540  0.33310  Biso   1.000  C
  C525     1.0000 0.87635  0.12365  0.31010  Biso   1.000  C
  C526     1.0000 0.90015  0.09985  0.30070  Biso   1.000  C
  C527     1.0000 0.92055  0.07945  0.31420  Biso   1.000  C
  H680     1.0000 0.93625  0.06375  0.30790  Biso   1.000  H
  C528     1.0000 0.91865  0.08135  0.33630  Biso   1.000  C
  C529     1.0000 0.89580  0.10420  0.34560  Biso   1.000  C
  H681     1.0000 0.89445  0.10555  0.36080  Biso   1.000  H
  C530     1.0000 0.90500  0.09500  0.27790  Biso   1.000  C
  H682     1.0000 0.92145  0.07855  0.27350  Biso   1.000  H
  N44      1.0000 0.88890  0.11110  0.26350  Biso   1.000  N
  O89      1.0000 0.90045  0.09955  0.24350  Biso   1.000  O
  B8       1.0000 0.88480  0.11520  0.22530  Biso   1.000  B
  C531     1.0000 0.90125  0.09875  0.20420  Biso   1.000  C
  C532     1.0000 0.93285  0.06715  0.16750  Biso   1.000  C
  C533     1.0000 0.72050  0.27950  0.41710  Biso   1.000  C
  O90      1.0000 0.69830  0.30170  0.41120  Biso   1.000  O
  O91      1.0000 0.72700  0.27300  0.43560  Biso   1.000  O
  O92      1.0000 0.85755  0.14245  0.29830  Biso   1.000  O
  C534     1.0000 0.94955  0.05045  0.14840  Biso   1.000  C
  Co9      1.0000 0.51856  0.48144  0.59860  Biso   1.000  Co
  Co10     1.0000 0.48710  0.51290  0.63706  Biso   1.000  Co
  Zn5      1.0000 0.36679  0.63321  0.79001  Biso   1.000  Zn
  B9       1.0000 0.45457  0.54543  0.67653  Biso   1.000  B
  O93      1.0000 0.47932  0.52068  0.68453  Biso   1.000  O
  N45      1.0000 0.49757  0.50243  0.66953  Biso   1.000  N
  C535     1.0000 0.51852  0.48148  0.67803  Biso   1.000  C
  H683     1.0000 0.51927  0.48073  0.69323  Biso   1.000  H
  C536     1.0000 0.54127  0.45873  0.66643  Biso   1.000  C
  C537     1.0000 0.54302  0.45698  0.64343  Biso   1.000  C
  C538     1.0000 0.56682  0.43318  0.63403  Biso   1.000  C
  C539     1.0000 0.58722  0.41278  0.64753  Biso   1.000  C
  H684     1.0000 0.60292  0.39708  0.64123  Biso   1.000  H
  C540     1.0000 0.58532  0.41468  0.66963  Biso   1.000  C
  C541     1.0000 0.56247  0.43753  0.67893  Biso   1.000  C
  H685     1.0000 0.56112  0.43888  0.69413  Biso   1.000  H
  C542     1.0000 0.57167  0.42833  0.61123  Biso   1.000  C
  H686     1.0000 0.58812  0.41188  0.60683  Biso   1.000  H
  N46      1.0000 0.55557  0.44443  0.59683  Biso   1.000  N
  O94      1.0000 0.56712  0.43288  0.57683  Biso   1.000  O
  B10      1.0000 0.55147  0.44853  0.55863  Biso   1.000  B
  C543     1.0000 0.56792  0.43208  0.53753  Biso   1.000  C
  C544     1.0000 0.59952  0.40048  0.50083  Biso   1.000  C
  C545     1.0000 0.38717  0.61283  0.75043  Biso   1.000  C
  O95      1.0000 0.36497  0.63503  0.74453  Biso   1.000  O
  O96      1.0000 0.39367  0.60633  0.76893  Biso   1.000  O
  O97      1.0000 0.52422  0.47578  0.63163  Biso   1.000  O
  C546     1.0000 0.61622  0.38378  0.48173  Biso   1.000  C
  Co11     1.0000 0.18522  0.81478  0.93194  Biso   1.000  Co
  Co12     1.0000 0.15377  0.84623  0.97040  Biso   1.000  Co
  Zn6      1.0000 0.03345  0.96655  0.12335  Biso   1.000  Zn
  B11      1.0000 0.12123  0.87877  0.00987  Biso   1.000  B
  O98      1.0000 0.14598  0.85402  0.01787  Biso   1.000  O
  N47      1.0000 0.16423  0.83577  0.00287  Biso   1.000  N
  C547     1.0000 0.18518  0.81482  0.01137  Biso   1.000  C
  H687     1.0000 0.18593  0.81407  0.02657  Biso   1.000  H
  C548     1.0000 0.20793  0.79207  0.99977  Biso   1.000  C
  C549     1.0000 0.20968  0.79032  0.97677  Biso   1.000  C
  C550     1.0000 0.23348  0.76652  0.96737  Biso   1.000  C
  C551     1.0000 0.25388  0.74612  0.98087  Biso   1.000  C
  H688     1.0000 0.26958  0.73042  0.97457  Biso   1.000  H
  C552     1.0000 0.25198  0.74802  0.00297  Biso   1.000  C
  C553     1.0000 0.22913  0.77087  0.01227  Biso   1.000  C
  H689     1.0000 0.22778  0.77222  0.02747  Biso   1.000  H
  C554     1.0000 0.23833  0.76167  0.94457  Biso   1.000  C
  H690     1.0000 0.25478  0.74522  0.94017  Biso   1.000  H
  N48      1.0000 0.22223  0.77777  0.93017  Biso   1.000  N
  O99      1.0000 0.23378  0.76622  0.91017  Biso   1.000  O
  B12      1.0000 0.21813  0.78187  0.89197  Biso   1.000  B
  C555     1.0000 0.23458  0.76542  0.87087  Biso   1.000  C
  C556     1.0000 0.26618  0.73382  0.83417  Biso   1.000  C
  C557     1.0000 0.05383  0.94617  0.08377  Biso   1.000  C
  O100     1.0000 0.03163  0.96837  0.07787  Biso   1.000  O
  O101     1.0000 0.06033  0.93967  0.10227  Biso   1.000  O
  O102     1.0000 0.19088  0.80912  0.96497  Biso   1.000  O
  C558     1.0000 0.28288  0.71712  0.81507  Biso   1.000  C
  Co13     1.0000 0.85189  0.70378  0.26527  Biso   1.000  Co
  Co14     1.0000 0.82044  0.64087  0.30373  Biso   1.000  Co
  Zn7      1.0000 0.70012  0.40024  0.45668  Biso   1.000  Zn
  B13      1.0000 0.78790  0.57580  0.34320  Biso   1.000  B
  O103     1.0000 0.81265  0.62530  0.35120  Biso   1.000  O
  N49      1.0000 0.83090  0.66180  0.33620  Biso   1.000  N
  C559     1.0000 0.85185  0.70370  0.34470  Biso   1.000  C
  H691     1.0000 0.85260  0.70520  0.35990  Biso   1.000  H
  C560     1.0000 0.87460  0.74920  0.33310  Biso   1.000  C
  C561     1.0000 0.87635  0.75270  0.31010  Biso   1.000  C
  C562     1.0000 0.90015  0.80030  0.30070  Biso   1.000  C
  C563     1.0000 0.92055  0.84110  0.31420  Biso   1.000  C
  H692     1.0000 0.93625  0.87250  0.30790  Biso   1.000  H
  C564     1.0000 0.91865  0.83730  0.33630  Biso   1.000  C
  C565     1.0000 0.89580  0.79160  0.34560  Biso   1.000  C
  H693     1.0000 0.89445  0.78890  0.36080  Biso   1.000  H
  C566     1.0000 0.90500  0.81000  0.27790  Biso   1.000  C
  H694     1.0000 0.92145  0.84290  0.27350  Biso   1.000  H
  N50      1.0000 0.88890  0.77780  0.26350  Biso   1.000  N
  O104     1.0000 0.90045  0.80090  0.24350  Biso   1.000  O
  B14      1.0000 0.88480  0.76960  0.22530  Biso   1.000  B
  C567     1.0000 0.90125  0.80250  0.20420  Biso   1.000  C
  C568     1.0000 0.93285  0.86570  0.16750  Biso   1.000  C
  C569     1.0000 0.72050  0.44100  0.41710  Biso   1.000  C
  O105     1.0000 0.69830  0.39660  0.41120  Biso   1.000  O
  O106     1.0000 0.72700  0.45400  0.43560  Biso   1.000  O
  O107     1.0000 0.85755  0.71510  0.29830  Biso   1.000  O
  C570     1.0000 0.94955  0.89910  0.14840  Biso   1.000  C
  Co15     1.0000 0.51856  0.03711  0.59860  Biso   1.000  Co
  Co16     1.0000 0.48710  0.97420  0.63706  Biso   1.000  Co
  Zn8      1.0000 0.36679  0.73357  0.79001  Biso   1.000  Zn
  B15      1.0000 0.45457  0.90913  0.67653  Biso   1.000  B
  O108     1.0000 0.47932  0.95863  0.68453  Biso   1.000  O
  N51      1.0000 0.49757  0.99513  0.66953  Biso   1.000  N
  C571     1.0000 0.51852  0.03703  0.67803  Biso   1.000  C
  H695     1.0000 0.51927  0.03853  0.69323  Biso   1.000  H
  C572     1.0000 0.54127  0.08253  0.66643  Biso   1.000  C
  C573     1.0000 0.54302  0.08603  0.64343  Biso   1.000  C
  C574     1.0000 0.56682  0.13363  0.63403  Biso   1.000  C
  C575     1.0000 0.58722  0.17443  0.64753  Biso   1.000  C
  H696     1.0000 0.60292  0.20583  0.64123  Biso   1.000  H
  C576     1.0000 0.58532  0.17063  0.66963  Biso   1.000  C
  C577     1.0000 0.56247  0.12493  0.67893  Biso   1.000  C
  H697     1.0000 0.56112  0.12223  0.69413  Biso   1.000  H
  C578     1.0000 0.57167  0.14333  0.61123  Biso   1.000  C
  H698     1.0000 0.58812  0.17623  0.60683  Biso   1.000  H
  N52      1.0000 0.55557  0.11113  0.59683  Biso   1.000  N
  O109     1.0000 0.56712  0.13423  0.57683  Biso   1.000  O
  B16      1.0000 0.55147  0.10293  0.55863  Biso   1.000  B
  C579     1.0000 0.56792  0.13583  0.53753  Biso   1.000  C
  C580     1.0000 0.59952  0.19903  0.50083  Biso   1.000  C
  C581     1.0000 0.38717  0.77433  0.75043  Biso   1.000  C
  O110     1.0000 0.36497  0.72993  0.74453  Biso   1.000  O
  O111     1.0000 0.39367  0.78733  0.76893  Biso   1.000  O
  O112     1.0000 0.52422  0.04843  0.63163  Biso   1.000  O
  C582     1.0000 0.61622  0.23243  0.48173  Biso   1.000  C
  Co17     1.0000 0.18522  0.37045  0.93194  Biso   1.000  Co
  Co18     1.0000 0.15377  0.30754  0.97040  Biso   1.000  Co
  Zn9      1.0000 0.03345  0.06691  0.12335  Biso   1.000  Zn
  B17      1.0000 0.12123  0.24247  0.00987  Biso   1.000  B
  O113     1.0000 0.14598  0.29197  0.01787  Biso   1.000  O
  N53      1.0000 0.16423  0.32847  0.00287  Biso   1.000  N
  C583     1.0000 0.18518  0.37037  0.01137  Biso   1.000  C
  H699     1.0000 0.18593  0.37187  0.02657  Biso   1.000  H
  C584     1.0000 0.20793  0.41587  0.99977  Biso   1.000  C
  C585     1.0000 0.20968  0.41937  0.97677  Biso   1.000  C
  C586     1.0000 0.23348  0.46697  0.96737  Biso   1.000  C
  C587     1.0000 0.25388  0.50777  0.98087  Biso   1.000  C
  H700     1.0000 0.26958  0.53917  0.97457  Biso   1.000  H
  C588     1.0000 0.25198  0.50397  0.00297  Biso   1.000  C
  C589     1.0000 0.22913  0.45827  0.01227  Biso   1.000  C
  H701     1.0000 0.22778  0.45557  0.02747  Biso   1.000  H
  C590     1.0000 0.23833  0.47667  0.94457  Biso   1.000  C
  H702     1.0000 0.25478  0.50957  0.94017  Biso   1.000  H
  N54      1.0000 0.22223  0.44447  0.93017  Biso   1.000  N
  O114     1.0000 0.23378  0.46757  0.91017  Biso   1.000  O
  B18      1.0000 0.21813  0.43627  0.89197  Biso   1.000  B
  C591     1.0000 0.23458  0.46917  0.87087  Biso   1.000  C
  C592     1.0000 0.26618  0.53237  0.83417  Biso   1.000  C
  C593     1.0000 0.05383  0.10767  0.08377  Biso   1.000  C
  O115     1.0000 0.03163  0.06327  0.07787  Biso   1.000  O
  O116     1.0000 0.06033  0.12067  0.10227  Biso   1.000  O
  O117     1.0000 0.19088  0.38177  0.96497  Biso   1.000  O
  C594     1.0000 0.28288  0.56577  0.81507  Biso   1.000  C
  Zn10     1.0000 0.66667  0.33333  0.41591  Biso   1.000  Zn
  O118     1.0000 0.66667  0.33333  0.44850  Biso   1.000  O
  Zn11     1.0000 0.33333  0.66667  0.74924  Biso   1.000  Zn
  O119     1.0000 0.33333  0.66667  0.78183  Biso   1.000  O
  Zn12     1.0000 0.00000  0.00000  0.08258  Biso   1.000  Zn
  O120     1.0000 0.00000  0.00000  0.11517  Biso   1.000  O
  C595     1.0000 0.22440  0.45830  0.63630  Biso   1.000  C
  C596     1.0000 0.23340  0.44490  0.61620  Biso   1.000  C
  H703     1.0000 0.22840  0.41310  0.61440  Biso   1.000  H
  C597     1.0000 0.24940  0.47650  0.59900  Biso   1.000  C
  H704     1.0000 0.25370  0.46550  0.58540  Biso   1.000  H
  C598     1.0000 0.25920  0.52340  0.60110  Biso   1.000  C
  C599     1.0000 0.24770  0.53730  0.62060  Biso   1.000  C
  H705     1.0000 0.25200  0.56880  0.62220  Biso   1.000  H
  C600     1.0000 0.23000  0.50460  0.63750  Biso   1.000  C
  H706     1.0000 0.22140  0.51410  0.65040  Biso   1.000  H
  O121     1.0000 0.18030  0.43660  0.66850  Biso   1.000  O
  N55      1.0000 0.15860  0.40860  0.68730  Biso   1.000  N
  C601     1.0000 0.12720  0.41850  0.69450  Biso   1.000  C
  H707     1.0000 0.12270  0.44190  0.68690  Biso   1.000  H
  C602     1.0000 0.09750  0.39660  0.71340  Biso   1.000  C
  C603     1.0000 0.10330  0.36300  0.72670  Biso   1.000  C
  C604     1.0000 0.07200  0.34410  0.74500  Biso   1.000  C
  C605     1.0000 0.03640  0.35700  0.74910  Biso   1.000  C
  H708     1.0000 0.01570  0.34350  0.76110  Biso   1.000  H
  C606     1.0000 0.03100  0.38910  0.73570  Biso   1.000  C
  C607     1.0000 0.06110  0.40770  0.71810  Biso   1.000  C
  H709     1.0000 0.05690  0.42900  0.70880  Biso   1.000  H
  C608     1.0000 0.07420  0.31070  0.76010  Biso   1.000  C
  H710     1.0000 0.05300  0.30120  0.77210  Biso   1.000  H
  N56      1.0000 0.10220  0.29330  0.75860  Biso   1.000  N
  O122     1.0000 0.09320  0.26140  0.77610  Biso   1.000  O
  C609     1.0000 0.12750  0.18220  0.80620  Biso   1.000  C
  H711     1.0000 0.15950  0.19380  0.80110  Biso   1.000  H
  C610     1.0000 0.11220  0.15130  0.82360  Biso   1.000  C
  H712     1.0000 0.13340  0.14150  0.82950  Biso   1.000  H
  O123     1.0000 0.13590  0.35110  0.72250  Biso   1.000  O
  C611     1.0000 0.99320  0.40420  0.74100  Biso   1.000  C
  O124     1.0000 0.07940  0.08740  0.85851  Biso   1.000  O
  C612     1.0000 0.05620  0.11620  0.65010  Biso   1.000  C
  C613     1.0000 0.03150  0.12680  0.63130  Biso   1.000  C
  H713     1.0000 0.00730  0.13440  0.63690  Biso   1.000  H
  H714     1.0000 0.05590  0.15450  0.62310  Biso   1.000  H
  H715     1.0000 0.01560  0.09830  0.62200  Biso   1.000  H
  C614     1.0000 0.01720  0.07290  0.66270  Biso   1.000  C
  H716     1.0000 0.99190  0.08000  0.66740  Biso   1.000  H
  H717     1.0000 0.00270  0.04400  0.65360  Biso   1.000  H
  H718     1.0000 0.03190  0.06710  0.67530  Biso   1.000  H
  C615     1.0000 0.94510  0.35870  0.74660  Biso   1.000  C
  H719     1.0000 0.95040  0.34100  0.75810  Biso   1.000  H
  H720     1.0000 0.92170  0.36820  0.75140  Biso   1.000  H
  H721     1.0000 0.93240  0.33790  0.73400  Biso   1.000  H
  C616     1.0000 0.09480  0.10390  0.64320  Biso   1.000  C
  H722     1.0000 0.12010  0.13110  0.63500  Biso   1.000  H
  H723     1.0000 0.10910  0.09790  0.65590  Biso   1.000  H
  H724     1.0000 0.07980  0.07480  0.63410  Biso   1.000  H
  C617     1.0000 0.97300  0.38800  0.76370  Biso   1.000  C
  H725     1.0000 0.95850  0.35220  0.76460  Biso   1.000  H
  H726     1.0000 0.99990  0.40290  0.77400  Biso   1.000  H
  H727     1.0000 0.94900  0.39690  0.76680  Biso   1.000  H
  C618     1.0000 0.01390  0.43880  0.76030  Biso   1.000  C
  H728     1.0000 0.01990  0.42230  0.77210  Biso   1.000  H
  H729     1.0000 0.04450  0.46760  0.75610  Biso   1.000  H
  H730     1.0000 0.99060  0.44860  0.76480  Biso   1.000  H
  C619     1.0000 0.01560  0.45940  0.74100  Biso   1.000  C
  H731     1.0000 0.04070  0.47360  0.75200  Biso   1.000  H
  H732     1.0000 0.03010  0.47220  0.72690  Biso   1.000  H
  H733     1.0000 0.99030  0.46760  0.74390  Biso   1.000  H
  C620     1.0000 0.98470  0.43100  0.72320  Biso   1.000  C
  H734     1.0000 0.01540  0.46060  0.71950  Biso   1.000  H
  H735     1.0000 0.97200  0.41060  0.71050  Biso   1.000  H
  H736     1.0000 0.96130  0.44090  0.72800  Biso   1.000  H
  C621     1.0000 0.95420  0.38300  0.72360  Biso   1.000  C
  H737     1.0000 0.93960  0.34720  0.72350  Biso   1.000  H
  H738     1.0000 0.92900  0.39100  0.72660  Biso   1.000  H
  H739     1.0000 0.96880  0.39570  0.70960  Biso   1.000  H
  C622     1.0000 0.89107  0.79163  0.96963  Biso   1.000  C
  C623     1.0000 0.90007  0.77823  0.94953  Biso   1.000  C
  H740     1.0000 0.89507  0.74643  0.94773  Biso   1.000  H
  C624     1.0000 0.91607  0.80983  0.93233  Biso   1.000  C
  H741     1.0000 0.92037  0.79883  0.91873  Biso   1.000  H
  C625     1.0000 0.92587  0.85673  0.93443  Biso   1.000  C
  C626     1.0000 0.91437  0.87063  0.95393  Biso   1.000  C
  H742     1.0000 0.91867  0.90213  0.95553  Biso   1.000  H
  C627     1.0000 0.89667  0.83793  0.97083  Biso   1.000  C
  H743     1.0000 0.88807  0.84743  0.98373  Biso   1.000  H
  O125     1.0000 0.84697  0.76993  0.00183  Biso   1.000  O
  N57      1.0000 0.82527  0.74193  0.02063  Biso   1.000  N
  C628     1.0000 0.79387  0.75183  0.02783  Biso   1.000  C
  H744     1.0000 0.78937  0.77523  0.02023  Biso   1.000  H
  C629     1.0000 0.76417  0.72993  0.04673  Biso   1.000  C
  C630     1.0000 0.76997  0.69633  0.06003  Biso   1.000  C
  C631     1.0000 0.73867  0.67743  0.07833  Biso   1.000  C
  C632     1.0000 0.70307  0.69033  0.08243  Biso   1.000  C
  H745     1.0000 0.68237  0.67683  0.09443  Biso   1.000  H
  C633     1.0000 0.69767  0.72243  0.06903  Biso   1.000  C
  C634     1.0000 0.72777  0.74103  0.05143  Biso   1.000  C
  H746     1.0000 0.72357  0.76233  0.04213  Biso   1.000  H
  C635     1.0000 0.74087  0.64403  0.09343  Biso   1.000  C
  H747     1.0000 0.71967  0.63453  0.10543  Biso   1.000  H
  N58      1.0000 0.76887  0.62663  0.09193  Biso   1.000  N
  O126     1.0000 0.75987  0.59473  0.10943  Biso   1.000  O
  C636     1.0000 0.79417  0.51553  0.13953  Biso   1.000  C
  H748     1.0000 0.82617  0.52713  0.13443  Biso   1.000  H
  C637     1.0000 0.77887  0.48463  0.15693  Biso   1.000  C
  H749     1.0000 0.80007  0.47483  0.16283  Biso   1.000  H
  O127     1.0000 0.80257  0.68443  0.05583  Biso   1.000  O
  C638     1.0000 0.65987  0.73753  0.07433  Biso   1.000  C
  O128     1.0000 0.74607  0.42073  0.19184  Biso   1.000  O
  C639     1.0000 0.72287  0.44953  0.98343  Biso   1.000  C
  C640     1.0000 0.69817  0.46013  0.96463  Biso   1.000  C
  H750     1.0000 0.67397  0.46773  0.97023  Biso   1.000  H
  H751     1.0000 0.72257  0.48783  0.95643  Biso   1.000  H
  H752     1.0000 0.68227  0.43163  0.95533  Biso   1.000  H
  C641     1.0000 0.68387  0.40623  0.99603  Biso   1.000  C
  H753     1.0000 0.65857  0.41333  0.00073  Biso   1.000  H
  H754     1.0000 0.66937  0.37733  0.98693  Biso   1.000  H
  H755     1.0000 0.69857  0.40043  0.00863  Biso   1.000  H
  C642     1.0000 0.61177  0.69203  0.07993  Biso   1.000  C
  H756     1.0000 0.61707  0.67433  0.09143  Biso   1.000  H
  H757     1.0000 0.58837  0.70153  0.08473  Biso   1.000  H
  H758     1.0000 0.59907  0.67123  0.06733  Biso   1.000  H
  C643     1.0000 0.76147  0.43723  0.97653  Biso   1.000  C
  H759     1.0000 0.78677  0.46443  0.96833  Biso   1.000  H
  H760     1.0000 0.77577  0.43123  0.98923  Biso   1.000  H
  H761     1.0000 0.74647  0.40813  0.96743  Biso   1.000  H
  C644     1.0000 0.63967  0.72133  0.09703  Biso   1.000  C
  H762     1.0000 0.62517  0.68553  0.09793  Biso   1.000  H
  H763     1.0000 0.66657  0.73623  0.10733  Biso   1.000  H
  H764     1.0000 0.61567  0.73023  0.10013  Biso   1.000  H
  C645     1.0000 0.68057  0.77213  0.09363  Biso   1.000  C
  H765     1.0000 0.68657  0.75563  0.10543  Biso   1.000  H
  H766     1.0000 0.71117  0.80093  0.08943  Biso   1.000  H
  H767     1.0000 0.65727  0.78193  0.09813  Biso   1.000  H
  C646     1.0000 0.68227  0.79273  0.07433  Biso   1.000  C
  H768     1.0000 0.70737  0.80693  0.08533  Biso   1.000  H
  H769     1.0000 0.69677  0.80553  0.06023  Biso   1.000  H
  H770     1.0000 0.65697  0.80093  0.07723  Biso   1.000  H
  C647     1.0000 0.65137  0.76433  0.05653  Biso   1.000  C
  H771     1.0000 0.68207  0.79393  0.05283  Biso   1.000  H
  H772     1.0000 0.63867  0.74393  0.04383  Biso   1.000  H
  H773     1.0000 0.62797  0.77423  0.06133  Biso   1.000  H
  C648     1.0000 0.62087  0.71633  0.05693  Biso   1.000  C
  H774     1.0000 0.60627  0.68053  0.05683  Biso   1.000  H
  H775     1.0000 0.59567  0.72433  0.05993  Biso   1.000  H
  H776     1.0000 0.63547  0.72903  0.04293  Biso   1.000  H
  C649     1.0000 0.55773  0.12497  0.30297  Biso   1.000  C
  C650     1.0000 0.56673  0.11157  0.28287  Biso   1.000  C
  H777     1.0000 0.56173  0.07977  0.28107  Biso   1.000  H
  C651     1.0000 0.58273  0.14317  0.26567  Biso   1.000  C
  H778     1.0000 0.58703  0.13217  0.25207  Biso   1.000  H
  C652     1.0000 0.59253  0.19007  0.26777  Biso   1.000  C
  C653     1.0000 0.58103  0.20397  0.28727  Biso   1.000  C
  H779     1.0000 0.58533  0.23547  0.28887  Biso   1.000  H
  C654     1.0000 0.56333  0.17127  0.30417  Biso   1.000  C
  H780     1.0000 0.55473  0.18077  0.31707  Biso   1.000  H
  O129     1.0000 0.51363  0.10327  0.33517  Biso   1.000  O
  N59      1.0000 0.49193  0.07527  0.35397  Biso   1.000  N
  C655     1.0000 0.46053  0.08517  0.36117  Biso   1.000  C
  H781     1.0000 0.45603  0.10857  0.35357  Biso   1.000  H
  C656     1.0000 0.43083  0.06327  0.38007  Biso   1.000  C
  C657     1.0000 0.43663  0.02967  0.39337  Biso   1.000  C
  C658     1.0000 0.40533  0.01077  0.41167  Biso   1.000  C
  C659     1.0000 0.36973  0.02367  0.41577  Biso   1.000  C
  H782     1.0000 0.34903  0.01017  0.42777  Biso   1.000  H
  C660     1.0000 0.36433  0.05577  0.40237  Biso   1.000  C
  C661     1.0000 0.39443  0.07437  0.38477  Biso   1.000  C
  H783     1.0000 0.39023  0.09567  0.37547  Biso   1.000  H
  C662     1.0000 0.40753  0.97737  0.42677  Biso   1.000  C
  H784     1.0000 0.38633  0.96787  0.43877  Biso   1.000  H
  N60      1.0000 0.43553  0.95997  0.42527  Biso   1.000  N
  O130     1.0000 0.42653  0.92807  0.44277  Biso   1.000  O
  C663     1.0000 0.46083  0.84887  0.47287  Biso   1.000  C
  H785     1.0000 0.49283  0.86047  0.46777  Biso   1.000  H
  C664     1.0000 0.44553  0.81797  0.49027  Biso   1.000  C
  H786     1.0000 0.46673  0.80817  0.49617  Biso   1.000  H
  O131     1.0000 0.46923  0.01777  0.38917  Biso   1.000  O
  C665     1.0000 0.32653  0.07087  0.40767  Biso   1.000  C
  O132     1.0000 0.41273  0.75407  0.52518  Biso   1.000  O
  C666     1.0000 0.38953  0.78287  0.31677  Biso   1.000  C
  C667     1.0000 0.36483  0.79347  0.29797  Biso   1.000  C
  H787     1.0000 0.34063  0.80107  0.30357  Biso   1.000  H
  H788     1.0000 0.38923  0.82117  0.28977  Biso   1.000  H
  H789     1.0000 0.34893  0.76497  0.28867  Biso   1.000  H
  C668     1.0000 0.35053  0.73957  0.32937  Biso   1.000  C
  H790     1.0000 0.32523  0.74667  0.33407  Biso   1.000  H
  H791     1.0000 0.33603  0.71067  0.32027  Biso   1.000  H
  H792     1.0000 0.36523  0.73377  0.34197  Biso   1.000  H
  C669     1.0000 0.27843  0.02537  0.41327  Biso   1.000  C
  H793     1.0000 0.28373  0.00767  0.42477  Biso   1.000  H
  H794     1.0000 0.25503  0.03487  0.41807  Biso   1.000  H
  H795     1.0000 0.26573  0.00457  0.40067  Biso   1.000  H
  C670     1.0000 0.42813  0.77057  0.30987  Biso   1.000  C
  H796     1.0000 0.45343  0.79777  0.30167  Biso   1.000  H
  H797     1.0000 0.44243  0.76457  0.32257  Biso   1.000  H
  H798     1.0000 0.41313  0.74147  0.30077  Biso   1.000  H
  C671     1.0000 0.30633  0.05467  0.43037  Biso   1.000  C
  H799     1.0000 0.29183  0.01887  0.43127  Biso   1.000  H
  H800     1.0000 0.33323  0.06957  0.44067  Biso   1.000  H
  H801     1.0000 0.28233  0.06357  0.43347  Biso   1.000  H
  C672     1.0000 0.34723  0.10547  0.42697  Biso   1.000  C
  H802     1.0000 0.35323  0.08897  0.43877  Biso   1.000  H
  H803     1.0000 0.37783  0.13427  0.42277  Biso   1.000  H
  H804     1.0000 0.32393  0.11527  0.43147  Biso   1.000  H
  C673     1.0000 0.34893  0.12607  0.40767  Biso   1.000  C
  H805     1.0000 0.37403  0.14027  0.41867  Biso   1.000  H
  H806     1.0000 0.36343  0.13887  0.39357  Biso   1.000  H
  H807     1.0000 0.32363  0.13427  0.41057  Biso   1.000  H
  C674     1.0000 0.31803  0.09767  0.38987  Biso   1.000  C
  H808     1.0000 0.34873  0.12727  0.38617  Biso   1.000  H
  H809     1.0000 0.30533  0.07727  0.37717  Biso   1.000  H
  H810     1.0000 0.29463  0.10757  0.39467  Biso   1.000  H
  C675     1.0000 0.28753  0.04967  0.39027  Biso   1.000  C
  H811     1.0000 0.27293  0.01387  0.39017  Biso   1.000  H
  H812     1.0000 0.26233  0.05767  0.39327  Biso   1.000  H
  H813     1.0000 0.30213  0.06237  0.37627  Biso   1.000  H
  C676     1.0000 0.23390  0.77560  0.63630  Biso   1.000  C
  C677     1.0000 0.21150  0.76660  0.61620  Biso   1.000  C
  H814     1.0000 0.18470  0.77160  0.61440  Biso   1.000  H
  C678     1.0000 0.22710  0.75060  0.59900  Biso   1.000  C
  H815     1.0000 0.21180  0.74630  0.58540  Biso   1.000  H
  C679     1.0000 0.26420  0.74080  0.60110  Biso   1.000  C
  C680     1.0000 0.28960  0.75230  0.62060  Biso   1.000  C
  H816     1.0000 0.31680  0.74800  0.62220  Biso   1.000  H
  C681     1.0000 0.27460  0.77000  0.63750  Biso   1.000  C
  H817     1.0000 0.29270  0.77860  0.65040  Biso   1.000  H
  O133     1.0000 0.25630  0.81970  0.66850  Biso   1.000  O
  N61      1.0000 0.25000  0.84140  0.68730  Biso   1.000  N
  C682     1.0000 0.29130  0.87280  0.69450  Biso   1.000  C
  H818     1.0000 0.31920  0.87730  0.68690  Biso   1.000  H
  C683     1.0000 0.29910  0.90250  0.71340  Biso   1.000  C
  C684     1.0000 0.25970  0.89670  0.72670  Biso   1.000  C
  C685     1.0000 0.27210  0.92800  0.74500  Biso   1.000  C
  C686     1.0000 0.32060  0.96360  0.74910  Biso   1.000  C
  H819     1.0000 0.32780  0.98430  0.76110  Biso   1.000  H
  C687     1.0000 0.35810  0.96900  0.73570  Biso   1.000  C
  C688     1.0000 0.34660  0.93890  0.71810  Biso   1.000  C
  H820     1.0000 0.37210  0.94310  0.70880  Biso   1.000  H
  C689     1.0000 0.23650  0.92580  0.76010  Biso   1.000  C
  H821     1.0000 0.24820  0.94700  0.77210  Biso   1.000  H
  N62      1.0000 0.19110  0.89780  0.75860  Biso   1.000  N
  O134     1.0000 0.16820  0.90680  0.77610  Biso   1.000  O
  C690     1.0000 0.05470  0.87250  0.80620  Biso   1.000  C
  H822     1.0000 0.03430  0.84050  0.80110  Biso   1.000  H
  C691     1.0000 0.03910  0.88780  0.82360  Biso   1.000  C
  H823     1.0000 0.00810  0.86660  0.82950  Biso   1.000  H
  O135     1.0000 0.21520  0.86410  0.72250  Biso   1.000  O
  C692     1.0000 0.41100  0.00680  0.74100  Biso   1.000  C
  O136     1.0000 0.00800  0.92060  0.85851  Biso   1.000  O
  C693     1.0000 0.06000  0.94380  0.65010  Biso   1.000  C
  C694     1.0000 0.09530  0.96850  0.63130  Biso   1.000  C
  H824     1.0000 0.12710  0.99270  0.63690  Biso   1.000  H
  H825     1.0000 0.09860  0.94410  0.62310  Biso   1.000  H
  H826     1.0000 0.08270  0.98440  0.62200  Biso   1.000  H
  C695     1.0000 0.05570  0.98280  0.66270  Biso   1.000  C
  H827     1.0000 0.08810  0.00810  0.66740  Biso   1.000  H
  H828     1.0000 0.04130  0.99730  0.65360  Biso   1.000  H
  H829     1.0000 0.03520  0.96810  0.67530  Biso   1.000  H
  C696     1.0000 0.41360  0.05490  0.74660  Biso   1.000  C
  H830     1.0000 0.39060  0.04960  0.75810  Biso   1.000  H
  H831     1.0000 0.44650  0.07830  0.75140  Biso   1.000  H
  H832     1.0000 0.40550  0.06760  0.73400  Biso   1.000  H
  C697     1.0000 0.00910  0.90520  0.64320  Biso   1.000  C
  H833     1.0000 0.01100  0.87990  0.63500  Biso   1.000  H
  H834     1.0000 0.98880  0.89090  0.65590  Biso   1.000  H
  H835     1.0000 0.99500  0.92020  0.63410  Biso   1.000  H
  C698     1.0000 0.41500  0.02700  0.76370  Biso   1.000  C
  H836     1.0000 0.39370  0.04150  0.76460  Biso   1.000  H
  H837     1.0000 0.40300  0.00010  0.77400  Biso   1.000  H
  H838     1.0000 0.44790  0.05100  0.76680  Biso   1.000  H
  C699     1.0000 0.42490  0.98610  0.76030  Biso   1.000  C
  H839     1.0000 0.40240  0.98010  0.77210  Biso   1.000  H
  H840     1.0000 0.42310  0.95550  0.75610  Biso   1.000  H
  H841     1.0000 0.45800  0.00940  0.76480  Biso   1.000  H
  C700     1.0000 0.44380  0.98440  0.74100  Biso   1.000  C
  H842     1.0000 0.43290  0.95930  0.75200  Biso   1.000  H
  H843     1.0000 0.44210  0.96990  0.72690  Biso   1.000  H
  H844     1.0000 0.47730  0.00970  0.74390  Biso   1.000  H
  C701     1.0000 0.44630  0.01530  0.72320  Biso   1.000  C
  H845     1.0000 0.44520  0.98460  0.71950  Biso   1.000  H
  H846     1.0000 0.43860  0.02800  0.71050  Biso   1.000  H
  H847     1.0000 0.47960  0.03870  0.72800  Biso   1.000  H
  C702     1.0000 0.42880  0.04580  0.72360  Biso   1.000  C
  H848     1.0000 0.40760  0.06040  0.72350  Biso   1.000  H
  H849     1.0000 0.46200  0.07100  0.72660  Biso   1.000  H
  H850     1.0000 0.42690  0.03120  0.70960  Biso   1.000  H
  C703     1.0000 0.90057  0.10893  0.96963  Biso   1.000  C
  C704     1.0000 0.87817  0.09993  0.94953  Biso   1.000  C
  H851     1.0000 0.85137  0.10493  0.94773  Biso   1.000  H
  C705     1.0000 0.89377  0.08393  0.93233  Biso   1.000  C
  H852     1.0000 0.87847  0.07963  0.91873  Biso   1.000  H
  C706     1.0000 0.93087  0.07413  0.93443  Biso   1.000  C
  C707     1.0000 0.95627  0.08563  0.95393  Biso   1.000  C
  H853     1.0000 0.98347  0.08133  0.95553  Biso   1.000  H
  C708     1.0000 0.94127  0.10333  0.97083  Biso   1.000  C
  H854     1.0000 0.95937  0.11193  0.98373  Biso   1.000  H
  O137     1.0000 0.92297  0.15303  0.00183  Biso   1.000  O
  N63      1.0000 0.91667  0.17473  0.02063  Biso   1.000  N
  C709     1.0000 0.95797  0.20613  0.02783  Biso   1.000  C
  H855     1.0000 0.98587  0.21063  0.02023  Biso   1.000  H
  C710     1.0000 0.96577  0.23583  0.04673  Biso   1.000  C
  C711     1.0000 0.92637  0.23003  0.06003  Biso   1.000  C
  C712     1.0000 0.93877  0.26133  0.07833  Biso   1.000  C
  C713     1.0000 0.98727  0.29693  0.08243  Biso   1.000  C
  H856     1.0000 0.99447  0.31763  0.09443  Biso   1.000  H
  C714     1.0000 0.02477  0.30233  0.06903  Biso   1.000  C
  C715     1.0000 0.01327  0.27223  0.05143  Biso   1.000  C
  H857     1.0000 0.03877  0.27643  0.04213  Biso   1.000  H
  C716     1.0000 0.90317  0.25913  0.09343  Biso   1.000  C
  H858     1.0000 0.91487  0.28033  0.10543  Biso   1.000  H
  N64      1.0000 0.85777  0.23113  0.09193  Biso   1.000  N
  O138     1.0000 0.83487  0.24013  0.10943  Biso   1.000  O
  C717     1.0000 0.72137  0.20583  0.13953  Biso   1.000  C
  H859     1.0000 0.70097  0.17383  0.13443  Biso   1.000  H
  C718     1.0000 0.70577  0.22113  0.15693  Biso   1.000  C
  H860     1.0000 0.67477  0.19993  0.16283  Biso   1.000  H
  O139     1.0000 0.88187  0.19743  0.05583  Biso   1.000  O
  C719     1.0000 0.07767  0.34013  0.07433  Biso   1.000  C
  O140     1.0000 0.67467  0.25393  0.19184  Biso   1.000  O
  C720     1.0000 0.72667  0.27713  0.98343  Biso   1.000  C
  C721     1.0000 0.76197  0.30183  0.96463  Biso   1.000  C
  H861     1.0000 0.79377  0.32603  0.97023  Biso   1.000  H
  H862     1.0000 0.76527  0.27743  0.95643  Biso   1.000  H
  H863     1.0000 0.74937  0.31773  0.95533  Biso   1.000  H
  C722     1.0000 0.72237  0.31613  0.99603  Biso   1.000  C
  H864     1.0000 0.75477  0.34143  0.00073  Biso   1.000  H
  H865     1.0000 0.70797  0.33063  0.98693  Biso   1.000  H
  H866     1.0000 0.70187  0.30143  0.00863  Biso   1.000  H
  C723     1.0000 0.08027  0.38823  0.07993  Biso   1.000  C
  H867     1.0000 0.05727  0.38293  0.09143  Biso   1.000  H
  H868     1.0000 0.11317  0.41163  0.08473  Biso   1.000  H
  H869     1.0000 0.07217  0.40093  0.06733  Biso   1.000  H
  C724     1.0000 0.67577  0.23853  0.97653  Biso   1.000  C
  H870     1.0000 0.67767  0.21323  0.96833  Biso   1.000  H
  H871     1.0000 0.65547  0.22423  0.98923  Biso   1.000  H
  H872     1.0000 0.66167  0.25353  0.96743  Biso   1.000  H
  C725     1.0000 0.08167  0.36033  0.09703  Biso   1.000  C
  H873     1.0000 0.06037  0.37483  0.09793  Biso   1.000  H
  H874     1.0000 0.06967  0.33343  0.10733  Biso   1.000  H
  H875     1.0000 0.11457  0.38433  0.10013  Biso   1.000  H
  C726     1.0000 0.09157  0.31943  0.09363  Biso   1.000  C
  H876     1.0000 0.06907  0.31343  0.10543  Biso   1.000  H
  H877     1.0000 0.08977  0.28883  0.08943  Biso   1.000  H
  H878     1.0000 0.12467  0.34273  0.09813  Biso   1.000  H
  C727     1.0000 0.11047  0.31773  0.07433  Biso   1.000  C
  H879     1.0000 0.09957  0.29263  0.08533  Biso   1.000  H
  H880     1.0000 0.10877  0.30323  0.06023  Biso   1.000  H
  H881     1.0000 0.14397  0.34303  0.07723  Biso   1.000  H
  C728     1.0000 0.11297  0.34863  0.05653  Biso   1.000  C
  H882     1.0000 0.11187  0.31793  0.05283  Biso   1.000  H
  H883     1.0000 0.10527  0.36133  0.04383  Biso   1.000  H
  H884     1.0000 0.14627  0.37203  0.06133  Biso   1.000  H
  C729     1.0000 0.09547  0.37913  0.05693  Biso   1.000  C
  H885     1.0000 0.07427  0.39373  0.05683  Biso   1.000  H
  H886     1.0000 0.12867  0.40433  0.05993  Biso   1.000  H
  H887     1.0000 0.09357  0.36453  0.04293  Biso   1.000  H
  C730     1.0000 0.56723  0.44227  0.30297  Biso   1.000  C
  C731     1.0000 0.54483  0.43327  0.28287  Biso   1.000  C
  H888     1.0000 0.51803  0.43827  0.28107  Biso   1.000  H
  C732     1.0000 0.56043  0.41727  0.26567  Biso   1.000  C
  H889     1.0000 0.54513  0.41297  0.25207  Biso   1.000  H
  C733     1.0000 0.59753  0.40747  0.26777  Biso   1.000  C
  C734     1.0000 0.62293  0.41897  0.28727  Biso   1.000  C
  H890     1.0000 0.65013  0.41467  0.28887  Biso   1.000  H
  C735     1.0000 0.60793  0.43667  0.30417  Biso   1.000  C
  H891     1.0000 0.62603  0.44527  0.31707  Biso   1.000  H
  O141     1.0000 0.58963  0.48637  0.33517  Biso   1.000  O
  N65      1.0000 0.58333  0.50807  0.35397  Biso   1.000  N
  C736     1.0000 0.62463  0.53947  0.36117  Biso   1.000  C
  H892     1.0000 0.65253  0.54397  0.35357  Biso   1.000  H
  C737     1.0000 0.63243  0.56917  0.38007  Biso   1.000  C
  C738     1.0000 0.59303  0.56337  0.39337  Biso   1.000  C
  C739     1.0000 0.60543  0.59467  0.41167  Biso   1.000  C
  C740     1.0000 0.65393  0.63027  0.41577  Biso   1.000  C
  H893     1.0000 0.66113  0.65097  0.42777  Biso   1.000  H
  C741     1.0000 0.69143  0.63567  0.40237  Biso   1.000  C
  C742     1.0000 0.67993  0.60557  0.38477  Biso   1.000  C
  H894     1.0000 0.70543  0.60977  0.37547  Biso   1.000  H
  C743     1.0000 0.56983  0.59247  0.42677  Biso   1.000  C
  H895     1.0000 0.58153  0.61367  0.43877  Biso   1.000  H
  N66      1.0000 0.52443  0.56447  0.42527  Biso   1.000  N
  O142     1.0000 0.50153  0.57347  0.44277  Biso   1.000  O
  C744     1.0000 0.38803  0.53917  0.47287  Biso   1.000  C
  H896     1.0000 0.36763  0.50717  0.46777  Biso   1.000  H
  C745     1.0000 0.37243  0.55447  0.49027  Biso   1.000  C
  H897     1.0000 0.34143  0.53327  0.49617  Biso   1.000  H
  O143     1.0000 0.54853  0.53077  0.38917  Biso   1.000  O
  C746     1.0000 0.74433  0.67347  0.40767  Biso   1.000  C
  O144     1.0000 0.34133  0.58727  0.52518  Biso   1.000  O
  C747     1.0000 0.39333  0.61047  0.31677  Biso   1.000  C
  C748     1.0000 0.42863  0.63517  0.29797  Biso   1.000  C
  H898     1.0000 0.46043  0.65937  0.30357  Biso   1.000  H
  H899     1.0000 0.43193  0.61077  0.28977  Biso   1.000  H
  H900     1.0000 0.41603  0.65107  0.28867  Biso   1.000  H
  C749     1.0000 0.38903  0.64947  0.32937  Biso   1.000  C
  H901     1.0000 0.42143  0.67477  0.33407  Biso   1.000  H
  H902     1.0000 0.37463  0.66397  0.32027  Biso   1.000  H
  H903     1.0000 0.36853  0.63477  0.34197  Biso   1.000  H
  C750     1.0000 0.74693  0.72157  0.41327  Biso   1.000  C
  H904     1.0000 0.72393  0.71627  0.42477  Biso   1.000  H
  H905     1.0000 0.77983  0.74497  0.41807  Biso   1.000  H
  H906     1.0000 0.73883  0.73427  0.40067  Biso   1.000  H
  C751     1.0000 0.34243  0.57187  0.30987  Biso   1.000  C
  H907     1.0000 0.34433  0.54657  0.30167  Biso   1.000  H
  H908     1.0000 0.32213  0.55757  0.32257  Biso   1.000  H
  H909     1.0000 0.32833  0.58687  0.30077  Biso   1.000  H
  C752     1.0000 0.74833  0.69367  0.43037  Biso   1.000  C
  H910     1.0000 0.72703  0.70817  0.43127  Biso   1.000  H
  H911     1.0000 0.73633  0.66677  0.44067  Biso   1.000  H
  H912     1.0000 0.78123  0.71767  0.43347  Biso   1.000  H
  C753     1.0000 0.75823  0.65277  0.42697  Biso   1.000  C
  H913     1.0000 0.73573  0.64677  0.43877  Biso   1.000  H
  H914     1.0000 0.75643  0.62217  0.42277  Biso   1.000  H
  H915     1.0000 0.79133  0.67607  0.43147  Biso   1.000  H
  C754     1.0000 0.77713  0.65107  0.40767  Biso   1.000  C
  H916     1.0000 0.76623  0.62597  0.41867  Biso   1.000  H
  H917     1.0000 0.77543  0.63657  0.39357  Biso   1.000  H
  H918     1.0000 0.81063  0.67637  0.41057  Biso   1.000  H
  C755     1.0000 0.77963  0.68197  0.38987  Biso   1.000  C
  H919     1.0000 0.77853  0.65127  0.38617  Biso   1.000  H
  H920     1.0000 0.77193  0.69467  0.37717  Biso   1.000  H
  H921     1.0000 0.81293  0.70537  0.39467  Biso   1.000  H
  C756     1.0000 0.76213  0.71247  0.39027  Biso   1.000  C
  H922     1.0000 0.74093  0.72707  0.39017  Biso   1.000  H
  H923     1.0000 0.79533  0.73767  0.39327  Biso   1.000  H
  H924     1.0000 0.76023  0.69787  0.37627  Biso   1.000  H
  C757     1.0000 0.54170  0.76610  0.63630  Biso   1.000  C
  C758     1.0000 0.55510  0.78850  0.61620  Biso   1.000  C
  H925     1.0000 0.58690  0.81530  0.61440  Biso   1.000  H
  C759     1.0000 0.52350  0.77290  0.59900  Biso   1.000  C
  H926     1.0000 0.53450  0.78820  0.58540  Biso   1.000  H
  C760     1.0000 0.47660  0.73580  0.60110  Biso   1.000  C
  C761     1.0000 0.46270  0.71040  0.62060  Biso   1.000  C
  H927     1.0000 0.43120  0.68320  0.62220  Biso   1.000  H
  C762     1.0000 0.49540  0.72540  0.63750  Biso   1.000  C
  H928     1.0000 0.48590  0.70730  0.65040  Biso   1.000  H
  O145     1.0000 0.56340  0.74370  0.66850  Biso   1.000  O
  N67      1.0000 0.59140  0.75000  0.68730  Biso   1.000  N
  C763     1.0000 0.58150  0.70870  0.69450  Biso   1.000  C
  H929     1.0000 0.55810  0.68080  0.68690  Biso   1.000  H
  C764     1.0000 0.60340  0.70090  0.71340  Biso   1.000  C
  C765     1.0000 0.63700  0.74030  0.72670  Biso   1.000  C
  C766     1.0000 0.65590  0.72790  0.74500  Biso   1.000  C
  C767     1.0000 0.64300  0.67940  0.74910  Biso   1.000  C
  H930     1.0000 0.65650  0.67220  0.76110  Biso   1.000  H
  C768     1.0000 0.61090  0.64190  0.73570  Biso   1.000  C
  C769     1.0000 0.59230  0.65340  0.71810  Biso   1.000  C
  H931     1.0000 0.57100  0.62790  0.70880  Biso   1.000  H
  C770     1.0000 0.68930  0.76350  0.76010  Biso   1.000  C
  H932     1.0000 0.69880  0.75180  0.77210  Biso   1.000  H
  N68      1.0000 0.70670  0.80890  0.75860  Biso   1.000  N
  O146     1.0000 0.73860  0.83180  0.77610  Biso   1.000  O
  C771     1.0000 0.81780  0.94530  0.80620  Biso   1.000  C
  H933     1.0000 0.80620  0.96570  0.80110  Biso   1.000  H
  C772     1.0000 0.84870  0.96090  0.82360  Biso   1.000  C
  H934     1.0000 0.85850  0.99190  0.82950  Biso   1.000  H
  O147     1.0000 0.64890  0.78480  0.72250  Biso   1.000  O
  C773     1.0000 0.59580  0.58900  0.74100  Biso   1.000  C
  O148     1.0000 0.91260  0.99200  0.85851  Biso   1.000  O
  C774     1.0000 0.88380  0.94000  0.65010  Biso   1.000  C
  C775     1.0000 0.87320  0.90470  0.63130  Biso   1.000  C
  H935     1.0000 0.86560  0.87290  0.63690  Biso   1.000  H
  H936     1.0000 0.84550  0.90140  0.62310  Biso   1.000  H
  H937     1.0000 0.90170  0.91730  0.62200  Biso   1.000  H
  C776     1.0000 0.92710  0.94430  0.66270  Biso   1.000  C
  H938     1.0000 0.92000  0.91190  0.66740  Biso   1.000  H
  H939     1.0000 0.95600  0.95870  0.65360  Biso   1.000  H
  H940     1.0000 0.93290  0.96480  0.67530  Biso   1.000  H
  C777     1.0000 0.64130  0.58640  0.74660  Biso   1.000  C
  H941     1.0000 0.65900  0.60940  0.75810  Biso   1.000  H
  H942     1.0000 0.63180  0.55350  0.75140  Biso   1.000  H
  H943     1.0000 0.66210  0.59450  0.73400  Biso   1.000  H
  C778     1.0000 0.89610  0.99090  0.64320  Biso   1.000  C
  H944     1.0000 0.86890  0.98900  0.63500  Biso   1.000  H
  H945     1.0000 0.90210  0.01120  0.65590  Biso   1.000  H
  H946     1.0000 0.92520  0.00500  0.63410  Biso   1.000  H
  C779     1.0000 0.61200  0.58500  0.76370  Biso   1.000  C
  H947     1.0000 0.64780  0.60630  0.76460  Biso   1.000  H
  H948     1.0000 0.59710  0.59700  0.77400  Biso   1.000  H
  H949     1.0000 0.60310  0.55210  0.76680  Biso   1.000  H
  C780     1.0000 0.56120  0.57510  0.76030  Biso   1.000  C
  H950     1.0000 0.57770  0.59760  0.77210  Biso   1.000  H
  H951     1.0000 0.53240  0.57690  0.75610  Biso   1.000  H
  H952     1.0000 0.55140  0.54200  0.76480  Biso   1.000  H
  C781     1.0000 0.54060  0.55620  0.74100  Biso   1.000  C
  H953     1.0000 0.52640  0.56710  0.75200  Biso   1.000  H
  H954     1.0000 0.52780  0.55790  0.72690  Biso   1.000  H
  H955     1.0000 0.53240  0.52270  0.74390  Biso   1.000  H
  C782     1.0000 0.56900  0.55370  0.72320  Biso   1.000  C
  H956     1.0000 0.53940  0.55480  0.71950  Biso   1.000  H
  H957     1.0000 0.58940  0.56140  0.71050  Biso   1.000  H
  H958     1.0000 0.55910  0.52040  0.72800  Biso   1.000  H
  C783     1.0000 0.61700  0.57120  0.72360  Biso   1.000  C
  H959     1.0000 0.65280  0.59240  0.72350  Biso   1.000  H
  H960     1.0000 0.60900  0.53800  0.72660  Biso   1.000  H
  H961     1.0000 0.60430  0.57310  0.70960  Biso   1.000  H
  C784     1.0000 0.20837  0.09943  0.96963  Biso   1.000  C
  C785     1.0000 0.22177  0.12183  0.94953  Biso   1.000  C
  H962     1.0000 0.25357  0.14863  0.94773  Biso   1.000  H
  C786     1.0000 0.19017  0.10623  0.93233  Biso   1.000  C
  H963     1.0000 0.20117  0.12153  0.91873  Biso   1.000  H
  C787     1.0000 0.14327  0.06913  0.93443  Biso   1.000  C
  C788     1.0000 0.12937  0.04373  0.95393  Biso   1.000  C
  H964     1.0000 0.09787  0.01653  0.95553  Biso   1.000  H
  C789     1.0000 0.16207  0.05873  0.97083  Biso   1.000  C
  H965     1.0000 0.15257  0.04063  0.98373  Biso   1.000  H
  O149     1.0000 0.23007  0.07703  0.00183  Biso   1.000  O
  N69      1.0000 0.25807  0.08333  0.02063  Biso   1.000  N
  C790     1.0000 0.24817  0.04203  0.02783  Biso   1.000  C
  H966     1.0000 0.22477  0.01413  0.02023  Biso   1.000  H
  C791     1.0000 0.27007  0.03423  0.04673  Biso   1.000  C
  C792     1.0000 0.30367  0.07363  0.06003  Biso   1.000  C
  C793     1.0000 0.32257  0.06123  0.07833  Biso   1.000  C
  C794     1.0000 0.30967  0.01273  0.08243  Biso   1.000  C
  H967     1.0000 0.32317  0.00553  0.09443  Biso   1.000  H
  C795     1.0000 0.27757  0.97523  0.06903  Biso   1.000  C
  C796     1.0000 0.25897  0.98673  0.05143  Biso   1.000  C
  H968     1.0000 0.23767  0.96123  0.04213  Biso   1.000  H
  C797     1.0000 0.35597  0.09683  0.09343  Biso   1.000  C
  H969     1.0000 0.36547  0.08513  0.10543  Biso   1.000  H
  N70      1.0000 0.37337  0.14223  0.09193  Biso   1.000  N
  O150     1.0000 0.40527  0.16513  0.10943  Biso   1.000  O
  C798     1.0000 0.48447  0.27863  0.13953  Biso   1.000  C
  H970     1.0000 0.47287  0.29903  0.13443  Biso   1.000  H
  C799     1.0000 0.51537  0.29423  0.15693  Biso   1.000  C
  H971     1.0000 0.52517  0.32523  0.16283  Biso   1.000  H
  O151     1.0000 0.31557  0.11813  0.05583  Biso   1.000  O
  C800     1.0000 0.26247  0.92233  0.07433  Biso   1.000  C
  O152     1.0000 0.57927  0.32533  0.19184  Biso   1.000  O
  C801     1.0000 0.55047  0.27333  0.98343  Biso   1.000  C
  C802     1.0000 0.53987  0.23803  0.96463  Biso   1.000  C
  H972     1.0000 0.53227  0.20623  0.97023  Biso   1.000  H
  H973     1.0000 0.51217  0.23473  0.95643  Biso   1.000  H
  H974     1.0000 0.56837  0.25063  0.95533  Biso   1.000  H
  C803     1.0000 0.59377  0.27763  0.99603  Biso   1.000  C
  H975     1.0000 0.58667  0.24523  0.00073  Biso   1.000  H
  H976     1.0000 0.62267  0.29203  0.98693  Biso   1.000  H
  H977     1.0000 0.59957  0.29813  0.00863  Biso   1.000  H
  C804     1.0000 0.30797  0.91973  0.07993  Biso   1.000  C
  H978     1.0000 0.32567  0.94273  0.09143  Biso   1.000  H
  H979     1.0000 0.29847  0.88683  0.08473  Biso   1.000  H
  H980     1.0000 0.32877  0.92783  0.06733  Biso   1.000  H
  C805     1.0000 0.56277  0.32423  0.97653  Biso   1.000  C
  H981     1.0000 0.53557  0.32233  0.96833  Biso   1.000  H
  H982     1.0000 0.56877  0.34453  0.98923  Biso   1.000  H
  H983     1.0000 0.59187  0.33833  0.96743  Biso   1.000  H
  C806     1.0000 0.27867  0.91833  0.09703  Biso   1.000  C
  H984     1.0000 0.31447  0.93963  0.09793  Biso   1.000  H
  H985     1.0000 0.26377  0.93033  0.10733  Biso   1.000  H
  H986     1.0000 0.26977  0.88543  0.10013  Biso   1.000  H
  C807     1.0000 0.22787  0.90843  0.09363  Biso   1.000  C
  H987     1.0000 0.24437  0.93093  0.10543  Biso   1.000  H
  H988     1.0000 0.19907  0.91023  0.08943  Biso   1.000  H
  H989     1.0000 0.21807  0.87533  0.09813  Biso   1.000  H
  C808     1.0000 0.20727  0.88953  0.07433  Biso   1.000  C
  H990     1.0000 0.19307  0.90043  0.08533  Biso   1.000  H
  H991     1.0000 0.19447  0.89123  0.06023  Biso   1.000  H
  H992     1.0000 0.19907  0.85603  0.07723  Biso   1.000  H
  C809     1.0000 0.23567  0.88703  0.05653  Biso   1.000  C
  H993     1.0000 0.20607  0.88813  0.05283  Biso   1.000  H
  H994     1.0000 0.25607  0.89473  0.04383  Biso   1.000  H
  H995     1.0000 0.22577  0.85373  0.06133  Biso   1.000  H
  C810     1.0000 0.28367  0.90453  0.05693  Biso   1.000  C
  H996     1.0000 0.31947  0.92573  0.05683  Biso   1.000  H
  H997     1.0000 0.27567  0.87133  0.05993  Biso   1.000  H
  H998     1.0000 0.27097  0.90643  0.04293  Biso   1.000  H
  C811     1.0000 0.87503  0.43277  0.30297  Biso   1.000  C
  C812     1.0000 0.88843  0.45517  0.28287  Biso   1.000  C
  H999     1.0000 0.92023  0.48197  0.28107  Biso   1.000  H
  C813     1.0000 0.85683  0.43957  0.26567  Biso   1.000  C
  H1000    1.0000 0.86783  0.45487  0.25207  Biso   1.000  H
  C814     1.0000 0.80993  0.40247  0.26777  Biso   1.000  C
  C815     1.0000 0.79603  0.37707  0.28727  Biso   1.000  C
  H1001    1.0000 0.76453  0.34987  0.28887  Biso   1.000  H
  C816     1.0000 0.82873  0.39207  0.30417  Biso   1.000  C
  H1002    1.0000 0.81923  0.37397  0.31707  Biso   1.000  H
  O153     1.0000 0.89673  0.41037  0.33517  Biso   1.000  O
  N71      1.0000 0.92473  0.41667  0.35397  Biso   1.000  N
  C817     1.0000 0.91483  0.37537  0.36117  Biso   1.000  C
  H1003    1.0000 0.89143  0.34747  0.35357  Biso   1.000  H
  C818     1.0000 0.93673  0.36757  0.38007  Biso   1.000  C
  C819     1.0000 0.97033  0.40697  0.39337  Biso   1.000  C
  C820     1.0000 0.98923  0.39457  0.41167  Biso   1.000  C
  C821     1.0000 0.97633  0.34607  0.41577  Biso   1.000  C
  H1004    1.0000 0.98983  0.33887  0.42777  Biso   1.000  H
  C822     1.0000 0.94423  0.30857  0.40237  Biso   1.000  C
  C823     1.0000 0.92563  0.32007  0.38477  Biso   1.000  C
  H1005    1.0000 0.90433  0.29457  0.37547  Biso   1.000  H
  C824     1.0000 0.02263  0.43017  0.42677  Biso   1.000  C
  H1006    1.0000 0.03213  0.41847  0.43877  Biso   1.000  H
  N72      1.0000 0.04003  0.47557  0.42527  Biso   1.000  N
  O154     1.0000 0.07193  0.49847  0.44277  Biso   1.000  O
  C825     1.0000 0.15113  0.61197  0.47287  Biso   1.000  C
  H1007    1.0000 0.13953  0.63237  0.46777  Biso   1.000  H
  C826     1.0000 0.18203  0.62757  0.49027  Biso   1.000  C
  H1008    1.0000 0.19183  0.65857  0.49617  Biso   1.000  H
  O155     1.0000 0.98223  0.45147  0.38917  Biso   1.000  O
  C827     1.0000 0.92913  0.25567  0.40767  Biso   1.000  C
  O156     1.0000 0.24593  0.65867  0.52518  Biso   1.000  O
  C828     1.0000 0.21713  0.60667  0.31677  Biso   1.000  C
  C829     1.0000 0.20653  0.57137  0.29797  Biso   1.000  C
  H1009    1.0000 0.19893  0.53957  0.30357  Biso   1.000  H
  H1010    1.0000 0.17883  0.56807  0.28977  Biso   1.000  H
  H1011    1.0000 0.23503  0.58397  0.28867  Biso   1.000  H
  C830     1.0000 0.26043  0.61097  0.32937  Biso   1.000  C
  H1012    1.0000 0.25333  0.57857  0.33407  Biso   1.000  H
  H1013    1.0000 0.28933  0.62537  0.32027  Biso   1.000  H
  H1014    1.0000 0.26623  0.63147  0.34197  Biso   1.000  H
  C831     1.0000 0.97463  0.25307  0.41327  Biso   1.000  C
  H1015    1.0000 0.99233  0.27607  0.42477  Biso   1.000  H
  H1016    1.0000 0.96513  0.22017  0.41807  Biso   1.000  H
  H1017    1.0000 0.99543  0.26117  0.40067  Biso   1.000  H
  C832     1.0000 0.22943  0.65757  0.30987  Biso   1.000  C
  H1018    1.0000 0.20223  0.65567  0.30167  Biso   1.000  H
  H1019    1.0000 0.23543  0.67787  0.32257  Biso   1.000  H
  H1020    1.0000 0.25853  0.67167  0.30077  Biso   1.000  H
  C833     1.0000 0.94533  0.25167  0.43037  Biso   1.000  C
  H1021    1.0000 0.98113  0.27297  0.43127  Biso   1.000  H
  H1022    1.0000 0.93043  0.26367  0.44067  Biso   1.000  H
  H1023    1.0000 0.93643  0.21877  0.43347  Biso   1.000  H
  C834     1.0000 0.89453  0.24177  0.42697  Biso   1.000  C
  H1024    1.0000 0.91103  0.26427  0.43877  Biso   1.000  H
  H1025    1.0000 0.86573  0.24357  0.42277  Biso   1.000  H
  H1026    1.0000 0.88473  0.20867  0.43147  Biso   1.000  H
  C835     1.0000 0.87393  0.22287  0.40767  Biso   1.000  C
  H1027    1.0000 0.85973  0.23377  0.41867  Biso   1.000  H
  H1028    1.0000 0.86113  0.22457  0.39357  Biso   1.000  H
  H1029    1.0000 0.86573  0.18937  0.41057  Biso   1.000  H
  C836     1.0000 0.90233  0.22037  0.38987  Biso   1.000  C
  H1030    1.0000 0.87273  0.22147  0.38617  Biso   1.000  H
  H1031    1.0000 0.92273  0.22807  0.37717  Biso   1.000  H
  H1032    1.0000 0.89243  0.18707  0.39467  Biso   1.000  H
  C837     1.0000 0.95033  0.23787  0.39027  Biso   1.000  C
  H1033    1.0000 0.98613  0.25907  0.39017  Biso   1.000  H
  H1034    1.0000 0.94233  0.20467  0.39327  Biso   1.000  H
  H1035    1.0000 0.93763  0.23977  0.37627  Biso   1.000  H
  C838     1.0000 0.54170  0.77560  0.63630  Biso   1.000  C
  C839     1.0000 0.55510  0.76660  0.61620  Biso   1.000  C
  H1036    1.0000 0.58690  0.77160  0.61440  Biso   1.000  H
  C840     1.0000 0.52350  0.75060  0.59900  Biso   1.000  C
  H1037    1.0000 0.53450  0.74630  0.58540  Biso   1.000  H
  C841     1.0000 0.47660  0.74080  0.60110  Biso   1.000  C
  C842     1.0000 0.46270  0.75230  0.62060  Biso   1.000  C
  H1038    1.0000 0.43120  0.74800  0.62220  Biso   1.000  H
  C843     1.0000 0.49540  0.77000  0.63750  Biso   1.000  C
  H1039    1.0000 0.48590  0.77860  0.65040  Biso   1.000  H
  O157     1.0000 0.56340  0.81970  0.66850  Biso   1.000  O
  N73      1.0000 0.59140  0.84140  0.68730  Biso   1.000  N
  C844     1.0000 0.58150  0.87280  0.69450  Biso   1.000  C
  H1040    1.0000 0.55810  0.87730  0.68690  Biso   1.000  H
  C845     1.0000 0.60340  0.90250  0.71340  Biso   1.000  C
  C846     1.0000 0.63700  0.89670  0.72670  Biso   1.000  C
  C847     1.0000 0.65590  0.92800  0.74500  Biso   1.000  C
  C848     1.0000 0.64300  0.96360  0.74910  Biso   1.000  C
  H1041    1.0000 0.65650  0.98430  0.76110  Biso   1.000  H
  C849     1.0000 0.61090  0.96900  0.73570  Biso   1.000  C
  C850     1.0000 0.59230  0.93890  0.71810  Biso   1.000  C
  H1042    1.0000 0.57100  0.94310  0.70880  Biso   1.000  H
  C851     1.0000 0.68930  0.92580  0.76010  Biso   1.000  C
  H1043    1.0000 0.69880  0.94700  0.77210  Biso   1.000  H
  N74      1.0000 0.70670  0.89780  0.75860  Biso   1.000  N
  O158     1.0000 0.73860  0.90680  0.77610  Biso   1.000  O
  C852     1.0000 0.81780  0.87250  0.80620  Biso   1.000  C
  H1044    1.0000 0.80620  0.84050  0.80110  Biso   1.000  H
  C853     1.0000 0.84870  0.88780  0.82360  Biso   1.000  C
  H1045    1.0000 0.85850  0.86660  0.82950  Biso   1.000  H
  O159     1.0000 0.64890  0.86410  0.72250  Biso   1.000  O
  C854     1.0000 0.59580  0.00680  0.74100  Biso   1.000  C
  O160     1.0000 0.91260  0.92060  0.85851  Biso   1.000  O
  C855     1.0000 0.88380  0.94380  0.65010  Biso   1.000  C
  C856     1.0000 0.87320  0.96850  0.63130  Biso   1.000  C
  H1046    1.0000 0.86560  0.99270  0.63690  Biso   1.000  H
  H1047    1.0000 0.84550  0.94410  0.62310  Biso   1.000  H
  H1048    1.0000 0.90170  0.98440  0.62200  Biso   1.000  H
  C857     1.0000 0.92710  0.98280  0.66270  Biso   1.000  C
  H1049    1.0000 0.92000  0.00810  0.66740  Biso   1.000  H
  H1050    1.0000 0.95600  0.99730  0.65360  Biso   1.000  H
  H1051    1.0000 0.93290  0.96810  0.67530  Biso   1.000  H
  C858     1.0000 0.64130  0.05490  0.74660  Biso   1.000  C
  H1052    1.0000 0.65900  0.04960  0.75810  Biso   1.000  H
  H1053    1.0000 0.63180  0.07830  0.75140  Biso   1.000  H
  H1054    1.0000 0.66210  0.06760  0.73400  Biso   1.000  H
  C859     1.0000 0.89610  0.90520  0.64320  Biso   1.000  C
  H1055    1.0000 0.86890  0.87990  0.63500  Biso   1.000  H
  H1056    1.0000 0.90210  0.89090  0.65590  Biso   1.000  H
  H1057    1.0000 0.92520  0.92020  0.63410  Biso   1.000  H
  C860     1.0000 0.61200  0.02700  0.76370  Biso   1.000  C
  H1058    1.0000 0.64780  0.04150  0.76460  Biso   1.000  H
  H1059    1.0000 0.59710  0.00010  0.77400  Biso   1.000  H
  H1060    1.0000 0.60310  0.05100  0.76680  Biso   1.000  H
  C861     1.0000 0.56120  0.98610  0.76030  Biso   1.000  C
  H1061    1.0000 0.57770  0.98010  0.77210  Biso   1.000  H
  H1062    1.0000 0.53240  0.95550  0.75610  Biso   1.000  H
  H1063    1.0000 0.55140  0.00940  0.76480  Biso   1.000  H
  C862     1.0000 0.54060  0.98440  0.74100  Biso   1.000  C
  H1064    1.0000 0.52640  0.95930  0.75200  Biso   1.000  H
  H1065    1.0000 0.52780  0.96990  0.72690  Biso   1.000  H
  H1066    1.0000 0.53240  0.00970  0.74390  Biso   1.000  H
  C863     1.0000 0.56900  0.01530  0.72320  Biso   1.000  C
  H1067    1.0000 0.53940  0.98460  0.71950  Biso   1.000  H
  H1068    1.0000 0.58940  0.02800  0.71050  Biso   1.000  H
  H1069    1.0000 0.55910  0.03870  0.72800  Biso   1.000  H
  C864     1.0000 0.61700  0.04580  0.72360  Biso   1.000  C
  H1070    1.0000 0.65280  0.06040  0.72350  Biso   1.000  H
  H1071    1.0000 0.60900  0.07100  0.72660  Biso   1.000  H
  H1072    1.0000 0.60430  0.03120  0.70960  Biso   1.000  H
  C865     1.0000 0.20837  0.10893  0.96963  Biso   1.000  C
  C866     1.0000 0.22177  0.09993  0.94953  Biso   1.000  C
  H1073    1.0000 0.25357  0.10493  0.94773  Biso   1.000  H
  C867     1.0000 0.19017  0.08393  0.93233  Biso   1.000  C
  H1074    1.0000 0.20117  0.07963  0.91873  Biso   1.000  H
  C868     1.0000 0.14327  0.07413  0.93443  Biso   1.000  C
  C869     1.0000 0.12937  0.08563  0.95393  Biso   1.000  C
  H1075    1.0000 0.09787  0.08133  0.95553  Biso   1.000  H
  C870     1.0000 0.16207  0.10333  0.97083  Biso   1.000  C
  H1076    1.0000 0.15257  0.11193  0.98373  Biso   1.000  H
  O161     1.0000 0.23007  0.15303  0.00183  Biso   1.000  O
  N75      1.0000 0.25807  0.17473  0.02063  Biso   1.000  N
  C871     1.0000 0.24817  0.20613  0.02783  Biso   1.000  C
  H1077    1.0000 0.22477  0.21063  0.02023  Biso   1.000  H
  C872     1.0000 0.27007  0.23583  0.04673  Biso   1.000  C
  C873     1.0000 0.30367  0.23003  0.06003  Biso   1.000  C
  C874     1.0000 0.32257  0.26133  0.07833  Biso   1.000  C
  C875     1.0000 0.30967  0.29693  0.08243  Biso   1.000  C
  H1078    1.0000 0.32317  0.31763  0.09443  Biso   1.000  H
  C876     1.0000 0.27757  0.30233  0.06903  Biso   1.000  C
  C877     1.0000 0.25897  0.27223  0.05143  Biso   1.000  C
  H1079    1.0000 0.23767  0.27643  0.04213  Biso   1.000  H
  C878     1.0000 0.35597  0.25913  0.09343  Biso   1.000  C
  H1080    1.0000 0.36547  0.28033  0.10543  Biso   1.000  H
  N76      1.0000 0.37337  0.23113  0.09193  Biso   1.000  N
  O162     1.0000 0.40527  0.24013  0.10943  Biso   1.000  O
  C879     1.0000 0.48447  0.20583  0.13953  Biso   1.000  C
  H1081    1.0000 0.47287  0.17383  0.13443  Biso   1.000  H
  C880     1.0000 0.51537  0.22113  0.15693  Biso   1.000  C
  H1082    1.0000 0.52517  0.19993  0.16283  Biso   1.000  H
  O163     1.0000 0.31557  0.19743  0.05583  Biso   1.000  O
  C881     1.0000 0.26247  0.34013  0.07433  Biso   1.000  C
  O164     1.0000 0.57927  0.25393  0.19184  Biso   1.000  O
  C882     1.0000 0.55047  0.27713  0.98343  Biso   1.000  C
  C883     1.0000 0.53987  0.30183  0.96463  Biso   1.000  C
  H1083    1.0000 0.53227  0.32603  0.97023  Biso   1.000  H
  H1084    1.0000 0.51217  0.27743  0.95643  Biso   1.000  H
  H1085    1.0000 0.56837  0.31773  0.95533  Biso   1.000  H
  C884     1.0000 0.59377  0.31613  0.99603  Biso   1.000  C
  H1086    1.0000 0.58667  0.34143  0.00073  Biso   1.000  H
  H1087    1.0000 0.62267  0.33063  0.98693  Biso   1.000  H
  H1088    1.0000 0.59957  0.30143  0.00863  Biso   1.000  H
  C885     1.0000 0.30797  0.38823  0.07993  Biso   1.000  C
  H1089    1.0000 0.32567  0.38293  0.09143  Biso   1.000  H
  H1090    1.0000 0.29847  0.41163  0.08473  Biso   1.000  H
  H1091    1.0000 0.32877  0.40093  0.06733  Biso   1.000  H
  C886     1.0000 0.56277  0.23853  0.97653  Biso   1.000  C
  H1092    1.0000 0.53557  0.21323  0.96833  Biso   1.000  H
  H1093    1.0000 0.56877  0.22423  0.98923  Biso   1.000  H
  H1094    1.0000 0.59187  0.25353  0.96743  Biso   1.000  H
  C887     1.0000 0.27867  0.36033  0.09703  Biso   1.000  C
  H1095    1.0000 0.31447  0.37483  0.09793  Biso   1.000  H
  H1096    1.0000 0.26377  0.33343  0.10733  Biso   1.000  H
  H1097    1.0000 0.26977  0.38433  0.10013  Biso   1.000  H
  C888     1.0000 0.22787  0.31943  0.09363  Biso   1.000  C
  H1098    1.0000 0.24437  0.31343  0.10543  Biso   1.000  H
  H1099    1.0000 0.19907  0.28883  0.08943  Biso   1.000  H
  H1100    1.0000 0.21807  0.34273  0.09813  Biso   1.000  H
  C889     1.0000 0.20727  0.31773  0.07433  Biso   1.000  C
  H1101    1.0000 0.19307  0.29263  0.08533  Biso   1.000  H
  H1102    1.0000 0.19447  0.30323  0.06023  Biso   1.000  H
  H1103    1.0000 0.19907  0.34303  0.07723  Biso   1.000  H
  C890     1.0000 0.23567  0.34863  0.05653  Biso   1.000  C
  H1104    1.0000 0.20607  0.31793  0.05283  Biso   1.000  H
  H1105    1.0000 0.25607  0.36133  0.04383  Biso   1.000  H
  H1106    1.0000 0.22577  0.37203  0.06133  Biso   1.000  H
  C891     1.0000 0.28367  0.37913  0.05693  Biso   1.000  C
  H1107    1.0000 0.31947  0.39373  0.05683  Biso   1.000  H
  H1108    1.0000 0.27567  0.40433  0.05993  Biso   1.000  H
  H1109    1.0000 0.27097  0.36453  0.04293  Biso   1.000  H
  C892     1.0000 0.87503  0.44227  0.30297  Biso   1.000  C
  C893     1.0000 0.88843  0.43327  0.28287  Biso   1.000  C
  H1110    1.0000 0.92023  0.43827  0.28107  Biso   1.000  H
  C894     1.0000 0.85683  0.41727  0.26567  Biso   1.000  C
  H1111    1.0000 0.86783  0.41297  0.25207  Biso   1.000  H
  C895     1.0000 0.80993  0.40747  0.26777  Biso   1.000  C
  C896     1.0000 0.79603  0.41897  0.28727  Biso   1.000  C
  H1112    1.0000 0.76453  0.41467  0.28887  Biso   1.000  H
  C897     1.0000 0.82873  0.43667  0.30417  Biso   1.000  C
  H1113    1.0000 0.81923  0.44527  0.31707  Biso   1.000  H
  O165     1.0000 0.89673  0.48637  0.33517  Biso   1.000  O
  N77      1.0000 0.92473  0.50807  0.35397  Biso   1.000  N
  C898     1.0000 0.91483  0.53947  0.36117  Biso   1.000  C
  H1114    1.0000 0.89143  0.54397  0.35357  Biso   1.000  H
  C899     1.0000 0.93673  0.56917  0.38007  Biso   1.000  C
  C900     1.0000 0.97033  0.56337  0.39337  Biso   1.000  C
  C901     1.0000 0.98923  0.59467  0.41167  Biso   1.000  C
  C902     1.0000 0.97633  0.63027  0.41577  Biso   1.000  C
  H1115    1.0000 0.98983  0.65097  0.42777  Biso   1.000  H
  C903     1.0000 0.94423  0.63567  0.40237  Biso   1.000  C
  C904     1.0000 0.92563  0.60557  0.38477  Biso   1.000  C
  H1116    1.0000 0.90433  0.60977  0.37547  Biso   1.000  H
  C905     1.0000 0.02263  0.59247  0.42677  Biso   1.000  C
  H1117    1.0000 0.03213  0.61367  0.43877  Biso   1.000  H
  N78      1.0000 0.04003  0.56447  0.42527  Biso   1.000  N
  O166     1.0000 0.07193  0.57347  0.44277  Biso   1.000  O
  C906     1.0000 0.15113  0.53917  0.47287  Biso   1.000  C
  H1118    1.0000 0.13953  0.50717  0.46777  Biso   1.000  H
  C907     1.0000 0.18203  0.55447  0.49027  Biso   1.000  C
  H1119    1.0000 0.19183  0.53327  0.49617  Biso   1.000  H
  O167     1.0000 0.98223  0.53077  0.38917  Biso   1.000  O
  C908     1.0000 0.92913  0.67347  0.40767  Biso   1.000  C
  O168     1.0000 0.24593  0.58727  0.52518  Biso   1.000  O
  C909     1.0000 0.21713  0.61047  0.31677  Biso   1.000  C
  C910     1.0000 0.20653  0.63517  0.29797  Biso   1.000  C
  H1120    1.0000 0.19893  0.65937  0.30357  Biso   1.000  H
  H1121    1.0000 0.17883  0.61077  0.28977  Biso   1.000  H
  H1122    1.0000 0.23503  0.65107  0.28867  Biso   1.000  H
  C911     1.0000 0.26043  0.64947  0.32937  Biso   1.000  C
  H1123    1.0000 0.25333  0.67477  0.33407  Biso   1.000  H
  H1124    1.0000 0.28933  0.66397  0.32027  Biso   1.000  H
  H1125    1.0000 0.26623  0.63477  0.34197  Biso   1.000  H
  C912     1.0000 0.97463  0.72157  0.41327  Biso   1.000  C
  H1126    1.0000 0.99233  0.71627  0.42477  Biso   1.000  H
  H1127    1.0000 0.96513  0.74497  0.41807  Biso   1.000  H
  H1128    1.0000 0.99543  0.73427  0.40067  Biso   1.000  H
  C913     1.0000 0.22943  0.57187  0.30987  Biso   1.000  C
  H1129    1.0000 0.20223  0.54657  0.30167  Biso   1.000  H
  H1130    1.0000 0.23543  0.55757  0.32257  Biso   1.000  H
  H1131    1.0000 0.25853  0.58687  0.30077  Biso   1.000  H
  C914     1.0000 0.94533  0.69367  0.43037  Biso   1.000  C
  H1132    1.0000 0.98113  0.70817  0.43127  Biso   1.000  H
  H1133    1.0000 0.93043  0.66677  0.44067  Biso   1.000  H
  H1134    1.0000 0.93643  0.71767  0.43347  Biso   1.000  H
  C915     1.0000 0.89453  0.65277  0.42697  Biso   1.000  C
  H1135    1.0000 0.91103  0.64677  0.43877  Biso   1.000  H
  H1136    1.0000 0.86573  0.62217  0.42277  Biso   1.000  H
  H1137    1.0000 0.88473  0.67607  0.43147  Biso   1.000  H
  C916     1.0000 0.87393  0.65107  0.40767  Biso   1.000  C
  H1138    1.0000 0.85973  0.62597  0.41867  Biso   1.000  H
  H1139    1.0000 0.86113  0.63657  0.39357  Biso   1.000  H
  H1140    1.0000 0.86573  0.67637  0.41057  Biso   1.000  H
  C917     1.0000 0.90233  0.68197  0.38987  Biso   1.000  C
  H1141    1.0000 0.87273  0.65127  0.38617  Biso   1.000  H
  H1142    1.0000 0.92273  0.69467  0.37717  Biso   1.000  H
  H1143    1.0000 0.89243  0.70537  0.39467  Biso   1.000  H
  C918     1.0000 0.95033  0.71247  0.39027  Biso   1.000  C
  H1144    1.0000 0.98613  0.72707  0.39017  Biso   1.000  H
  H1145    1.0000 0.94233  0.73767  0.39327  Biso   1.000  H
  H1146    1.0000 0.93763  0.69787  0.37627  Biso   1.000  H
  C919     1.0000 0.22440  0.76610  0.63630  Biso   1.000  C
  C920     1.0000 0.23340  0.78850  0.61620  Biso   1.000  C
  H1147    1.0000 0.22840  0.81530  0.61440  Biso   1.000  H
  C921     1.0000 0.24940  0.77290  0.59900  Biso   1.000  C
  H1148    1.0000 0.25370  0.78820  0.58540  Biso   1.000  H
  C922     1.0000 0.25920  0.73580  0.60110  Biso   1.000  C
  C923     1.0000 0.24770  0.71040  0.62060  Biso   1.000  C
  H1149    1.0000 0.25200  0.68320  0.62220  Biso   1.000  H
  C924     1.0000 0.23000  0.72540  0.63750  Biso   1.000  C
  H1150    1.0000 0.22140  0.70730  0.65040  Biso   1.000  H
  O169     1.0000 0.18030  0.74370  0.66850  Biso   1.000  O
  N79      1.0000 0.15860  0.75000  0.68730  Biso   1.000  N
  C925     1.0000 0.12720  0.70870  0.69450  Biso   1.000  C
  H1151    1.0000 0.12270  0.68080  0.68690  Biso   1.000  H
  C926     1.0000 0.09750  0.70090  0.71340  Biso   1.000  C
  C927     1.0000 0.10330  0.74030  0.72670  Biso   1.000  C
  C928     1.0000 0.07200  0.72790  0.74500  Biso   1.000  C
  C929     1.0000 0.03640  0.67940  0.74910  Biso   1.000  C
  H1152    1.0000 0.01570  0.67220  0.76110  Biso   1.000  H
  C930     1.0000 0.03100  0.64190  0.73570  Biso   1.000  C
  C931     1.0000 0.06110  0.65340  0.71810  Biso   1.000  C
  H1153    1.0000 0.05690  0.62790  0.70880  Biso   1.000  H
  C932     1.0000 0.07420  0.76350  0.76010  Biso   1.000  C
  H1154    1.0000 0.05300  0.75180  0.77210  Biso   1.000  H
  N80      1.0000 0.10220  0.80890  0.75860  Biso   1.000  N
  O170     1.0000 0.09320  0.83180  0.77610  Biso   1.000  O
  C933     1.0000 0.12750  0.94530  0.80620  Biso   1.000  C
  H1155    1.0000 0.15950  0.96570  0.80110  Biso   1.000  H
  C934     1.0000 0.11220  0.96090  0.82360  Biso   1.000  C
  H1156    1.0000 0.13340  0.99190  0.82950  Biso   1.000  H
  O171     1.0000 0.13590  0.78480  0.72250  Biso   1.000  O
  C935     1.0000 0.99320  0.58900  0.74100  Biso   1.000  C
  O172     1.0000 0.07940  0.99200  0.85851  Biso   1.000  O
  C936     1.0000 0.05620  0.94000  0.65010  Biso   1.000  C
  C937     1.0000 0.03150  0.90470  0.63130  Biso   1.000  C
  H1157    1.0000 0.00730  0.87290  0.63690  Biso   1.000  H
  H1158    1.0000 0.05590  0.90140  0.62310  Biso   1.000  H
  H1159    1.0000 0.01560  0.91730  0.62200  Biso   1.000  H
  C938     1.0000 0.01720  0.94430  0.66270  Biso   1.000  C
  H1160    1.0000 0.99190  0.91190  0.66740  Biso   1.000  H
  H1161    1.0000 0.00270  0.95870  0.65360  Biso   1.000  H
  H1162    1.0000 0.03190  0.96480  0.67530  Biso   1.000  H
  C939     1.0000 0.94510  0.58640  0.74660  Biso   1.000  C
  H1163    1.0000 0.95040  0.60940  0.75810  Biso   1.000  H
  H1164    1.0000 0.92170  0.55350  0.75140  Biso   1.000  H
  H1165    1.0000 0.93240  0.59450  0.73400  Biso   1.000  H
  C940     1.0000 0.09480  0.99090  0.64320  Biso   1.000  C
  H1166    1.0000 0.12010  0.98900  0.63500  Biso   1.000  H
  H1167    1.0000 0.10910  0.01120  0.65590  Biso   1.000  H
  H1168    1.0000 0.07980  0.00500  0.63410  Biso   1.000  H
  C941     1.0000 0.97300  0.58500  0.76370  Biso   1.000  C
  H1169    1.0000 0.95850  0.60630  0.76460  Biso   1.000  H
  H1170    1.0000 0.99990  0.59700  0.77400  Biso   1.000  H
  H1171    1.0000 0.94900  0.55210  0.76680  Biso   1.000  H
  C942     1.0000 0.01390  0.57510  0.76030  Biso   1.000  C
  H1172    1.0000 0.01990  0.59760  0.77210  Biso   1.000  H
  H1173    1.0000 0.04450  0.57690  0.75610  Biso   1.000  H
  H1174    1.0000 0.99060  0.54200  0.76480  Biso   1.000  H
  C943     1.0000 0.01560  0.55620  0.74100  Biso   1.000  C
  H1175    1.0000 0.04070  0.56710  0.75200  Biso   1.000  H
  H1176    1.0000 0.03010  0.55790  0.72690  Biso   1.000  H
  H1177    1.0000 0.99030  0.52270  0.74390  Biso   1.000  H
  C944     1.0000 0.98470  0.55370  0.72320  Biso   1.000  C
  H1178    1.0000 0.01540  0.55480  0.71950  Biso   1.000  H
  H1179    1.0000 0.97200  0.56140  0.71050  Biso   1.000  H
  H1180    1.0000 0.96130  0.52040  0.72800  Biso   1.000  H
  C945     1.0000 0.95420  0.57120  0.72360  Biso   1.000  C
  H1181    1.0000 0.93960  0.59240  0.72350  Biso   1.000  H
  H1182    1.0000 0.92900  0.53800  0.72660  Biso   1.000  H
  H1183    1.0000 0.96880  0.57310  0.70960  Biso   1.000  H
  C946     1.0000 0.89107  0.09943  0.96963  Biso   1.000  C
  C947     1.0000 0.90007  0.12183  0.94953  Biso   1.000  C
  H1184    1.0000 0.89507  0.14863  0.94773  Biso   1.000  H
  C948     1.0000 0.91607  0.10623  0.93233  Biso   1.000  C
  H1185    1.0000 0.92037  0.12153  0.91873  Biso   1.000  H
  C949     1.0000 0.92587  0.06913  0.93443  Biso   1.000  C
  C950     1.0000 0.91437  0.04373  0.95393  Biso   1.000  C
  H1186    1.0000 0.91867  0.01653  0.95553  Biso   1.000  H
  C951     1.0000 0.89667  0.05873  0.97083  Biso   1.000  C
  H1187    1.0000 0.88807  0.04063  0.98373  Biso   1.000  H
  O173     1.0000 0.84697  0.07703  0.00183  Biso   1.000  O
  N81      1.0000 0.82527  0.08333  0.02063  Biso   1.000  N
  C952     1.0000 0.79387  0.04203  0.02783  Biso   1.000  C
  H1188    1.0000 0.78937  0.01413  0.02023  Biso   1.000  H
  C953     1.0000 0.76417  0.03423  0.04673  Biso   1.000  C
  C954     1.0000 0.76997  0.07363  0.06003  Biso   1.000  C
  C955     1.0000 0.73867  0.06123  0.07833  Biso   1.000  C
  C956     1.0000 0.70307  0.01273  0.08243  Biso   1.000  C
  H1189    1.0000 0.68237  0.00553  0.09443  Biso   1.000  H
  C957     1.0000 0.69767  0.97523  0.06903  Biso   1.000  C
  C958     1.0000 0.72777  0.98673  0.05143  Biso   1.000  C
  H1190    1.0000 0.72357  0.96123  0.04213  Biso   1.000  H
  C959     1.0000 0.74087  0.09683  0.09343  Biso   1.000  C
  H1191    1.0000 0.71967  0.08513  0.10543  Biso   1.000  H
  N82      1.0000 0.76887  0.14223  0.09193  Biso   1.000  N
  O174     1.0000 0.75987  0.16513  0.10943  Biso   1.000  O
  C960     1.0000 0.79417  0.27863  0.13953  Biso   1.000  C
  H1192    1.0000 0.82617  0.29903  0.13443  Biso   1.000  H
  C961     1.0000 0.77887  0.29423  0.15693  Biso   1.000  C
  H1193    1.0000 0.80007  0.32523  0.16283  Biso   1.000  H
  O175     1.0000 0.80257  0.11813  0.05583  Biso   1.000  O
  C962     1.0000 0.65987  0.92233  0.07433  Biso   1.000  C
  O176     1.0000 0.74607  0.32533  0.19184  Biso   1.000  O
  C963     1.0000 0.72287  0.27333  0.98343  Biso   1.000  C
  C964     1.0000 0.69817  0.23803  0.96463  Biso   1.000  C
  H1194    1.0000 0.67397  0.20623  0.97023  Biso   1.000  H
  H1195    1.0000 0.72257  0.23473  0.95643  Biso   1.000  H
  H1196    1.0000 0.68227  0.25063  0.95533  Biso   1.000  H
  C965     1.0000 0.68387  0.27763  0.99603  Biso   1.000  C
  H1197    1.0000 0.65857  0.24523  0.00073  Biso   1.000  H
  H1198    1.0000 0.66937  0.29203  0.98693  Biso   1.000  H
  H1199    1.0000 0.69857  0.29813  0.00863  Biso   1.000  H
  C966     1.0000 0.61177  0.91973  0.07993  Biso   1.000  C
  H1200    1.0000 0.61707  0.94273  0.09143  Biso   1.000  H
  H1201    1.0000 0.58837  0.88683  0.08473  Biso   1.000  H
  H1202    1.0000 0.59907  0.92783  0.06733  Biso   1.000  H
  C967     1.0000 0.76147  0.32423  0.97653  Biso   1.000  C
  H1203    1.0000 0.78677  0.32233  0.96833  Biso   1.000  H
  H1204    1.0000 0.77577  0.34453  0.98923  Biso   1.000  H
  H1205    1.0000 0.74647  0.33833  0.96743  Biso   1.000  H
  C968     1.0000 0.63967  0.91833  0.09703  Biso   1.000  C
  H1206    1.0000 0.62517  0.93963  0.09793  Biso   1.000  H
  H1207    1.0000 0.66657  0.93033  0.10733  Biso   1.000  H
  H1208    1.0000 0.61567  0.88543  0.10013  Biso   1.000  H
  C969     1.0000 0.68057  0.90843  0.09363  Biso   1.000  C
  H1209    1.0000 0.68657  0.93093  0.10543  Biso   1.000  H
  H1210    1.0000 0.71117  0.91023  0.08943  Biso   1.000  H
  H1211    1.0000 0.65727  0.87533  0.09813  Biso   1.000  H
  C970     1.0000 0.68227  0.88953  0.07433  Biso   1.000  C
  H1212    1.0000 0.70737  0.90043  0.08533  Biso   1.000  H
  H1213    1.0000 0.69677  0.89123  0.06023  Biso   1.000  H
  H1214    1.0000 0.65697  0.85603  0.07723  Biso   1.000  H
  C971     1.0000 0.65137  0.88703  0.05653  Biso   1.000  C
  H1215    1.0000 0.68207  0.88813  0.05283  Biso   1.000  H
  H1216    1.0000 0.63867  0.89473  0.04383  Biso   1.000  H
  H1217    1.0000 0.62797  0.85373  0.06133  Biso   1.000  H
  C972     1.0000 0.62087  0.90453  0.05693  Biso   1.000  C
  H1218    1.0000 0.60627  0.92573  0.05683  Biso   1.000  H
  H1219    1.0000 0.59567  0.87133  0.05993  Biso   1.000  H
  H1220    1.0000 0.63547  0.90643  0.04293  Biso   1.000  H
  C973     1.0000 0.55773  0.43277  0.30297  Biso   1.000  C
  C974     1.0000 0.56673  0.45517  0.28287  Biso   1.000  C
  H1221    1.0000 0.56173  0.48197  0.28107  Biso   1.000  H
  C975     1.0000 0.58273  0.43957  0.26567  Biso   1.000  C
  H1222    1.0000 0.58703  0.45487  0.25207  Biso   1.000  H
  C976     1.0000 0.59253  0.40247  0.26777  Biso   1.000  C
  C977     1.0000 0.58103  0.37707  0.28727  Biso   1.000  C
  H1223    1.0000 0.58533  0.34987  0.28887  Biso   1.000  H
  C978     1.0000 0.56333  0.39207  0.30417  Biso   1.000  C
  H1224    1.0000 0.55473  0.37397  0.31707  Biso   1.000  H
  O177     1.0000 0.51363  0.41037  0.33517  Biso   1.000  O
  N83      1.0000 0.49193  0.41667  0.35397  Biso   1.000  N
  C979     1.0000 0.46053  0.37537  0.36117  Biso   1.000  C
  H1225    1.0000 0.45603  0.34747  0.35357  Biso   1.000  H
  C980     1.0000 0.43083  0.36757  0.38007  Biso   1.000  C
  C981     1.0000 0.43663  0.40697  0.39337  Biso   1.000  C
  C982     1.0000 0.40533  0.39457  0.41167  Biso   1.000  C
  C983     1.0000 0.36973  0.34607  0.41577  Biso   1.000  C
  H1226    1.0000 0.34903  0.33887  0.42777  Biso   1.000  H
  C984     1.0000 0.36433  0.30857  0.40237  Biso   1.000  C
  C985     1.0000 0.39443  0.32007  0.38477  Biso   1.000  C
  H1227    1.0000 0.39023  0.29457  0.37547  Biso   1.000  H
  C986     1.0000 0.40753  0.43017  0.42677  Biso   1.000  C
  H1228    1.0000 0.38633  0.41847  0.43877  Biso   1.000  H
  N84      1.0000 0.43553  0.47557  0.42527  Biso   1.000  N
  O178     1.0000 0.42653  0.49847  0.44277  Biso   1.000  O
  C987     1.0000 0.46083  0.61197  0.47287  Biso   1.000  C
  H1229    1.0000 0.49283  0.63237  0.46777  Biso   1.000  H
  C988     1.0000 0.44553  0.62757  0.49027  Biso   1.000  C
  H1230    1.0000 0.46673  0.65857  0.49617  Biso   1.000  H
  O179     1.0000 0.46923  0.45147  0.38917  Biso   1.000  O
  C989     1.0000 0.32653  0.25567  0.40767  Biso   1.000  C
  O180     1.0000 0.41273  0.65867  0.52518  Biso   1.000  O
  C990     1.0000 0.38953  0.60667  0.31677  Biso   1.000  C
  C991     1.0000 0.36483  0.57137  0.29797  Biso   1.000  C
  H1231    1.0000 0.34063  0.53957  0.30357  Biso   1.000  H
  H1232    1.0000 0.38923  0.56807  0.28977  Biso   1.000  H
  H1233    1.0000 0.34893  0.58397  0.28867  Biso   1.000  H
  C992     1.0000 0.35053  0.61097  0.32937  Biso   1.000  C
  H1234    1.0000 0.32523  0.57857  0.33407  Biso   1.000  H
  H1235    1.0000 0.33603  0.62537  0.32027  Biso   1.000  H
  H1236    1.0000 0.36523  0.63147  0.34197  Biso   1.000  H
  C993     1.0000 0.27843  0.25307  0.41327  Biso   1.000  C
  H1237    1.0000 0.28373  0.27607  0.42477  Biso   1.000  H
  H1238    1.0000 0.25503  0.22017  0.41807  Biso   1.000  H
  H1239    1.0000 0.26573  0.26117  0.40067  Biso   1.000  H
  C994     1.0000 0.42813  0.65757  0.30987  Biso   1.000  C
  H1240    1.0000 0.45343  0.65567  0.30167  Biso   1.000  H
  H1241    1.0000 0.44243  0.67787  0.32257  Biso   1.000  H
  H1242    1.0000 0.41313  0.67167  0.30077  Biso   1.000  H
  C995     1.0000 0.30633  0.25167  0.43037  Biso   1.000  C
  H1243    1.0000 0.29183  0.27297  0.43127  Biso   1.000  H
  H1244    1.0000 0.33323  0.26367  0.44067  Biso   1.000  H
  H1245    1.0000 0.28233  0.21877  0.43347  Biso   1.000  H
  C996     1.0000 0.34723  0.24177  0.42697  Biso   1.000  C
  H1246    1.0000 0.35323  0.26427  0.43877  Biso   1.000  H
  H1247    1.0000 0.37783  0.24357  0.42277  Biso   1.000  H
  H1248    1.0000 0.32393  0.20867  0.43147  Biso   1.000  H
  C997     1.0000 0.34893  0.22287  0.40767  Biso   1.000  C
  H1249    1.0000 0.37403  0.23377  0.41867  Biso   1.000  H
  H1250    1.0000 0.36343  0.22457  0.39357  Biso   1.000  H
  H1251    1.0000 0.32363  0.18937  0.41057  Biso   1.000  H
  C998     1.0000 0.31803  0.22037  0.38987  Biso   1.000  C
  H1252    1.0000 0.34873  0.22147  0.38617  Biso   1.000  H
  H1253    1.0000 0.30533  0.22807  0.37717  Biso   1.000  H
  H1254    1.0000 0.29463  0.18707  0.39467  Biso   1.000  H
  C999     1.0000 0.28753  0.23787  0.39027  Biso   1.000  C
  H1255    1.0000 0.27293  0.25907  0.39017  Biso   1.000  H
  H1256    1.0000 0.26233  0.20467  0.39327  Biso   1.000  H
  H1257    1.0000 0.30213  0.23977  0.37627  Biso   1.000  H
  C1000    1.0000 0.23390  0.45830  0.63630  Biso   1.000  C
  C1001    1.0000 0.21150  0.44490  0.61620  Biso   1.000  C
  H1258    1.0000 0.18470  0.41310  0.61440  Biso   1.000  H
  C1002    1.0000 0.22710  0.47650  0.59900  Biso   1.000  C
  H1259    1.0000 0.21180  0.46550  0.58540  Biso   1.000  H
  C1003    1.0000 0.26420  0.52340  0.60110  Biso   1.000  C
  C1004    1.0000 0.28960  0.53730  0.62060  Biso   1.000  C
  H1260    1.0000 0.31680  0.56880  0.62220  Biso   1.000  H
  C1005    1.0000 0.27460  0.50460  0.63750  Biso   1.000  C
  H1261    1.0000 0.29270  0.51410  0.65040  Biso   1.000  H
  O181     1.0000 0.25630  0.43660  0.66850  Biso   1.000  O
  N85      1.0000 0.25000  0.40860  0.68730  Biso   1.000  N
  C1006    1.0000 0.29130  0.41850  0.69450  Biso   1.000  C
  H1262    1.0000 0.31920  0.44190  0.68690  Biso   1.000  H
  C1007    1.0000 0.29910  0.39660  0.71340  Biso   1.000  C
  C1008    1.0000 0.25970  0.36300  0.72670  Biso   1.000  C
  C1009    1.0000 0.27210  0.34410  0.74500  Biso   1.000  C
  C1010    1.0000 0.32060  0.35700  0.74910  Biso   1.000  C
  H1263    1.0000 0.32780  0.34350  0.76110  Biso   1.000  H
  C1011    1.0000 0.35810  0.38910  0.73570  Biso   1.000  C
  C1012    1.0000 0.34660  0.40770  0.71810  Biso   1.000  C
  H1264    1.0000 0.37210  0.42900  0.70880  Biso   1.000  H
  C1013    1.0000 0.23650  0.31070  0.76010  Biso   1.000  C
  H1265    1.0000 0.24820  0.30120  0.77210  Biso   1.000  H
  N86      1.0000 0.19110  0.29330  0.75860  Biso   1.000  N
  O182     1.0000 0.16820  0.26140  0.77610  Biso   1.000  O
  C1014    1.0000 0.05470  0.18220  0.80620  Biso   1.000  C
  H1266    1.0000 0.03430  0.19380  0.80110  Biso   1.000  H
  C1015    1.0000 0.03910  0.15130  0.82360  Biso   1.000  C
  H1267    1.0000 0.00810  0.14150  0.82950  Biso   1.000  H
  O183     1.0000 0.21520  0.35110  0.72250  Biso   1.000  O
  C1016    1.0000 0.41100  0.40420  0.74100  Biso   1.000  C
  O184     1.0000 0.00800  0.08740  0.85851  Biso   1.000  O
  C1017    1.0000 0.06000  0.11620  0.65010  Biso   1.000  C
  C1018    1.0000 0.09530  0.12680  0.63130  Biso   1.000  C
  H1268    1.0000 0.12710  0.13440  0.63690  Biso   1.000  H
  H1269    1.0000 0.09860  0.15450  0.62310  Biso   1.000  H
  H1270    1.0000 0.08270  0.09830  0.62200  Biso   1.000  H
  C1019    1.0000 0.05570  0.07290  0.66270  Biso   1.000  C
  H1271    1.0000 0.08810  0.08000  0.66740  Biso   1.000  H
  H1272    1.0000 0.04130  0.04400  0.65360  Biso   1.000  H
  H1273    1.0000 0.03520  0.06710  0.67530  Biso   1.000  H
  C1020    1.0000 0.41360  0.35870  0.74660  Biso   1.000  C
  H1274    1.0000 0.39060  0.34100  0.75810  Biso   1.000  H
  H1275    1.0000 0.44650  0.36820  0.75140  Biso   1.000  H
  H1276    1.0000 0.40550  0.33790  0.73400  Biso   1.000  H
  C1021    1.0000 0.00910  0.10390  0.64320  Biso   1.000  C
  H1277    1.0000 0.01100  0.13110  0.63500  Biso   1.000  H
  H1278    1.0000 0.98880  0.09790  0.65590  Biso   1.000  H
  H1279    1.0000 0.99500  0.07480  0.63410  Biso   1.000  H
  C1022    1.0000 0.41500  0.38800  0.76370  Biso   1.000  C
  H1280    1.0000 0.39370  0.35220  0.76460  Biso   1.000  H
  H1281    1.0000 0.40300  0.40290  0.77400  Biso   1.000  H
  H1282    1.0000 0.44790  0.39690  0.76680  Biso   1.000  H
  C1023    1.0000 0.42490  0.43880  0.76030  Biso   1.000  C
  H1283    1.0000 0.40240  0.42230  0.77210  Biso   1.000  H
  H1284    1.0000 0.42310  0.46760  0.75610  Biso   1.000  H
  H1285    1.0000 0.45800  0.44860  0.76480  Biso   1.000  H
  C1024    1.0000 0.44380  0.45940  0.74100  Biso   1.000  C
  H1286    1.0000 0.43290  0.47360  0.75200  Biso   1.000  H
  H1287    1.0000 0.44210  0.47220  0.72690  Biso   1.000  H
  H1288    1.0000 0.47730  0.46760  0.74390  Biso   1.000  H
  C1025    1.0000 0.44630  0.43100  0.72320  Biso   1.000  C
  H1289    1.0000 0.44520  0.46060  0.71950  Biso   1.000  H
  H1290    1.0000 0.43860  0.41060  0.71050  Biso   1.000  H
  H1291    1.0000 0.47960  0.44090  0.72800  Biso   1.000  H
  C1026    1.0000 0.42880  0.38300  0.72360  Biso   1.000  C
  H1292    1.0000 0.40760  0.34720  0.72350  Biso   1.000  H
  H1293    1.0000 0.46200  0.39100  0.72660  Biso   1.000  H
  H1294    1.0000 0.42690  0.39570  0.70960  Biso   1.000  H
  C1027    1.0000 0.90057  0.79163  0.96963  Biso   1.000  C
  C1028    1.0000 0.87817  0.77823  0.94953  Biso   1.000  C
  H1295    1.0000 0.85137  0.74643  0.94773  Biso   1.000  H
  C1029    1.0000 0.89377  0.80983  0.93233  Biso   1.000  C
  H1296    1.0000 0.87847  0.79883  0.91873  Biso   1.000  H
  C1030    1.0000 0.93087  0.85673  0.93443  Biso   1.000  C
  C1031    1.0000 0.95627  0.87063  0.95393  Biso   1.000  C
  H1297    1.0000 0.98347  0.90213  0.95553  Biso   1.000  H
  C1032    1.0000 0.94127  0.83793  0.97083  Biso   1.000  C
  H1298    1.0000 0.95937  0.84743  0.98373  Biso   1.000  H
  O185     1.0000 0.92297  0.76993  0.00183  Biso   1.000  O
  N87      1.0000 0.91667  0.74193  0.02063  Biso   1.000  N
  C1033    1.0000 0.95797  0.75183  0.02783  Biso   1.000  C
  H1299    1.0000 0.98587  0.77523  0.02023  Biso   1.000  H
  C1034    1.0000 0.96577  0.72993  0.04673  Biso   1.000  C
  C1035    1.0000 0.92637  0.69633  0.06003  Biso   1.000  C
  C1036    1.0000 0.93877  0.67743  0.07833  Biso   1.000  C
  C1037    1.0000 0.98727  0.69033  0.08243  Biso   1.000  C
  H1300    1.0000 0.99447  0.67683  0.09443  Biso   1.000  H
  C1038    1.0000 0.02477  0.72243  0.06903  Biso   1.000  C
  C1039    1.0000 0.01327  0.74103  0.05143  Biso   1.000  C
  H1301    1.0000 0.03877  0.76233  0.04213  Biso   1.000  H
  C1040    1.0000 0.90317  0.64403  0.09343  Biso   1.000  C
  H1302    1.0000 0.91487  0.63453  0.10543  Biso   1.000  H
  N88      1.0000 0.85777  0.62663  0.09193  Biso   1.000  N
  O186     1.0000 0.83487  0.59473  0.10943  Biso   1.000  O
  C1041    1.0000 0.72137  0.51553  0.13953  Biso   1.000  C
  H1303    1.0000 0.70097  0.52713  0.13443  Biso   1.000  H
  C1042    1.0000 0.70577  0.48463  0.15693  Biso   1.000  C
  H1304    1.0000 0.67477  0.47483  0.16283  Biso   1.000  H
  O187     1.0000 0.88187  0.68443  0.05583  Biso   1.000  O
  C1043    1.0000 0.07767  0.73753  0.07433  Biso   1.000  C
  O188     1.0000 0.67467  0.42073  0.19184  Biso   1.000  O
  C1044    1.0000 0.72667  0.44953  0.98343  Biso   1.000  C
  C1045    1.0000 0.76197  0.46013  0.96463  Biso   1.000  C
  H1305    1.0000 0.79377  0.46773  0.97023  Biso   1.000  H
  H1306    1.0000 0.76527  0.48783  0.95643  Biso   1.000  H
  H1307    1.0000 0.74937  0.43163  0.95533  Biso   1.000  H
  C1046    1.0000 0.72237  0.40623  0.99603  Biso   1.000  C
  H1308    1.0000 0.75477  0.41333  0.00073  Biso   1.000  H
  H1309    1.0000 0.70797  0.37733  0.98693  Biso   1.000  H
  H1310    1.0000 0.70187  0.40043  0.00863  Biso   1.000  H
  C1047    1.0000 0.08027  0.69203  0.07993  Biso   1.000  C
  H1311    1.0000 0.05727  0.67433  0.09143  Biso   1.000  H
  H1312    1.0000 0.11317  0.70153  0.08473  Biso   1.000  H
  H1313    1.0000 0.07217  0.67123  0.06733  Biso   1.000  H
  C1048    1.0000 0.67577  0.43723  0.97653  Biso   1.000  C
  H1314    1.0000 0.67767  0.46443  0.96833  Biso   1.000  H
  H1315    1.0000 0.65547  0.43123  0.98923  Biso   1.000  H
  H1316    1.0000 0.66167  0.40813  0.96743  Biso   1.000  H
  C1049    1.0000 0.08167  0.72133  0.09703  Biso   1.000  C
  H1317    1.0000 0.06037  0.68553  0.09793  Biso   1.000  H
  H1318    1.0000 0.06967  0.73623  0.10733  Biso   1.000  H
  H1319    1.0000 0.11457  0.73023  0.10013  Biso   1.000  H
  C1050    1.0000 0.09157  0.77213  0.09363  Biso   1.000  C
  H1320    1.0000 0.06907  0.75563  0.10543  Biso   1.000  H
  H1321    1.0000 0.08977  0.80093  0.08943  Biso   1.000  H
  H1322    1.0000 0.12467  0.78193  0.09813  Biso   1.000  H
  C1051    1.0000 0.11047  0.79273  0.07433  Biso   1.000  C
  H1323    1.0000 0.09957  0.80693  0.08533  Biso   1.000  H
  H1324    1.0000 0.10877  0.80553  0.06023  Biso   1.000  H
  H1325    1.0000 0.14397  0.80093  0.07723  Biso   1.000  H
  C1052    1.0000 0.11297  0.76433  0.05653  Biso   1.000  C
  H1326    1.0000 0.11187  0.79393  0.05283  Biso   1.000  H
  H1327    1.0000 0.10527  0.74393  0.04383  Biso   1.000  H
  H1328    1.0000 0.14627  0.77423  0.06133  Biso   1.000  H
  C1053    1.0000 0.09547  0.71633  0.05693  Biso   1.000  C
  H1329    1.0000 0.07427  0.68053  0.05683  Biso   1.000  H
  H1330    1.0000 0.12867  0.72433  0.05993  Biso   1.000  H
  H1331    1.0000 0.09357  0.72903  0.04293  Biso   1.000  H
  C1054    1.0000 0.56723  0.12497  0.30297  Biso   1.000  C
  C1055    1.0000 0.54483  0.11157  0.28287  Biso   1.000  C
  H1332    1.0000 0.51803  0.07977  0.28107  Biso   1.000  H
  C1056    1.0000 0.56043  0.14317  0.26567  Biso   1.000  C
  H1333    1.0000 0.54513  0.13217  0.25207  Biso   1.000  H
  C1057    1.0000 0.59753  0.19007  0.26777  Biso   1.000  C
  C1058    1.0000 0.62293  0.20397  0.28727  Biso   1.000  C
  H1334    1.0000 0.65013  0.23547  0.28887  Biso   1.000  H
  C1059    1.0000 0.60793  0.17127  0.30417  Biso   1.000  C
  H1335    1.0000 0.62603  0.18077  0.31707  Biso   1.000  H
  O189     1.0000 0.58963  0.10327  0.33517  Biso   1.000  O
  N89      1.0000 0.58333  0.07527  0.35397  Biso   1.000  N
  C1060    1.0000 0.62463  0.08517  0.36117  Biso   1.000  C
  H1336    1.0000 0.65253  0.10857  0.35357  Biso   1.000  H
  C1061    1.0000 0.63243  0.06327  0.38007  Biso   1.000  C
  C1062    1.0000 0.59303  0.02967  0.39337  Biso   1.000  C
  C1063    1.0000 0.60543  0.01077  0.41167  Biso   1.000  C
  C1064    1.0000 0.65393  0.02367  0.41577  Biso   1.000  C
  H1337    1.0000 0.66113  0.01017  0.42777  Biso   1.000  H
  C1065    1.0000 0.69143  0.05577  0.40237  Biso   1.000  C
  C1066    1.0000 0.67993  0.07437  0.38477  Biso   1.000  C
  H1338    1.0000 0.70543  0.09567  0.37547  Biso   1.000  H
  C1067    1.0000 0.56983  0.97737  0.42677  Biso   1.000  C
  H1339    1.0000 0.58153  0.96787  0.43877  Biso   1.000  H
  N90      1.0000 0.52443  0.95997  0.42527  Biso   1.000  N
  O190     1.0000 0.50153  0.92807  0.44277  Biso   1.000  O
  C1068    1.0000 0.38803  0.84887  0.47287  Biso   1.000  C
  H1340    1.0000 0.36763  0.86047  0.46777  Biso   1.000  H
  C1069    1.0000 0.37243  0.81797  0.49027  Biso   1.000  C
  H1341    1.0000 0.34143  0.80817  0.49617  Biso   1.000  H
  O191     1.0000 0.54853  0.01777  0.38917  Biso   1.000  O
  C1070    1.0000 0.74433  0.07087  0.40767  Biso   1.000  C
  O192     1.0000 0.34133  0.75407  0.52518  Biso   1.000  O
  C1071    1.0000 0.39333  0.78287  0.31677  Biso   1.000  C
  C1072    1.0000 0.42863  0.79347  0.29797  Biso   1.000  C
  H1342    1.0000 0.46043  0.80107  0.30357  Biso   1.000  H
  H1343    1.0000 0.43193  0.82117  0.28977  Biso   1.000  H
  H1344    1.0000 0.41603  0.76497  0.28867  Biso   1.000  H
  C1073    1.0000 0.38903  0.73957  0.32937  Biso   1.000  C
  H1345    1.0000 0.42143  0.74667  0.33407  Biso   1.000  H
  H1346    1.0000 0.37463  0.71067  0.32027  Biso   1.000  H
  H1347    1.0000 0.36853  0.73377  0.34197  Biso   1.000  H
  C1074    1.0000 0.74693  0.02537  0.41327  Biso   1.000  C
  H1348    1.0000 0.72393  0.00767  0.42477  Biso   1.000  H
  H1349    1.0000 0.77983  0.03487  0.41807  Biso   1.000  H
  H1350    1.0000 0.73883  0.00457  0.40067  Biso   1.000  H
  C1075    1.0000 0.34243  0.77057  0.30987  Biso   1.000  C
  H1351    1.0000 0.34433  0.79777  0.30167  Biso   1.000  H
  H1352    1.0000 0.32213  0.76457  0.32257  Biso   1.000  H
  H1353    1.0000 0.32833  0.74147  0.30077  Biso   1.000  H
  C1076    1.0000 0.74833  0.05467  0.43037  Biso   1.000  C
  H1354    1.0000 0.72703  0.01887  0.43127  Biso   1.000  H
  H1355    1.0000 0.73633  0.06957  0.44067  Biso   1.000  H
  H1356    1.0000 0.78123  0.06357  0.43347  Biso   1.000  H
  C1077    1.0000 0.75823  0.10547  0.42697  Biso   1.000  C
  H1357    1.0000 0.73573  0.08897  0.43877  Biso   1.000  H
  H1358    1.0000 0.75643  0.13427  0.42277  Biso   1.000  H
  H1359    1.0000 0.79133  0.11527  0.43147  Biso   1.000  H
  C1078    1.0000 0.77713  0.12607  0.40767  Biso   1.000  C
  H1360    1.0000 0.76623  0.14027  0.41867  Biso   1.000  H
  H1361    1.0000 0.77543  0.13887  0.39357  Biso   1.000  H
  H1362    1.0000 0.81063  0.13427  0.41057  Biso   1.000  H
  C1079    1.0000 0.77963  0.09767  0.38987  Biso   1.000  C
  H1363    1.0000 0.77853  0.12727  0.38617  Biso   1.000  H
  H1364    1.0000 0.77193  0.07727  0.37717  Biso   1.000  H
  H1365    1.0000 0.81293  0.10757  0.39467  Biso   1.000  H
  C1080    1.0000 0.76213  0.04967  0.39027  Biso   1.000  C
  H1366    1.0000 0.74093  0.01387  0.39017  Biso   1.000  H
  H1367    1.0000 0.79533  0.05767  0.39327  Biso   1.000  H
  H1368    1.0000 0.76023  0.06237  0.37627  Biso   1.000  H
  Co19     1.0000 0.14811  0.29622  0.73473  Biso   1.000  Co
  Co20     1.0000 0.17956  0.35913  0.69627  Biso   1.000  Co
  Zn13     1.0000 0.29988  0.59976  0.54332  Biso   1.000  Zn
  B19      1.0000 0.21210  0.42420  0.65680  Biso   1.000  B
  O193     1.0000 0.18735  0.37470  0.64880  Biso   1.000  O
  N91      1.0000 0.16910  0.33820  0.66380  Biso   1.000  N
  C1081    1.0000 0.14815  0.29630  0.65530  Biso   1.000  C
  H1369    1.0000 0.14740  0.29480  0.64010  Biso   1.000  H
  C1082    1.0000 0.12540  0.25080  0.66690  Biso   1.000  C
  C1083    1.0000 0.12365  0.24730  0.68990  Biso   1.000  C
  C1084    1.0000 0.09985  0.19970  0.69930  Biso   1.000  C
  C1085    1.0000 0.07945  0.15890  0.68580  Biso   1.000  C
  H1370    1.0000 0.06375  0.12750  0.69210  Biso   1.000  H
  C1086    1.0000 0.08135  0.16270  0.66370  Biso   1.000  C
  C1087    1.0000 0.10420  0.20840  0.65440  Biso   1.000  C
  H1371    1.0000 0.10555  0.21110  0.63920  Biso   1.000  H
  C1088    1.0000 0.09500  0.19000  0.72210  Biso   1.000  C
  H1372    1.0000 0.07855  0.15710  0.72650  Biso   1.000  H
  N92      1.0000 0.11110  0.22220  0.73650  Biso   1.000  N
  O194     1.0000 0.09955  0.19910  0.75650  Biso   1.000  O
  B20      1.0000 0.11520  0.23040  0.77470  Biso   1.000  B
  C1089    1.0000 0.09875  0.19750  0.79580  Biso   1.000  C
  C1090    1.0000 0.06715  0.13430  0.83250  Biso   1.000  C
  C1091    1.0000 0.27950  0.55900  0.58290  Biso   1.000  C
  O195     1.0000 0.30170  0.60340  0.58880  Biso   1.000  O
  O196     1.0000 0.27300  0.54600  0.56440  Biso   1.000  O
  O197     1.0000 0.14245  0.28490  0.70170  Biso   1.000  O
  C1092    1.0000 0.05045  0.10090  0.85160  Biso   1.000  C
  Co21     1.0000 0.81478  0.62955  0.06806  Biso   1.000  Co
  Co22     1.0000 0.84623  0.69246  0.02960  Biso   1.000  Co
  Zn14     1.0000 0.96655  0.93309  0.87665  Biso   1.000  Zn
  B21      1.0000 0.87877  0.75753  0.99013  Biso   1.000  B
  O198     1.0000 0.85402  0.70803  0.98213  Biso   1.000  O
  N93      1.0000 0.83577  0.67153  0.99713  Biso   1.000  N
  C1093    1.0000 0.81482  0.62963  0.98863  Biso   1.000  C
  H1373    1.0000 0.81407  0.62813  0.97343  Biso   1.000  H
  C1094    1.0000 0.79207  0.58413  0.00023  Biso   1.000  C
  C1095    1.0000 0.79032  0.58063  0.02323  Biso   1.000  C
  C1096    1.0000 0.76652  0.53303  0.03263  Biso   1.000  C
  C1097    1.0000 0.74612  0.49223  0.01913  Biso   1.000  C
  H1374    1.0000 0.73042  0.46083  0.02543  Biso   1.000  H
  C1098    1.0000 0.74802  0.49603  0.99703  Biso   1.000  C
  C1099    1.0000 0.77087  0.54173  0.98773  Biso   1.000  C
  H1375    1.0000 0.77222  0.54443  0.97253  Biso   1.000  H
  C1100    1.0000 0.76167  0.52333  0.05543  Biso   1.000  C
  H1376    1.0000 0.74522  0.49043  0.05983  Biso   1.000  H
  N94      1.0000 0.77777  0.55553  0.06983  Biso   1.000  N
  O199     1.0000 0.76622  0.53243  0.08983  Biso   1.000  O
  B22      1.0000 0.78187  0.56373  0.10803  Biso   1.000  B
  C1101    1.0000 0.76542  0.53083  0.12913  Biso   1.000  C
  C1102    1.0000 0.73382  0.46763  0.16583  Biso   1.000  C
  C1103    1.0000 0.94617  0.89233  0.91623  Biso   1.000  C
  O200     1.0000 0.96837  0.93673  0.92213  Biso   1.000  O
  O201     1.0000 0.93967  0.87933  0.89773  Biso   1.000  O
  O202     1.0000 0.80912  0.61823  0.03503  Biso   1.000  O
  C1104    1.0000 0.71712  0.43423  0.18493  Biso   1.000  C
  Co23     1.0000 0.48144  0.96289  0.40140  Biso   1.000  Co
  Co24     1.0000 0.51290  0.02580  0.36294  Biso   1.000  Co
  Zn15     1.0000 0.63321  0.26643  0.20999  Biso   1.000  Zn
  B23      1.0000 0.54543  0.09087  0.32347  Biso   1.000  B
  O203     1.0000 0.52068  0.04137  0.31547  Biso   1.000  O
  N95      1.0000 0.50243  0.00487  0.33047  Biso   1.000  N
  C1105    1.0000 0.48148  0.96297  0.32197  Biso   1.000  C
  H1377    1.0000 0.48073  0.96147  0.30677  Biso   1.000  H
  C1106    1.0000 0.45873  0.91747  0.33357  Biso   1.000  C
  C1107    1.0000 0.45698  0.91397  0.35657  Biso   1.000  C
  C1108    1.0000 0.43318  0.86637  0.36597  Biso   1.000  C
  C1109    1.0000 0.41278  0.82557  0.35247  Biso   1.000  C
  H1378    1.0000 0.39708  0.79417  0.35877  Biso   1.000  H
  C1110    1.0000 0.41468  0.82937  0.33037  Biso   1.000  C
  C1111    1.0000 0.43753  0.87507  0.32107  Biso   1.000  C
  H1379    1.0000 0.43888  0.87777  0.30587  Biso   1.000  H
  C1112    1.0000 0.42833  0.85667  0.38877  Biso   1.000  C
  H1380    1.0000 0.41188  0.82377  0.39317  Biso   1.000  H
  N96      1.0000 0.44443  0.88887  0.40317  Biso   1.000  N
  O204     1.0000 0.43288  0.86577  0.42317  Biso   1.000  O
  B24      1.0000 0.44853  0.89707  0.44137  Biso   1.000  B
  C1113    1.0000 0.43208  0.86417  0.46247  Biso   1.000  C
  C1114    1.0000 0.40048  0.80097  0.49917  Biso   1.000  C
  C1115    1.0000 0.61283  0.22567  0.24957  Biso   1.000  C
  O205     1.0000 0.63503  0.27007  0.25547  Biso   1.000  O
  O206     1.0000 0.60633  0.21267  0.23107  Biso   1.000  O
  O207     1.0000 0.47578  0.95157  0.36837  Biso   1.000  O
  C1116    1.0000 0.38378  0.76757  0.51827  Biso   1.000  C
  Co25     1.0000 0.14811  0.85189  0.73473  Biso   1.000  Co
  Co26     1.0000 0.17956  0.82044  0.69627  Biso   1.000  Co
  Zn16     1.0000 0.29988  0.70012  0.54332  Biso   1.000  Zn
  B25      1.0000 0.21210  0.78790  0.65680  Biso   1.000  B
  O208     1.0000 0.18735  0.81265  0.64880  Biso   1.000  O
  N97      1.0000 0.16910  0.83090  0.66380  Biso   1.000  N
  C1117    1.0000 0.14815  0.85185  0.65530  Biso   1.000  C
  H1381    1.0000 0.14740  0.85260  0.64010  Biso   1.000  H
  C1118    1.0000 0.12540  0.87460  0.66690  Biso   1.000  C
  C1119    1.0000 0.12365  0.87635  0.68990  Biso   1.000  C
  C1120    1.0000 0.09985  0.90015  0.69930  Biso   1.000  C
  C1121    1.0000 0.07945  0.92055  0.68580  Biso   1.000  C
  H1382    1.0000 0.06375  0.93625  0.69210  Biso   1.000  H
  C1122    1.0000 0.08135  0.91865  0.66370  Biso   1.000  C
  C1123    1.0000 0.10420  0.89580  0.65440  Biso   1.000  C
  H1383    1.0000 0.10555  0.89445  0.63920  Biso   1.000  H
  C1124    1.0000 0.09500  0.90500  0.72210  Biso   1.000  C
  H1384    1.0000 0.07855  0.92145  0.72650  Biso   1.000  H
  N98      1.0000 0.11110  0.88890  0.73650  Biso   1.000  N
  O209     1.0000 0.09955  0.90045  0.75650  Biso   1.000  O
  B26      1.0000 0.11520  0.88480  0.77470  Biso   1.000  B
  C1125    1.0000 0.09875  0.90125  0.79580  Biso   1.000  C
  C1126    1.0000 0.06715  0.93285  0.83250  Biso   1.000  C
  C1127    1.0000 0.27950  0.72050  0.58290  Biso   1.000  C
  O210     1.0000 0.30170  0.69830  0.58880  Biso   1.000  O
  O211     1.0000 0.27300  0.72700  0.56440  Biso   1.000  O
  O212     1.0000 0.14245  0.85755  0.70170  Biso   1.000  O
  C1128    1.0000 0.05045  0.94955  0.85160  Biso   1.000  C
  Co27     1.0000 0.81478  0.18522  0.06806  Biso   1.000  Co
  Co28     1.0000 0.84623  0.15377  0.02960  Biso   1.000  Co
  Zn17     1.0000 0.96655  0.03345  0.87665  Biso   1.000  Zn
  B27      1.0000 0.87877  0.12123  0.99013  Biso   1.000  B
  O213     1.0000 0.85402  0.14598  0.98213  Biso   1.000  O
  N99      1.0000 0.83577  0.16423  0.99713  Biso   1.000  N
  C1129    1.0000 0.81482  0.18518  0.98863  Biso   1.000  C
  H1385    1.0000 0.81407  0.18593  0.97343  Biso   1.000  H
  C1130    1.0000 0.79207  0.20793  0.00023  Biso   1.000  C
  C1131    1.0000 0.79032  0.20968  0.02323  Biso   1.000  C
  C1132    1.0000 0.76652  0.23348  0.03263  Biso   1.000  C
  C1133    1.0000 0.74612  0.25388  0.01913  Biso   1.000  C
  H1386    1.0000 0.73042  0.26958  0.02543  Biso   1.000  H
  C1134    1.0000 0.74802  0.25198  0.99703  Biso   1.000  C
  C1135    1.0000 0.77087  0.22913  0.98773  Biso   1.000  C
  H1387    1.0000 0.77222  0.22778  0.97253  Biso   1.000  H
  C1136    1.0000 0.76167  0.23833  0.05543  Biso   1.000  C
  H1388    1.0000 0.74522  0.25478  0.05983  Biso   1.000  H
  N100     1.0000 0.77777  0.22223  0.06983  Biso   1.000  N
  O214     1.0000 0.76622  0.23378  0.08983  Biso   1.000  O
  B28      1.0000 0.78187  0.21813  0.10803  Biso   1.000  B
  C1137    1.0000 0.76542  0.23458  0.12913  Biso   1.000  C
  C1138    1.0000 0.73382  0.26618  0.16583  Biso   1.000  C
  C1139    1.0000 0.94617  0.05383  0.91623  Biso   1.000  C
  O215     1.0000 0.96837  0.03163  0.92213  Biso   1.000  O
  O216     1.0000 0.93967  0.06033  0.89773  Biso   1.000  O
  O217     1.0000 0.80912  0.19088  0.03503  Biso   1.000  O
  C1140    1.0000 0.71712  0.28288  0.18493  Biso   1.000  C
  Co29     1.0000 0.48144  0.51856  0.40140  Biso   1.000  Co
  Co30     1.0000 0.51290  0.48710  0.36294  Biso   1.000  Co
  Zn18     1.0000 0.63321  0.36679  0.20999  Biso   1.000  Zn
  B29      1.0000 0.54543  0.45457  0.32347  Biso   1.000  B
  O218     1.0000 0.52068  0.47932  0.31547  Biso   1.000  O
  N101     1.0000 0.50243  0.49757  0.33047  Biso   1.000  N
  C1141    1.0000 0.48148  0.51852  0.32197  Biso   1.000  C
  H1389    1.0000 0.48073  0.51927  0.30677  Biso   1.000  H
  C1142    1.0000 0.45873  0.54127  0.33357  Biso   1.000  C
  C1143    1.0000 0.45698  0.54302  0.35657  Biso   1.000  C
  C1144    1.0000 0.43318  0.56682  0.36597  Biso   1.000  C
  C1145    1.0000 0.41278  0.58722  0.35247  Biso   1.000  C
  H1390    1.0000 0.39708  0.60292  0.35877  Biso   1.000  H
  C1146    1.0000 0.41468  0.58532  0.33037  Biso   1.000  C
  C1147    1.0000 0.43753  0.56247  0.32107  Biso   1.000  C
  H1391    1.0000 0.43888  0.56112  0.30587  Biso   1.000  H
  C1148    1.0000 0.42833  0.57167  0.38877  Biso   1.000  C
  H1392    1.0000 0.41188  0.58812  0.39317  Biso   1.000  H
  N102     1.0000 0.44443  0.55557  0.40317  Biso   1.000  N
  O219     1.0000 0.43288  0.56712  0.42317  Biso   1.000  O
  B30      1.0000 0.44853  0.55147  0.44137  Biso   1.000  B
  C1149    1.0000 0.43208  0.56792  0.46247  Biso   1.000  C
  C1150    1.0000 0.40048  0.59952  0.49917  Biso   1.000  C
  C1151    1.0000 0.61283  0.38717  0.24957  Biso   1.000  C
  O220     1.0000 0.63503  0.36497  0.25547  Biso   1.000  O
  O221     1.0000 0.60633  0.39367  0.23107  Biso   1.000  O
  O222     1.0000 0.47578  0.52422  0.36837  Biso   1.000  O
  C1152    1.0000 0.38378  0.61622  0.51827  Biso   1.000  C
  Co31     1.0000 0.70378  0.85189  0.73473  Biso   1.000  Co
  Co32     1.0000 0.64087  0.82044  0.69627  Biso   1.000  Co
  Zn19     1.0000 0.40024  0.70012  0.54332  Biso   1.000  Zn
  B31      1.0000 0.57580  0.78790  0.65680  Biso   1.000  B
  O223     1.0000 0.62530  0.81265  0.64880  Biso   1.000  O
  N103     1.0000 0.66180  0.83090  0.66380  Biso   1.000  N
  C1153    1.0000 0.70370  0.85185  0.65530  Biso   1.000  C
  H1393    1.0000 0.70520  0.85260  0.64010  Biso   1.000  H
  C1154    1.0000 0.74920  0.87460  0.66690  Biso   1.000  C
  C1155    1.0000 0.75270  0.87635  0.68990  Biso   1.000  C
  C1156    1.0000 0.80030  0.90015  0.69930  Biso   1.000  C
  C1157    1.0000 0.84110  0.92055  0.68580  Biso   1.000  C
  H1394    1.0000 0.87250  0.93625  0.69210  Biso   1.000  H
  C1158    1.0000 0.83730  0.91865  0.66370  Biso   1.000  C
  C1159    1.0000 0.79160  0.89580  0.65440  Biso   1.000  C
  H1395    1.0000 0.78890  0.89445  0.63920  Biso   1.000  H
  C1160    1.0000 0.81000  0.90500  0.72210  Biso   1.000  C
  H1396    1.0000 0.84290  0.92145  0.72650  Biso   1.000  H
  N104     1.0000 0.77780  0.88890  0.73650  Biso   1.000  N
  O224     1.0000 0.80090  0.90045  0.75650  Biso   1.000  O
  B32      1.0000 0.76960  0.88480  0.77470  Biso   1.000  B
  C1161    1.0000 0.80250  0.90125  0.79580  Biso   1.000  C
  C1162    1.0000 0.86570  0.93285  0.83250  Biso   1.000  C
  C1163    1.0000 0.44100  0.72050  0.58290  Biso   1.000  C
  O225     1.0000 0.39660  0.69830  0.58880  Biso   1.000  O
  O226     1.0000 0.45400  0.72700  0.56440  Biso   1.000  O
  O227     1.0000 0.71510  0.85755  0.70170  Biso   1.000  O
  C1164    1.0000 0.89910  0.94955  0.85160  Biso   1.000  C
  Co33     1.0000 0.37045  0.18522  0.06806  Biso   1.000  Co
  Co34     1.0000 0.30754  0.15377  0.02960  Biso   1.000  Co
  Zn20     1.0000 0.06691  0.03345  0.87665  Biso   1.000  Zn
  B33      1.0000 0.24247  0.12123  0.99013  Biso   1.000  B
  O228     1.0000 0.29197  0.14598  0.98213  Biso   1.000  O
  N105     1.0000 0.32847  0.16423  0.99713  Biso   1.000  N
  C1165    1.0000 0.37037  0.18518  0.98863  Biso   1.000  C
  H1397    1.0000 0.37187  0.18593  0.97343  Biso   1.000  H
  C1166    1.0000 0.41587  0.20793  0.00023  Biso   1.000  C
  C1167    1.0000 0.41937  0.20968  0.02323  Biso   1.000  C
  C1168    1.0000 0.46697  0.23348  0.03263  Biso   1.000  C
  C1169    1.0000 0.50777  0.25388  0.01913  Biso   1.000  C
  H1398    1.0000 0.53917  0.26958  0.02543  Biso   1.000  H
  C1170    1.0000 0.50397  0.25198  0.99703  Biso   1.000  C
  C1171    1.0000 0.45827  0.22913  0.98773  Biso   1.000  C
  H1399    1.0000 0.45557  0.22778  0.97253  Biso   1.000  H
  C1172    1.0000 0.47667  0.23833  0.05543  Biso   1.000  C
  H1400    1.0000 0.50957  0.25478  0.05983  Biso   1.000  H
  N106     1.0000 0.44447  0.22223  0.06983  Biso   1.000  N
  O229     1.0000 0.46757  0.23378  0.08983  Biso   1.000  O
  B34      1.0000 0.43627  0.21813  0.10803  Biso   1.000  B
  C1173    1.0000 0.46917  0.23458  0.12913  Biso   1.000  C
  C1174    1.0000 0.53237  0.26618  0.16583  Biso   1.000  C
  C1175    1.0000 0.10767  0.05383  0.91623  Biso   1.000  C
  O230     1.0000 0.06327  0.03163  0.92213  Biso   1.000  O
  O231     1.0000 0.12067  0.06033  0.89773  Biso   1.000  O
  O232     1.0000 0.38177  0.19088  0.03503  Biso   1.000  O
  C1176    1.0000 0.56577  0.28288  0.18493  Biso   1.000  C
  Co35     1.0000 0.03711  0.51856  0.40140  Biso   1.000  Co
  Co36     1.0000 0.97420  0.48710  0.36294  Biso   1.000  Co
  Zn21     1.0000 0.73357  0.36679  0.20999  Biso   1.000  Zn
  B35      1.0000 0.90913  0.45457  0.32347  Biso   1.000  B
  O233     1.0000 0.95863  0.47932  0.31547  Biso   1.000  O
  N107     1.0000 0.99513  0.49757  0.33047  Biso   1.000  N
  C1177    1.0000 0.03703  0.51852  0.32197  Biso   1.000  C
  H1401    1.0000 0.03853  0.51927  0.30677  Biso   1.000  H
  C1178    1.0000 0.08253  0.54127  0.33357  Biso   1.000  C
  C1179    1.0000 0.08603  0.54302  0.35657  Biso   1.000  C
  C1180    1.0000 0.13363  0.56682  0.36597  Biso   1.000  C
  C1181    1.0000 0.17443  0.58722  0.35247  Biso   1.000  C
  H1402    1.0000 0.20583  0.60292  0.35877  Biso   1.000  H
  C1182    1.0000 0.17063  0.58532  0.33037  Biso   1.000  C
  C1183    1.0000 0.12493  0.56247  0.32107  Biso   1.000  C
  H1403    1.0000 0.12223  0.56112  0.30587  Biso   1.000  H
  C1184    1.0000 0.14333  0.57167  0.38877  Biso   1.000  C
  H1404    1.0000 0.17623  0.58812  0.39317  Biso   1.000  H
  N108     1.0000 0.11113  0.55557  0.40317  Biso   1.000  N
  O234     1.0000 0.13423  0.56712  0.42317  Biso   1.000  O
  B36      1.0000 0.10293  0.55147  0.44137  Biso   1.000  B
  C1185    1.0000 0.13583  0.56792  0.46247  Biso   1.000  C
  C1186    1.0000 0.19903  0.59952  0.49917  Biso   1.000  C
  C1187    1.0000 0.77433  0.38717  0.24957  Biso   1.000  C
  O235     1.0000 0.72993  0.36497  0.25547  Biso   1.000  O
  O236     1.0000 0.78733  0.39367  0.23107  Biso   1.000  O
  O237     1.0000 0.04843  0.52422  0.36837  Biso   1.000  O
  C1188    1.0000 0.23243  0.61622  0.51827  Biso   1.000  C
  Zn22     1.0000 0.33333  0.66667  0.58409  Biso   1.000  Zn
  O238     1.0000 0.33333  0.66667  0.55150  Biso   1.000  O
  Zn23     1.0000 0.00000  0.00000  0.91742  Biso   1.000  Zn
  O239     1.0000 0.00000  0.00000  0.88483  Biso   1.000  O
  Zn24     1.0000 0.66667  0.33333  0.25076  Biso   1.000  Zn
  O240     1.0000 0.66667  0.33333  0.21817  Biso   1.000  O
