data_image0
_cell_length_a       16.0756
_cell_length_b       19.9994
_cell_length_c       28.3586
_cell_angle_alpha    104.731
_cell_angle_beta     91.047
_cell_angle_gamma    110.354

_symmetry_space_group_name_H-M    "P 1"
_symmetry_int_tables_number       1

loop_
  _symmetry_equiv_pos_as_xyz
  'x, y, z'

loop_
  _atom_site_label
  _atom_site_occupancy
  _atom_site_fract_x
  _atom_site_fract_y
  _atom_site_fract_z
  _atom_site_thermal_displace_type
  _atom_site_B_iso_or_equiv
  _atom_site_type_symbol
  Zn1      1.0000 0.02644  0.42550  0.11438  Biso   1.000  Zn
  O1       1.0000 0.12630  0.41080  0.07360  Biso   1.000  O
  C1       1.0000 0.35100  0.55290  0.08250  Biso   1.000  C
  H1       1.0000 0.40970  0.55730  0.07510  Biso   1.000  H
  Zn2      1.0000 0.10575  0.63583  0.16491  Biso   1.000  Zn
  O2       1.0000 0.10080  0.53430  0.12330  Biso   1.000  O
  C2       1.0000 0.28250  0.48100  0.07040  Biso   1.000  C
  Zn3      1.0000 0.28372  0.77806  0.26822  Biso   1.000  Zn
  O3       1.0000 0.22880  0.67030  0.13920  Biso   1.000  O
  C3       1.0000 0.19720  0.47700  0.08340  Biso   1.000  C
  Zn4      1.0000 0.45169  0.76684  0.36053  Biso   1.000  Zn
  O4       1.0000 0.33920  0.75980  0.20380  Biso   1.000  O
  C4       1.0000 0.18050  0.54110  0.10860  Biso   1.000  C
  Zn5      1.0000 0.50968  0.61003  0.38794  Biso   1.000  Zn
  O5       1.0000 0.39930  0.77400  0.29600  Biso   1.000  O
  C5       1.0000 0.25020  0.61150  0.11800  Biso   1.000  C
  Zn6      1.0000 0.42788  0.40047  0.33558  Biso   1.000  Zn
  O6       1.0000 0.54570  0.74640  0.31740  Biso   1.000  O
  C6       1.0000 0.33490  0.61660  0.10480  Biso   1.000  C
  Zn7      1.0000 0.24959  0.25855  0.23241  Biso   1.000  Zn
  O7       1.0000 0.58460  0.64870  0.33490  Biso   1.000  O
  C7       1.0000 0.41020  0.69220  0.11830  Biso   1.000  C
  H2       1.0000 0.38160  0.72920  0.11800  Biso   1.000  H
  Zn8      1.0000 0.08263  0.26767  0.13994  Biso   1.000  Zn
  O8       1.0000 0.49860  0.50970  0.34320  Biso   1.000  O
  C8       1.0000 0.52370  0.69030  0.18270  Biso   1.000  C
  H3       1.0000 0.54930  0.66760  0.15640  Biso   1.000  H
  O9       1.0000 0.48170  0.38940  0.27040  Biso   1.000  O
  C9       1.0000 0.45200  0.71080  0.17140  Biso   1.000  C
  O10      1.0000 0.36910  0.30100  0.20560  Biso   1.000  O
  C10      1.0000 0.41360  0.74050  0.20990  Biso   1.000  C
  O11      1.0000 0.20050  0.27160  0.16910  Biso   1.000  O
  C11      1.0000 0.44250  0.75120  0.25980  Biso   1.000  C
  O12      1.0000 0.16230  0.31090  0.09050  Biso   1.000  O
  C12      1.0000 0.51840  0.73290  0.26780  Biso   1.000  C
  O13      1.0000 0.95810  0.45300  0.17090  Biso   1.000  O
  C13      1.0000 0.55960  0.70160  0.23100  Biso   1.000  C
  O14      1.0000 0.02260  0.34320  0.14540  Biso   1.000  O
  C14      1.0000 0.63590  0.67850  0.24270  Biso   1.000  C
  H4       1.0000 0.66820  0.71250  0.27520  Biso   1.000  H
  O15      1.0000 0.02730  0.25840  0.20460  Biso   1.000  O
  C15      1.0000 0.58120  0.53780  0.21080  Biso   1.000  C
  H5       1.0000 0.59670  0.54450  0.17970  Biso   1.000  H
  O16      1.0000 0.13380  0.25210  0.26260  Biso   1.000  O
  C16      1.0000 0.59580  0.59900  0.24900  Biso   1.000  C
  O17      1.0000 0.30540  0.32650  0.30140  Biso   1.000  O
  C17      1.0000 0.57240  0.59040  0.29390  Biso   1.000  C
  O18      1.0000 0.35070  0.42990  0.38950  Biso   1.000  O
  C18      1.0000 0.53110  0.51880  0.30080  Biso   1.000  C
  O19      1.0000 0.40400  0.56110  0.42334  Biso   1.000  O
  C19      1.0000 0.52010  0.45630  0.26150  Biso   1.000  C
  O20      1.0000 0.44470  0.68280  0.39140  Biso   1.000  O
  C20      1.0000 0.54430  0.46480  0.21510  Biso   1.000  C
  O21      1.0000 0.33070  0.75290  0.38780  Biso   1.000  O
  C21      1.0000 0.52300  0.39570  0.17260  Biso   1.000  C
  H6       1.0000 0.52450  0.35510  0.18680  Biso   1.000  H
  O22      1.0000 0.22510  0.75980  0.32990  Biso   1.000  O
  C22      1.0000 0.40990  0.39690  0.10890  Biso   1.000  C
  H7       1.0000 0.45810  0.42820  0.09640  Biso   1.000  H
  O23      1.0000 0.16080  0.70170  0.23370  Biso   1.000  O
  C23      1.0000 0.42780  0.37130  0.14740  Biso   1.000  C
  O24      1.0000 0.00720  0.58630  0.20240  Biso   1.000  O
  C24      1.0000 0.35700  0.32650  0.16640  Biso   1.000  C
  C25      1.0000 0.26910  0.30900  0.14800  Biso   1.000  C
  C26      1.0000 0.25040  0.33300  0.10790  Biso   1.000  C
  C27      1.0000 0.32030  0.37710  0.08750  Biso   1.000  C
  C28      1.0000 0.29910  0.40810  0.04780  Biso   1.000  C
  H8       1.0000 0.24090  0.37130  0.02920  Biso   1.000  H
  C29      1.0000 0.48360  0.70540  0.08430  Biso   1.000  C
  H9       1.0000 0.50800  0.66530  0.07900  Biso   1.000  H
  H10      1.0000 0.53280  0.75320  0.09960  Biso   1.000  H
  C30      1.0000 0.44420  0.70670  0.03500  Biso   1.000  C
  H11      1.0000 0.40900  0.65520  0.01560  Biso   1.000  H
  H12      1.0000 0.40320  0.73430  0.04110  Biso   1.000  H
  C31      1.0000 0.51500  0.74200  0.00590  Biso   1.000  C
  H13      1.0000 0.48730  0.74190  0.97480  Biso   1.000  H
  H14      1.0000 0.54960  0.79360  0.02480  Biso   1.000  H
  H15      1.0000 0.55540  0.71440  0.99920  Biso   1.000  H
  C32      1.0000 0.70600  0.68100  0.20580  Biso   1.000  C
  H16      1.0000 0.67560  0.64560  0.17390  Biso   1.000  H
  H17      1.0000 0.72730  0.73160  0.20070  Biso   1.000  H
  C33      1.0000 0.78710  0.66500  0.21950  Biso   1.000  C
  H18      1.0000 0.82450  0.66670  0.19220  Biso   1.000  H
  H19      1.0000 0.76620  0.61360  0.22250  Biso   1.000  H
  C34      1.0000 0.84600  0.71700  0.26740  Biso   1.000  C
  H20      1.0000 0.89660  0.70200  0.27280  Biso   1.000  H
  H21      1.0000 0.86950  0.76840  0.26460  Biso   1.000  H
  H22      1.0000 0.81100  0.71520  0.29510  Biso   1.000  H
  C35      1.0000 0.59320  0.40370  0.13570  Biso   1.000  C
  H23      1.0000 0.57390  0.35750  0.10830  Biso   1.000  H
  H24      1.0000 0.59480  0.44480  0.12190  Biso   1.000  H
  C36      1.0000 0.68810  0.41880  0.15770  Biso   1.000  C
  H25      1.0000 0.70980  0.46620  0.18420  Biso   1.000  H
  H26      1.0000 0.68770  0.37850  0.17220  Biso   1.000  H
  C37      1.0000 0.74840  0.42310  0.11900  Biso   1.000  C
  H27      1.0000 0.80890  0.43280  0.13310  Biso   1.000  H
  H28      1.0000 0.72710  0.37590  0.09310  Biso   1.000  H
  H29      1.0000 0.74910  0.46340  0.10510  Biso   1.000  H
  C38      1.0000 0.36670  0.41610  0.01020  Biso   1.000  C
  H30      1.0000 0.37830  0.36940  0.99850  Biso   1.000  H
  H31      1.0000 0.42390  0.45670  0.02550  Biso   1.000  H
  C39      1.0000 0.32750  0.43350  0.96670  Biso   1.000  C
  H32      1.0000 0.26740  0.39550  0.95370  Biso   1.000  H
  H33      1.0000 0.32130  0.48240  0.97800  Biso   1.000  H
  C40      1.0000 0.38530  0.43420  0.92810  Biso   1.000  C
  H34      1.0000 0.35990  0.44530  0.90070  Biso   1.000  H
  H35      1.0000 0.44450  0.47240  0.94090  Biso   1.000  H
  H36      1.0000 0.39070  0.38560  0.91670  Biso   1.000  H
  C41      1.0000 0.94370  0.39350  0.28420  Biso   1.000  C
  H37      1.0000 0.92850  0.40590  0.31660  Biso   1.000  H
  C42      1.0000 0.93530  0.43540  0.25290  Biso   1.000  C
  C43      1.0000 0.96140  0.41600  0.20530  Biso   1.000  C
  C44      1.0000 0.99440  0.35850  0.18980  Biso   1.000  C
  C45      1.0000 0.99570  0.31750  0.22340  Biso   1.000  C
  C46      1.0000 0.97350  0.33390  0.26980  Biso   1.000  C
  C47      1.0000 0.98770  0.28980  0.30480  Biso   1.000  C
  H38      1.0000 0.97970  0.23880  0.28430  Biso   1.000  H
  C48      1.0000 0.10890  0.38310  0.37430  Biso   1.000  C
  H39      1.0000 0.06440  0.39800  0.39050  Biso   1.000  H
  C49      1.0000 0.08270  0.32560  0.33000  Biso   1.000  C
  C50      1.0000 0.15060  0.30720  0.30740  Biso   1.000  C
  C51      1.0000 0.24140  0.34230  0.32660  Biso   1.000  C
  C52      1.0000 0.26270  0.39760  0.37130  Biso   1.000  C
  C53      1.0000 0.19690  0.41850  0.39510  Biso   1.000  C
  C54      1.0000 0.22650  0.48380  0.44280  Biso   1.000  C
  H40      1.0000 0.28160  0.48340  0.45940  Biso   1.000  H
  C55      1.0000 0.18960  0.59180  0.42590  Biso   1.000  C
  H41      1.0000 0.13030  0.57040  0.43320  Biso   1.000  H
  C56      1.0000 0.25090  0.55610  0.42980  Biso   1.000  C
  C57      1.0000 0.33920  0.59010  0.42040  Biso   1.000  C
  C58      1.0000 0.36370  0.65540  0.40430  Biso   1.000  C
  C59      1.0000 0.30030  0.68770  0.40120  Biso   1.000  C
  C60      1.0000 0.21360  0.65660  0.41190  Biso   1.000  C
  C61      1.0000 0.14630  0.69370  0.40560  Biso   1.000  C
  H42      1.0000 0.17970  0.74840  0.41260  Biso   1.000  H
  C62      1.0000 0.02830  0.60110  0.33430  Biso   1.000  C
  H43      1.0000 0.99950  0.57590  0.35710  Biso   1.000  H
  C63      1.0000 0.10450  0.66360  0.35200  Biso   1.000  C
  C64      1.0000 0.14670  0.69940  0.31720  Biso   1.000  C
  C65      1.0000 0.11450  0.67090  0.26720  Biso   1.000  C
  C66      1.0000 0.03400  0.60830  0.25170  Biso   1.000  C
  C67      1.0000 0.99040  0.57230  0.28520  Biso   1.000  C
  C68      1.0000 0.90900  0.50190  0.26810  Biso   1.000  C
  H44      1.0000 0.87950  0.50490  0.23770  Biso   1.000  H
  C69      1.0000 0.91780  0.28200  0.34080  Biso   1.000  C
  H45      1.0000 0.85770  0.26420  0.32250  Biso   1.000  H
  H46      1.0000 0.92840  0.33120  0.36390  Biso   1.000  H
  C70      1.0000 0.92010  0.22730  0.37030  Biso   1.000  C
  H47      1.0000 0.90960  0.17810  0.34720  Biso   1.000  H
  H48      1.0000 0.98020  0.24510  0.38870  Biso   1.000  H
  C71      1.0000 0.85100  0.21920  0.40610  Biso   1.000  C
  H49      1.0000 0.85510  0.18410  0.42380  Biso   1.000  H
  H50      1.0000 0.86180  0.26760  0.42950  Biso   1.000  H
  H51      1.0000 0.79120  0.20060  0.38800  Biso   1.000  H
  C72      1.0000 0.15380  0.47380  0.47900  Biso   1.000  C
  H52      1.0000 0.09910  0.47580  0.46380  Biso   1.000  H
  H53      1.0000 0.13850  0.42440  0.48470  Biso   1.000  H
  C73      1.0000 0.18510  0.53350  0.52820  Biso   1.000  C
  H54      1.0000 0.20720  0.58310  0.52220  Biso   1.000  H
  H55      1.0000 0.23540  0.52770  0.54520  Biso   1.000  H
  C74      1.0000 0.10940  0.52920  0.56180  Biso   1.000  C
  H56      1.0000 0.13240  0.56830  0.59280  Biso   1.000  H
  H57      1.0000 0.06000  0.53590  0.54540  Biso   1.000  H
  H58      1.0000 0.08810  0.48060  0.56840  Biso   1.000  H
  C75      1.0000 0.06940  0.68100  0.43740  Biso   1.000  C
  H59      1.0000 0.02440  0.69930  0.42630  Biso   1.000  H
  H60      1.0000 0.04010  0.62780  0.43450  Biso   1.000  H
  C76      1.0000 0.10680  0.72400  0.49060  Biso   1.000  C
  H61      1.0000 0.14970  0.77390  0.49170  Biso   1.000  H
  H62      1.0000 0.14010  0.69780  0.50360  Biso   1.000  H
  C77      1.0000 0.03480  0.73200  0.52380  Biso   1.000  C
  H63      1.0000 0.06300  0.75990  0.55740  Biso   1.000  H
  H64      1.0000 0.00250  0.75910  0.51160  Biso   1.000  H
  H65      1.0000 0.99290  0.68300  0.52360  Biso   1.000  H
  C78      1.0000 0.83970  0.49300  0.30390  Biso   1.000  C
  H66      1.0000 0.86680  0.49140  0.33500  Biso   1.000  H
  H67      1.0000 0.78960  0.44520  0.29020  Biso   1.000  H
  C79      1.0000 0.80320  0.55630  0.31480  Biso   1.000  C
  H68      1.0000 0.77060  0.55490  0.28440  Biso   1.000  H
  H69      1.0000 0.85360  0.60460  0.32560  Biso   1.000  H
  C80      1.0000 0.73950  0.54970  0.35510  Biso   1.000  C
  H70      1.0000 0.71740  0.59070  0.36120  Biso   1.000  H
  H71      1.0000 0.68900  0.50230  0.34420  Biso   1.000  H
  H72      1.0000 0.77190  0.55190  0.38540  Biso   1.000  H
  N1       1.0000 0.52470  0.86640  0.40260  Biso   1.000  N
  C81      1.0000 0.53100  0.89550  0.45230  Biso   1.000  C
  H73      1.0000 0.49990  0.86950  0.47430  Biso   1.000  H
  C82      1.0000 0.58820  0.96660  0.46540  Biso   1.000  C
  H74      1.0000 0.60370  0.99900  0.49780  Biso   1.000  H
  N2       1.0000 0.61840  0.98300  0.42590  Biso   1.000  N
  C83      1.0000 0.57760  0.92270  0.38960  Biso   1.000  C
  H75      1.0000 0.58630  0.92070  0.35630  Biso   1.000  H
  C84      1.0000 0.67290  0.05610  0.42290  Biso   1.000  C
  H76      1.0000 0.69320  0.05190  0.38990  Biso   1.000  H
  H77      1.0000 0.72670  0.07600  0.44730  Biso   1.000  H
  C85      1.0000 0.62510  0.11030  0.43220  Biso   1.000  C
  C86      1.0000 0.54470  0.09510  0.40670  Biso   1.000  C
  H78      1.0000 0.52160  0.05190  0.37960  Biso   1.000  H
  C87      1.0000 0.49710  0.13940  0.41890  Biso   1.000  C
  H79      1.0000 0.43730  0.12350  0.40440  Biso   1.000  H
  C88      1.0000 0.53580  0.20810  0.45260  Biso   1.000  C
  C89      1.0000 0.62150  0.22660  0.47460  Biso   1.000  C
  H80      1.0000 0.65190  0.27470  0.49620  Biso   1.000  H
  C90      1.0000 0.66170  0.17700  0.46560  Biso   1.000  C
  H81      1.0000 0.71810  0.18930  0.48340  Biso   1.000  H
  C91      1.0000 0.48240  0.25910  0.46750  Biso   1.000  C
  H82      1.0000 0.41760  0.22910  0.46160  Biso   1.000  H
  H83      1.0000 0.49810  0.28590  0.50280  Biso   1.000  H
  N3       1.0000 0.50340  0.31230  0.43820  Biso   1.000  N
  C92      1.0000 0.57480  0.37770  0.44790  Biso   1.000  C
  H84      1.0000 0.62270  0.39640  0.47350  Biso   1.000  H
  C93      1.0000 0.56290  0.41050  0.41310  Biso   1.000  C
  H85      1.0000 0.60020  0.45860  0.41180  Biso   1.000  H
  N4       1.0000 0.49170  0.36590  0.38120  Biso   1.000  N
  C94      1.0000 0.45630  0.30910  0.39710  Biso   1.000  C
  H86      1.0000 0.40280  0.26900  0.38170  Biso   1.000  H
  N5       1.0000 0.03440  0.66800  0.12130  Biso   1.000  N
  C95      1.0000 0.95810  0.61610  0.09260  Biso   1.000  C
  H87      1.0000 0.92770  0.56720  0.09510  Biso   1.000  H
  C96      1.0000 0.93440  0.64750  0.06020  Biso   1.000  C
  H88      1.0000 0.87920  0.62750  0.03970  Biso   1.000  H
  N6       1.0000 0.99640  0.70700  0.06160  Biso   1.000  N
  C97      1.0000 0.06200  0.71160  0.09440  Biso   1.000  C
  H89      1.0000 0.12240  0.74400  0.09710  Biso   1.000  H
  C98      1.0000 0.00320  0.75370  0.02910  Biso   1.000  C
  H90      1.0000 0.97320  0.72220  0.99600  Biso   1.000  H
  H91      1.0000 0.06700  0.77920  0.02600  Biso   1.000  H
  C99      1.0000 0.96090  0.81180  0.04760  Biso   1.000  C
  C100     1.0000 0.87860  0.80290  0.03000  Biso   1.000  C
  H92      1.0000 0.84390  0.75780  0.00640  Biso   1.000  H
  C101     1.0000 0.84390  0.85520  0.04440  Biso   1.000  C
  H93      1.0000 0.78460  0.84600  0.03180  Biso   1.000  H
  C102     1.0000 0.89270  0.92270  0.07760  Biso   1.000  C
  C103     1.0000 0.97060  0.92590  0.10100  Biso   1.000  C
  H94      1.0000 0.99650  0.96120  0.13170  Biso   1.000  H
  C104     1.0000 0.00860  0.87860  0.07940  Biso   1.000  C
  H95      1.0000 0.07120  0.89200  0.08650  Biso   1.000  H
  C105     1.0000 0.84940  0.98080  0.09450  Biso   1.000  C
  H96      1.0000 0.78900  0.96280  0.07640  Biso   1.000  H
  H97      1.0000 0.84310  0.98870  0.13000  Biso   1.000  H
  N7       1.0000 0.90500  0.05070  0.08550  Biso   1.000  N
  C106     1.0000 0.92730  0.06210  0.04170  Biso   1.000  C
  H98      1.0000 0.90300  0.02950  0.00980  Biso   1.000  H
  C107     1.0000 0.99310  0.13150  0.05370  Biso   1.000  C
  H99      1.0000 0.02690  0.15130  0.03010  Biso   1.000  H
  N8       1.0000 0.00570  0.16750  0.09940  Biso   1.000  N
  C108     1.0000 0.95800  0.11620  0.11940  Biso   1.000  C
  H100     1.0000 0.95980  0.12330  0.15380  Biso   1.000  H
  N9       1.0000 0.29190  0.88570  0.28240  Biso   1.000  N
  C109     1.0000 0.37240  0.94290  0.28690  Biso   1.000  C
  H101     1.0000 0.42880  0.93730  0.28600  Biso   1.000  H
  C110     1.0000 0.36020  0.00890  0.29300  Biso   1.000  C
  H102     1.0000 0.40460  0.05520  0.29340  Biso   1.000  H
  N10      1.0000 0.27820  0.99630  0.29790  Biso   1.000  N
  C111     1.0000 0.23880  0.92120  0.28750  Biso   1.000  C
  H103     1.0000 0.17580  0.89680  0.28430  Biso   1.000  H
  C112     1.0000 0.23600  0.04830  0.29480  Biso   1.000  C
  H104     1.0000 0.17380  0.02010  0.27920  Biso   1.000  H
  H105     1.0000 0.26780  0.07830  0.27320  Biso   1.000  H
  C113     1.0000 0.23500  0.10090  0.34420  Biso   1.000  C
  C114     1.0000 0.25100  0.08630  0.38650  Biso   1.000  C
  H106     1.0000 0.27310  0.04810  0.38620  Biso   1.000  H
  C115     1.0000 0.23490  0.12560  0.42920  Biso   1.000  C
  H107     1.0000 0.23920  0.11190  0.45860  Biso   1.000  H
  C116     1.0000 0.21260  0.18570  0.42940  Biso   1.000  C
  C117     1.0000 0.17800  0.18800  0.38460  Biso   1.000  C
  H108     1.0000 0.13290  0.20760  0.38210  Biso   1.000  H
  C118     1.0000 0.21190  0.15970  0.34600  Biso   1.000  C
  H109     1.0000 0.22030  0.18130  0.31950  Biso   1.000  H
  C119     1.0000 0.19200  0.23310  0.47560  Biso   1.000  C
  H110     1.0000 0.15080  0.25610  0.46670  Biso   1.000  H
  H111     1.0000 0.16310  0.20180  0.49710  Biso   1.000  H
  N11      1.0000 0.27510  0.29000  0.50110  Biso   1.000  N
  C120     1.0000 0.31920  0.35160  0.48530  Biso   1.000  C
  H112     1.0000 0.30460  0.36500  0.45730  Biso   1.000  H
  C121     1.0000 0.39040  0.38820  0.52170  Biso   1.000  C
  H113     1.0000 0.43510  0.43440  0.52220  Biso   1.000  H
  N12      1.0000 0.39210  0.35500  0.55540  Biso   1.000  N
  C122     1.0000 0.32090  0.29630  0.54500  Biso   1.000  C
  H114     1.0000 0.30240  0.26250  0.56430  Biso   1.000  H
  H115     1.0000 0.66640  0.71200  0.27570  Biso   1.000  H
  H116     1.0000 0.98140  0.23960  0.28360  Biso   1.000  H
  H117     1.0000 0.18130  0.74790  0.41140  Biso   1.000  H
  C123     1.0000 0.53200  0.78220  0.08690  Biso   1.000  C
  H118     1.0000 0.49200  0.80890  0.08210  Biso   1.000  H
  H119     1.0000 0.55970  0.80280  0.12140  Biso   1.000  H
  C124     1.0000 0.74500  0.77580  0.20780  Biso   1.000  C
  H120     1.0000 0.77360  0.80580  0.24130  Biso   1.000  H
  H121     1.0000 0.69520  0.79160  0.20000  Biso   1.000  H
  C125     1.0000 0.82310  0.23200  0.31640  Biso   1.000  C
  H122     1.0000 0.80590  0.25860  0.29530  Biso   1.000  H
  H123     1.0000 0.82040  0.18320  0.29520  Biso   1.000  H
  C126     1.0000 0.02560  0.73290  0.44440  Biso   1.000  C
  H124     1.0000 0.06450  0.78590  0.45170  Biso   1.000  H
  H125     1.0000 0.99340  0.71770  0.41100  Biso   1.000  H
  C127     1.0000 0.95900  0.72300  0.48140  Biso   1.000  C
  H126     1.0000 0.92270  0.75360  0.47990  Biso   1.000  H
  H127     1.0000 0.91940  0.67100  0.47380  Biso   1.000  H
  H128     1.0000 0.99050  0.73910  0.51450  Biso   1.000  H
  C128     1.0000 0.75740  0.21900  0.35470  Biso   1.000  C
  H129     1.0000 0.69680  0.19060  0.33800  Biso   1.000  H
  H130     1.0000 0.77400  0.19240  0.37520  Biso   1.000  H
  H131     1.0000 0.75950  0.26760  0.37530  Biso   1.000  H
  C129     1.0000 0.81400  0.79000  0.17040  Biso   1.000  C
  H132     1.0000 0.83690  0.84300  0.17210  Biso   1.000  H
  H133     1.0000 0.86300  0.77520  0.17830  Biso   1.000  H
  H134     1.0000 0.78460  0.76100  0.13710  Biso   1.000  H
  C130     1.0000 0.60500  0.79600  0.05300  Biso   1.000  C
  H135     1.0000 0.63820  0.84990  0.06050  Biso   1.000  H
  H136     1.0000 0.64500  0.77120  0.05810  Biso   1.000  H
  H137     1.0000 0.57730  0.77730  0.01880  Biso   1.000  H
  C131     1.0000 0.47400  0.69950  0.07820  Biso   1.000  C
  H138     1.0000 0.51340  0.67100  0.08010  Biso   1.000  H
  H139     1.0000 0.43980  0.67930  0.04530  Biso   1.000  H
  C132     1.0000 0.70640  0.69300  0.20610  Biso   1.000  C
  H140     1.0000 0.75560  0.67750  0.21460  Biso   1.000  H
  H141     1.0000 0.67850  0.66290  0.17250  Biso   1.000  H
  C133     1.0000 0.91950  0.27700  0.34170  Biso   1.000  C
  H142     1.0000 0.92190  0.32600  0.36250  Biso   1.000  H
  H143     1.0000 0.93580  0.25080  0.36330  Biso   1.000  H
  C134     1.0000 0.08330  0.68640  0.44560  Biso   1.000  C
  H144     1.0000 0.04450  0.63360  0.44000  Biso   1.000  H
  H145     1.0000 0.11860  0.70360  0.47820  Biso   1.000  H
  N13      1.0000 0.24360  0.15420  0.22140  Biso   1.000  N
  C135     1.0000 0.16080  0.09660  0.21020  Biso   1.000  C
  C136     1.0000 0.15420  0.02540  0.18450  Biso   1.000  C
  C137     1.0000 0.23040  0.01190  0.17000  Biso   1.000  C
  C138     1.0000 0.31320  0.06960  0.18120  Biso   1.000  C
  C139     1.0000 0.31980  0.14070  0.20690  Biso   1.000  C
  N14      1.0000 0.92800  0.39020  0.05870  Biso   1.000  N
  C140     1.0000 0.86120  0.32070  0.05110  Biso   1.000  C
  C141     1.0000 0.79130  0.29620  0.01380  Biso   1.000  C
  C142     1.0000 0.78830  0.34110  0.98400  Biso   1.000  C
  C143     1.0000 0.85510  0.41050  0.99160  Biso   1.000  C
  C144     1.0000 0.92500  0.43510  0.02900  Biso   1.000  C
  N15      1.0000 0.31700  0.88800  0.27200  Biso   1.000  N
  N16      1.0000 0.39100  0.36090  0.55840  Biso   1.000  N
  C145     1.0000 0.40000  0.39490  0.52080  Biso   1.000  C
  C146     1.0000 0.33180  0.36900  0.48230  Biso   1.000  C
  C147     1.0000 0.25450  0.30900  0.48160  Biso   1.000  C
  C148     1.0000 0.24550  0.27490  0.51920  Biso   1.000  C
  C149     1.0000 0.31400  0.30100  0.55770  Biso   1.000  C
  Zn9      1.0000 0.97356  0.57450  0.88562  Biso   1.000  Zn
  O25      1.0000 0.87370  0.58920  0.92640  Biso   1.000  O
  C150     1.0000 0.64900  0.44710  0.91750  Biso   1.000  C
  H146     1.0000 0.59030  0.44270  0.92490  Biso   1.000  H
  Zn10     1.0000 0.89425  0.36417  0.83509  Biso   1.000  Zn
  O26      1.0000 0.89920  0.46570  0.87670  Biso   1.000  O
  C151     1.0000 0.71750  0.51900  0.92960  Biso   1.000  C
  Zn11     1.0000 0.71628  0.22194  0.73178  Biso   1.000  Zn
  O27      1.0000 0.77120  0.32970  0.86080  Biso   1.000  O
  C152     1.0000 0.80280  0.52300  0.91660  Biso   1.000  C
  Zn12     1.0000 0.54831  0.23316  0.63947  Biso   1.000  Zn
  O28      1.0000 0.66080  0.24020  0.79620  Biso   1.000  O
  C153     1.0000 0.81950  0.45890  0.89140  Biso   1.000  C
  Zn13     1.0000 0.49032  0.38997  0.61206  Biso   1.000  Zn
  O29      1.0000 0.60070  0.22600  0.70400  Biso   1.000  O
  C154     1.0000 0.74980  0.38850  0.88200  Biso   1.000  C
  Zn14     1.0000 0.57212  0.59953  0.66442  Biso   1.000  Zn
  O30      1.0000 0.45430  0.25360  0.68260  Biso   1.000  O
  C155     1.0000 0.66510  0.38340  0.89520  Biso   1.000  C
  Zn15     1.0000 0.75041  0.74145  0.76759  Biso   1.000  Zn
  O31      1.0000 0.41540  0.35130  0.66510  Biso   1.000  O
  C156     1.0000 0.58980  0.30780  0.88170  Biso   1.000  C
  H147     1.0000 0.61840  0.27080  0.88200  Biso   1.000  H
  Zn16     1.0000 0.91737  0.73233  0.86006  Biso   1.000  Zn
  O32      1.0000 0.50140  0.49030  0.65680  Biso   1.000  O
  C157     1.0000 0.47630  0.30970  0.81730  Biso   1.000  C
  H148     1.0000 0.45070  0.33240  0.84360  Biso   1.000  H
  O33      1.0000 0.51830  0.61060  0.72960  Biso   1.000  O
  C158     1.0000 0.54800  0.28920  0.82860  Biso   1.000  C
  O34      1.0000 0.63090  0.69900  0.79440  Biso   1.000  O
  C159     1.0000 0.58640  0.25950  0.79010  Biso   1.000  C
  O35      1.0000 0.79950  0.72840  0.83090  Biso   1.000  O
  C160     1.0000 0.55750  0.24880  0.74020  Biso   1.000  C
  O36      1.0000 0.83770  0.68910  0.90950  Biso   1.000  O
  C161     1.0000 0.48160  0.26710  0.73220  Biso   1.000  C
  O37      1.0000 0.04190  0.54700  0.82910  Biso   1.000  O
  C162     1.0000 0.44040  0.29840  0.76900  Biso   1.000  C
  O38      1.0000 0.97740  0.65680  0.85460  Biso   1.000  O
  C163     1.0000 0.36410  0.32150  0.75730  Biso   1.000  C
  H149     1.0000 0.33180  0.28750  0.72480  Biso   1.000  H
  O39      1.0000 0.97270  0.74160  0.79540  Biso   1.000  O
  C164     1.0000 0.41880  0.46220  0.78920  Biso   1.000  C
  H150     1.0000 0.40330  0.45550  0.82030  Biso   1.000  H
  O40      1.0000 0.86620  0.74790  0.73740  Biso   1.000  O
  C165     1.0000 0.40420  0.40100  0.75100  Biso   1.000  C
  O41      1.0000 0.69460  0.67350  0.69860  Biso   1.000  O
  C166     1.0000 0.42760  0.40960  0.70610  Biso   1.000  C
  O42      1.0000 0.64930  0.57010  0.61050  Biso   1.000  O
  C167     1.0000 0.46890  0.48120  0.69920  Biso   1.000  C
  O43      1.0000 0.59600  0.43890  0.57666  Biso   1.000  O
  C168     1.0000 0.47990  0.54370  0.73850  Biso   1.000  C
  O44      1.0000 0.55530  0.31720  0.60860  Biso   1.000  O
  C169     1.0000 0.45570  0.53520  0.78490  Biso   1.000  C
  O45      1.0000 0.66930  0.24710  0.61220  Biso   1.000  O
  C170     1.0000 0.47700  0.60430  0.82740  Biso   1.000  C
  H151     1.0000 0.47550  0.64490  0.81320  Biso   1.000  H
  O46      1.0000 0.77490  0.24020  0.67010  Biso   1.000  O
  C171     1.0000 0.59010  0.60310  0.89110  Biso   1.000  C
  H152     1.0000 0.54190  0.57180  0.90360  Biso   1.000  H
  O47      1.0000 0.83920  0.29830  0.76630  Biso   1.000  O
  C172     1.0000 0.57220  0.62870  0.85260  Biso   1.000  C
  O48      1.0000 0.99280  0.41370  0.79760  Biso   1.000  O
  C173     1.0000 0.64300  0.67350  0.83360  Biso   1.000  C
  C174     1.0000 0.73090  0.69100  0.85200  Biso   1.000  C
  C175     1.0000 0.74960  0.66700  0.89210  Biso   1.000  C
  C176     1.0000 0.67970  0.62290  0.91250  Biso   1.000  C
  C177     1.0000 0.70090  0.59190  0.95220  Biso   1.000  C
  H153     1.0000 0.75910  0.62870  0.97080  Biso   1.000  H
  C178     1.0000 0.51640  0.29460  0.91570  Biso   1.000  C
  H154     1.0000 0.49200  0.33470  0.92100  Biso   1.000  H
  H155     1.0000 0.46720  0.24680  0.90040  Biso   1.000  H
  C179     1.0000 0.55580  0.29330  0.96500  Biso   1.000  C
  H156     1.0000 0.59100  0.34480  0.98440  Biso   1.000  H
  H157     1.0000 0.59680  0.26570  0.95890  Biso   1.000  H
  C180     1.0000 0.48500  0.25800  0.99410  Biso   1.000  C
  H158     1.0000 0.51270  0.25810  0.02520  Biso   1.000  H
  H159     1.0000 0.45040  0.20640  0.97520  Biso   1.000  H
  H160     1.0000 0.44460  0.28560  0.00080  Biso   1.000  H
  C181     1.0000 0.29400  0.31900  0.79420  Biso   1.000  C
  H161     1.0000 0.32440  0.35440  0.82610  Biso   1.000  H
  H162     1.0000 0.27270  0.26840  0.79930  Biso   1.000  H
  C182     1.0000 0.21290  0.33500  0.78050  Biso   1.000  C
  H163     1.0000 0.17550  0.33330  0.80780  Biso   1.000  H
  H164     1.0000 0.23380  0.38640  0.77750  Biso   1.000  H
  C183     1.0000 0.15400  0.28300  0.73260  Biso   1.000  C
  H165     1.0000 0.10340  0.29800  0.72720  Biso   1.000  H
  H166     1.0000 0.13050  0.23160  0.73540  Biso   1.000  H
  H167     1.0000 0.18900  0.28480  0.70490  Biso   1.000  H
  C184     1.0000 0.40680  0.59630  0.86430  Biso   1.000  C
  H168     1.0000 0.42610  0.64250  0.89170  Biso   1.000  H
  H169     1.0000 0.40520  0.55520  0.87810  Biso   1.000  H
  C185     1.0000 0.31190  0.58120  0.84230  Biso   1.000  C
  H170     1.0000 0.29020  0.53380  0.81580  Biso   1.000  H
  H171     1.0000 0.31230  0.62150  0.82780  Biso   1.000  H
  C186     1.0000 0.25160  0.57690  0.88100  Biso   1.000  C
  H172     1.0000 0.19110  0.56720  0.86690  Biso   1.000  H
  H173     1.0000 0.27290  0.62410  0.90690  Biso   1.000  H
  H174     1.0000 0.25090  0.53660  0.89490  Biso   1.000  H
  C187     1.0000 0.63330  0.58390  0.98980  Biso   1.000  C
  H175     1.0000 0.62170  0.63060  0.00150  Biso   1.000  H
  H176     1.0000 0.57610  0.54330  0.97450  Biso   1.000  H
  C188     1.0000 0.67250  0.56650  0.03330  Biso   1.000  C
  H177     1.0000 0.73260  0.60450  0.04630  Biso   1.000  H
  H178     1.0000 0.67870  0.51760  0.02200  Biso   1.000  H
  C189     1.0000 0.61470  0.56580  0.07190  Biso   1.000  C
  H179     1.0000 0.64010  0.55470  0.09930  Biso   1.000  H
  H180     1.0000 0.55550  0.52760  0.05910  Biso   1.000  H
  H181     1.0000 0.60930  0.61440  0.08330  Biso   1.000  H
  C190     1.0000 0.05630  0.60650  0.71580  Biso   1.000  C
  H182     1.0000 0.07150  0.59410  0.68340  Biso   1.000  H
  C191     1.0000 0.06470  0.56460  0.74710  Biso   1.000  C
  C192     1.0000 0.03860  0.58400  0.79470  Biso   1.000  C
  C193     1.0000 0.00560  0.64150  0.81020  Biso   1.000  C
  C194     1.0000 0.00430  0.68250  0.77660  Biso   1.000  C
  C195     1.0000 0.02650  0.66610  0.73020  Biso   1.000  C
  C196     1.0000 0.01230  0.71020  0.69520  Biso   1.000  C
  H183     1.0000 0.02030  0.76120  0.71570  Biso   1.000  H
  C197     1.0000 0.89110  0.61690  0.62570  Biso   1.000  C
  H184     1.0000 0.93560  0.60200  0.60950  Biso   1.000  H
  C198     1.0000 0.91730  0.67440  0.67000  Biso   1.000  C
  C199     1.0000 0.84940  0.69280  0.69260  Biso   1.000  C
  C200     1.0000 0.75860  0.65770  0.67340  Biso   1.000  C
  C201     1.0000 0.73730  0.60240  0.62870  Biso   1.000  C
  C202     1.0000 0.80310  0.58150  0.60490  Biso   1.000  C
  C203     1.0000 0.77350  0.51620  0.55720  Biso   1.000  C
  H185     1.0000 0.71840  0.51660  0.54060  Biso   1.000  H
  C204     1.0000 0.81040  0.40820  0.57410  Biso   1.000  C
  H186     1.0000 0.86970  0.42960  0.56680  Biso   1.000  H
  C205     1.0000 0.74910  0.44390  0.57020  Biso   1.000  C
  C206     1.0000 0.66080  0.40990  0.57960  Biso   1.000  C
  C207     1.0000 0.63630  0.34460  0.59570  Biso   1.000  C
  C208     1.0000 0.69970  0.31230  0.59880  Biso   1.000  C
  C209     1.0000 0.78640  0.34340  0.58810  Biso   1.000  C
  C210     1.0000 0.85370  0.30630  0.59440  Biso   1.000  C
  H187     1.0000 0.82030  0.25160  0.58740  Biso   1.000  H
  C211     1.0000 0.97170  0.39890  0.66570  Biso   1.000  C
  H188     1.0000 0.00050  0.42410  0.64290  Biso   1.000  H
  C212     1.0000 0.89550  0.33640  0.64800  Biso   1.000  C
  C213     1.0000 0.85330  0.30060  0.68280  Biso   1.000  C
  C214     1.0000 0.88550  0.32910  0.73280  Biso   1.000  C
  C215     1.0000 0.96600  0.39170  0.74830  Biso   1.000  C
  C216     1.0000 0.00960  0.42770  0.71480  Biso   1.000  C
  C217     1.0000 0.09100  0.49810  0.73190  Biso   1.000  C
  H189     1.0000 0.12050  0.49510  0.76230  Biso   1.000  H
  C218     1.0000 0.08220  0.71800  0.65920  Biso   1.000  C
  H190     1.0000 0.14230  0.73580  0.67750  Biso   1.000  H
  H191     1.0000 0.07160  0.66880  0.63610  Biso   1.000  H
  C219     1.0000 0.07990  0.77270  0.62970  Biso   1.000  C
  H192     1.0000 0.09040  0.82190  0.65280  Biso   1.000  H
  H193     1.0000 0.01980  0.75490  0.61130  Biso   1.000  H
  C220     1.0000 0.14900  0.78080  0.59390  Biso   1.000  C
  H194     1.0000 0.14490  0.81590  0.57620  Biso   1.000  H
  H195     1.0000 0.13820  0.73240  0.57050  Biso   1.000  H
  H196     1.0000 0.20880  0.79940  0.61200  Biso   1.000  H
  C221     1.0000 0.84620  0.52620  0.52100  Biso   1.000  C
  H197     1.0000 0.90090  0.52420  0.53620  Biso   1.000  H
  H198     1.0000 0.86150  0.57560  0.51530  Biso   1.000  H
  C222     1.0000 0.81490  0.46650  0.47180  Biso   1.000  C
  H199     1.0000 0.79280  0.41690  0.47780  Biso   1.000  H
  H200     1.0000 0.76460  0.47230  0.45480  Biso   1.000  H
  C223     1.0000 0.89060  0.47080  0.43820  Biso   1.000  C
  H201     1.0000 0.86760  0.43170  0.40720  Biso   1.000  H
  H202     1.0000 0.94000  0.46410  0.45460  Biso   1.000  H
  H203     1.0000 0.91190  0.51940  0.43160  Biso   1.000  H
  C224     1.0000 0.93060  0.31900  0.56260  Biso   1.000  C
  H204     1.0000 0.97560  0.30070  0.57370  Biso   1.000  H
  H205     1.0000 0.95990  0.37220  0.56550  Biso   1.000  H
  C225     1.0000 0.89320  0.27600  0.50940  Biso   1.000  C
  H206     1.0000 0.85030  0.22610  0.50830  Biso   1.000  H
  H207     1.0000 0.85990  0.30220  0.49640  Biso   1.000  H
  C226     1.0000 0.96520  0.26800  0.47620  Biso   1.000  C
  H208     1.0000 0.93700  0.24010  0.44260  Biso   1.000  H
  H209     1.0000 0.99750  0.24090  0.48840  Biso   1.000  H
  H210     1.0000 0.00710  0.31700  0.47640  Biso   1.000  H
  C227     1.0000 0.16030  0.50700  0.69610  Biso   1.000  C
  H211     1.0000 0.13320  0.50860  0.66500  Biso   1.000  H
  H212     1.0000 0.21040  0.55480  0.70980  Biso   1.000  H
  C228     1.0000 0.19680  0.44370  0.68520  Biso   1.000  C
  H213     1.0000 0.22940  0.44510  0.71560  Biso   1.000  H
  H214     1.0000 0.14640  0.39540  0.67440  Biso   1.000  H
  C229     1.0000 0.26050  0.45030  0.64490  Biso   1.000  C
  H215     1.0000 0.28260  0.40930  0.63880  Biso   1.000  H
  H216     1.0000 0.31100  0.49770  0.65580  Biso   1.000  H
  H217     1.0000 0.22810  0.44810  0.61460  Biso   1.000  H
  N17      1.0000 0.47530  0.13360  0.59740  Biso   1.000  N
  C230     1.0000 0.46900  0.10450  0.54770  Biso   1.000  C
  H218     1.0000 0.50010  0.13050  0.52570  Biso   1.000  H
  C231     1.0000 0.41180  0.03340  0.53460  Biso   1.000  C
  H219     1.0000 0.39630  0.00100  0.50220  Biso   1.000  H
  N18      1.0000 0.38160  0.01700  0.57410  Biso   1.000  N
  C232     1.0000 0.42240  0.07730  0.61040  Biso   1.000  C
  H220     1.0000 0.41370  0.07930  0.64370  Biso   1.000  H
  C233     1.0000 0.32710  0.94390  0.57710  Biso   1.000  C
  H221     1.0000 0.30680  0.94810  0.61010  Biso   1.000  H
  H222     1.0000 0.27330  0.92400  0.55270  Biso   1.000  H
  C234     1.0000 0.37490  0.88970  0.56780  Biso   1.000  C
  C235     1.0000 0.45530  0.90490  0.59330  Biso   1.000  C
  H223     1.0000 0.47840  0.94810  0.62040  Biso   1.000  H
  C236     1.0000 0.50290  0.86060  0.58110  Biso   1.000  C
  H224     1.0000 0.56270  0.87650  0.59560  Biso   1.000  H
  C237     1.0000 0.46420  0.79190  0.54740  Biso   1.000  C
  C238     1.0000 0.37850  0.77340  0.52540  Biso   1.000  C
  H225     1.0000 0.34810  0.72530  0.50380  Biso   1.000  H
  C239     1.0000 0.33830  0.82300  0.53440  Biso   1.000  C
  H226     1.0000 0.28190  0.81070  0.51660  Biso   1.000  H
  C240     1.0000 0.51760  0.74090  0.53250  Biso   1.000  C
  H227     1.0000 0.58240  0.77090  0.53840  Biso   1.000  H
  H228     1.0000 0.50190  0.71410  0.49720  Biso   1.000  H
  N19      1.0000 0.49660  0.68770  0.56180  Biso   1.000  N
  C241     1.0000 0.42520  0.62230  0.55210  Biso   1.000  C
  H229     1.0000 0.37730  0.60360  0.52650  Biso   1.000  H
  C242     1.0000 0.43710  0.58950  0.58690  Biso   1.000  C
  H230     1.0000 0.39980  0.54140  0.58820  Biso   1.000  H
  N20      1.0000 0.50830  0.63410  0.61880  Biso   1.000  N
  C243     1.0000 0.54370  0.69090  0.60290  Biso   1.000  C
  H231     1.0000 0.59720  0.73100  0.61830  Biso   1.000  H
  N21      1.0000 0.96560  0.33200  0.87870  Biso   1.000  N
  C244     1.0000 0.04190  0.38390  0.90740  Biso   1.000  C
  H232     1.0000 0.07230  0.43280  0.90490  Biso   1.000  H
  C245     1.0000 0.06560  0.35250  0.93980  Biso   1.000  C
  H233     1.0000 0.12080  0.37250  0.96030  Biso   1.000  H
  N22      1.0000 0.00360  0.29300  0.93840  Biso   1.000  N
  C246     1.0000 0.93800  0.28840  0.90560  Biso   1.000  C
  H234     1.0000 0.87760  0.25600  0.90290  Biso   1.000  H
  C247     1.0000 0.99680  0.24630  0.97090  Biso   1.000  C
  H235     1.0000 0.02680  0.27780  0.00400  Biso   1.000  H
  H236     1.0000 0.93300  0.22080  0.97400  Biso   1.000  H
  C248     1.0000 0.03910  0.18820  0.95240  Biso   1.000  C
  C249     1.0000 0.12140  0.19710  0.97000  Biso   1.000  C
  H237     1.0000 0.15610  0.24220  0.99360  Biso   1.000  H
  C250     1.0000 0.15610  0.14480  0.95560  Biso   1.000  C
  H238     1.0000 0.21540  0.15400  0.96820  Biso   1.000  H
  C251     1.0000 0.10730  0.07730  0.92240  Biso   1.000  C
  C252     1.0000 0.02940  0.07410  0.89900  Biso   1.000  C
  H239     1.0000 0.00350  0.03880  0.86830  Biso   1.000  H
  C253     1.0000 0.99140  0.12140  0.92060  Biso   1.000  C
  H240     1.0000 0.92880  0.10800  0.91350  Biso   1.000  H
  C254     1.0000 0.15060  0.01920  0.90550  Biso   1.000  C
  H241     1.0000 0.21100  0.03720  0.92360  Biso   1.000  H
  H242     1.0000 0.15690  0.01130  0.87000  Biso   1.000  H
  N23      1.0000 0.09500  0.94930  0.91450  Biso   1.000  N
  C255     1.0000 0.07270  0.93790  0.95830  Biso   1.000  C
  H243     1.0000 0.09700  0.97050  0.99020  Biso   1.000  H
  C256     1.0000 0.00690  0.86850  0.94630  Biso   1.000  C
  H244     1.0000 0.97310  0.84870  0.96990  Biso   1.000  H
  N24      1.0000 0.99430  0.83250  0.90060  Biso   1.000  N
  C257     1.0000 0.04200  0.88380  0.88060  Biso   1.000  C
  H245     1.0000 0.04020  0.87670  0.84620  Biso   1.000  H
  N25      1.0000 0.70810  0.11430  0.71760  Biso   1.000  N
  C258     1.0000 0.62760  0.05710  0.71310  Biso   1.000  C
  H246     1.0000 0.57120  0.06270  0.71400  Biso   1.000  H
  C259     1.0000 0.63980  0.99110  0.70700  Biso   1.000  C
  H247     1.0000 0.59540  0.94480  0.70660  Biso   1.000  H
  N26      1.0000 0.72180  0.00370  0.70210  Biso   1.000  N
  C260     1.0000 0.76120  0.07880  0.71250  Biso   1.000  C
  H248     1.0000 0.82420  0.10320  0.71570  Biso   1.000  H
  C261     1.0000 0.76400  0.95170  0.70520  Biso   1.000  C
  H249     1.0000 0.82620  0.97990  0.72080  Biso   1.000  H
  H250     1.0000 0.73220  0.92170  0.72680  Biso   1.000  H
  C262     1.0000 0.76500  0.89910  0.65580  Biso   1.000  C
  C263     1.0000 0.74900  0.91370  0.61350  Biso   1.000  C
  H251     1.0000 0.72690  0.95190  0.61380  Biso   1.000  H
  C264     1.0000 0.76510  0.87440  0.57080  Biso   1.000  C
  H252     1.0000 0.76080  0.88810  0.54140  Biso   1.000  H
  C265     1.0000 0.78740  0.81430  0.57060  Biso   1.000  C
  C266     1.0000 0.82200  0.81200  0.61540  Biso   1.000  C
  H253     1.0000 0.86710  0.79240  0.61790  Biso   1.000  H
  C267     1.0000 0.78810  0.84030  0.65400  Biso   1.000  C
  H254     1.0000 0.77970  0.81870  0.68050  Biso   1.000  H
  C268     1.0000 0.80800  0.76690  0.52440  Biso   1.000  C
  H255     1.0000 0.84920  0.74390  0.53330  Biso   1.000  H
  H256     1.0000 0.83690  0.79820  0.50290  Biso   1.000  H
  N27      1.0000 0.72490  0.71000  0.49890  Biso   1.000  N
  C269     1.0000 0.68080  0.64840  0.51470  Biso   1.000  C
  H257     1.0000 0.69540  0.63500  0.54270  Biso   1.000  H
  C270     1.0000 0.60960  0.61180  0.47830  Biso   1.000  C
  H258     1.0000 0.56490  0.56560  0.47780  Biso   1.000  H
  N28      1.0000 0.60790  0.64500  0.44460  Biso   1.000  N
  C271     1.0000 0.67910  0.70370  0.45500  Biso   1.000  C
  H259     1.0000 0.69760  0.73750  0.43570  Biso   1.000  H
  H260     1.0000 0.33360  0.28800  0.72430  Biso   1.000  H
  H261     1.0000 0.01860  0.76040  0.71640  Biso   1.000  H
  H262     1.0000 0.81870  0.25210  0.58860  Biso   1.000  H
  C272     1.0000 0.46800  0.21780  0.91310  Biso   1.000  C
  H263     1.0000 0.50800  0.19110  0.91790  Biso   1.000  H
  H264     1.0000 0.44030  0.19720  0.87860  Biso   1.000  H
  C273     1.0000 0.25500  0.22420  0.79220  Biso   1.000  C
  H265     1.0000 0.22640  0.19420  0.75870  Biso   1.000  H
  H266     1.0000 0.30480  0.20840  0.80000  Biso   1.000  H
  C274     1.0000 0.17690  0.76800  0.68360  Biso   1.000  C
  H267     1.0000 0.19410  0.74140  0.70470  Biso   1.000  H
  H268     1.0000 0.17960  0.81680  0.70480  Biso   1.000  H
  C275     1.0000 0.97440  0.26710  0.55560  Biso   1.000  C
  H269     1.0000 0.93550  0.21410  0.54830  Biso   1.000  H
  H270     1.0000 0.00660  0.28230  0.58900  Biso   1.000  H
  C276     1.0000 0.04100  0.27700  0.51860  Biso   1.000  C
  H271     1.0000 0.07730  0.24640  0.52010  Biso   1.000  H
  H272     1.0000 0.08060  0.32900  0.52620  Biso   1.000  H
  H273     1.0000 0.00950  0.26090  0.48550  Biso   1.000  H
  C277     1.0000 0.24260  0.78100  0.64530  Biso   1.000  C
  H274     1.0000 0.30320  0.80940  0.66200  Biso   1.000  H
  H275     1.0000 0.22600  0.80760  0.62480  Biso   1.000  H
  H276     1.0000 0.24050  0.73240  0.62470  Biso   1.000  H
  C278     1.0000 0.18600  0.21000  0.82960  Biso   1.000  C
  H277     1.0000 0.16310  0.15700  0.82790  Biso   1.000  H
  H278     1.0000 0.13700  0.22480  0.82170  Biso   1.000  H
  H279     1.0000 0.21540  0.23900  0.86290  Biso   1.000  H
  C279     1.0000 0.39500  0.20400  0.94700  Biso   1.000  C
  H280     1.0000 0.36180  0.15010  0.93950  Biso   1.000  H
  H281     1.0000 0.35500  0.22880  0.94190  Biso   1.000  H
  H282     1.0000 0.42270  0.22270  0.98120  Biso   1.000  H
  C280     1.0000 0.52600  0.30050  0.92180  Biso   1.000  C
  H283     1.0000 0.48660  0.32900  0.91990  Biso   1.000  H
  H284     1.0000 0.56020  0.32070  0.95470  Biso   1.000  H
  C281     1.0000 0.29360  0.30700  0.79390  Biso   1.000  C
  H285     1.0000 0.24440  0.32250  0.78540  Biso   1.000  H
  H286     1.0000 0.32150  0.33710  0.82750  Biso   1.000  H
  C282     1.0000 0.08050  0.72300  0.65830  Biso   1.000  C
  H287     1.0000 0.07810  0.67400  0.63750  Biso   1.000  H
  H288     1.0000 0.06420  0.74920  0.63670  Biso   1.000  H
  C283     1.0000 0.91670  0.31360  0.55440  Biso   1.000  C
  H289     1.0000 0.95550  0.36640  0.56000  Biso   1.000  H
  H290     1.0000 0.88140  0.29640  0.52180  Biso   1.000  H
  N29      1.0000 0.75640  0.84580  0.77860  Biso   1.000  N
  C284     1.0000 0.83920  0.90340  0.78980  Biso   1.000  C
  C285     1.0000 0.84580  0.97460  0.81550  Biso   1.000  C
  C286     1.0000 0.76960  0.98810  0.83000  Biso   1.000  C
  C287     1.0000 0.68680  0.93040  0.81880  Biso   1.000  C
  C288     1.0000 0.68020  0.85930  0.79310  Biso   1.000  C
  N30      1.0000 0.07200  0.60980  0.94130  Biso   1.000  N
  C289     1.0000 0.13880  0.67930  0.94890  Biso   1.000  C
  C290     1.0000 0.20870  0.70380  0.98620  Biso   1.000  C
  C291     1.0000 0.21170  0.65890  0.01600  Biso   1.000  C
  C292     1.0000 0.14490  0.58950  0.00840  Biso   1.000  C
  C293     1.0000 0.07500  0.56490  0.97100  Biso   1.000  C
  N31      1.0000 0.68300  0.11200  0.72800  Biso   1.000  N
  N32      1.0000 0.60900  0.63910  0.44160  Biso   1.000  N
  C294     1.0000 0.60000  0.60510  0.47920  Biso   1.000  C
  C295     1.0000 0.66820  0.63100  0.51770  Biso   1.000  C
  C296     1.0000 0.74550  0.69100  0.51840  Biso   1.000  C
  C297     1.0000 0.75450  0.72510  0.48080  Biso   1.000  C
  C298     1.0000 0.68600  0.69900  0.44230  Biso   1.000  C
