data_image0
_cell_length_a       40.8076
_cell_length_b       20.371
_cell_length_c       29.8948
_cell_angle_alpha    90
_cell_angle_beta     109.963
_cell_angle_gamma    90

_symmetry_space_group_name_H-M    "P 1"
_symmetry_int_tables_number       1

loop_
  _symmetry_equiv_pos_as_xyz
  'x, y, z'

loop_
  _atom_site_label
  _atom_site_occupancy
  _atom_site_fract_x
  _atom_site_fract_y
  _atom_site_fract_z
  _atom_site_thermal_displace_type
  _atom_site_B_iso_or_equiv
  _atom_site_type_symbol
  Th1      1.0000 0.22719  0.59822  0.21182  Biso   1.000  Th
  Th2      1.0000 0.12683  0.60172  0.13650  Biso   1.000  Th
  Th3      1.0000 0.19622  0.65139  0.07715  Biso   1.000  Th
  Th4      1.0000 0.24386  0.48077  0.11588  Biso   1.000  Th
  Th5      1.0000 0.14332  0.48580  0.04000  Biso   1.000  Th
  Th6      1.0000 0.17424  0.43079  0.17475  Biso   1.000  Th
  Th7      1.0000 0.17945  0.86962  0.20149  Biso   1.000  Th
  Th8      1.0000 0.97838  0.61075  0.92720  Biso   1.000  Th
  Th9      1.0000 0.23272  0.46891  0.41941  Biso   1.000  Th
  Th10     1.0000 0.21007  0.47643  0.40534  Biso   1.000  Th
  Th11     1.0000 0.03408  0.51690  0.25820  Biso   1.000  Th
  S1       1.0000 0.31543  0.52653  0.22939  Biso   1.000  S
  S2       1.0000 0.24544  0.76389  0.17256  Biso   1.000  S
  S3       1.0000 0.23749  0.46315  0.29503  Biso   1.000  S
  S4       1.0000 0.12965  0.77129  0.08972  Biso   1.000  S
  S5       1.0000 0.25042  0.32546  0.18241  Biso   1.000  S
  S6       1.0000 0.16391  0.70214  0.24231  Biso   1.000  S
  S7       1.0000 0.20817  0.40135  0.99602  Biso   1.000  S
  S8       1.0000 0.11094  0.33070  0.08064  Biso   1.000  S
  S9       1.0000 0.05445  0.54347  0.03131  Biso   1.000  S
  S10      1.0000 0.08783  0.46539  0.18403  Biso   1.000  S
  S11      1.0000 0.15486  0.39661  0.45227  Biso   1.000  S
  S12      1.0000 0.27062  0.40492  0.53950  Biso   1.000  S
  S13      1.0000 0.01070  0.46330  0.87560  Biso   1.000  S
  O1       1.0000 0.22195  0.49380  0.17770  Biso   1.000  O
  O2       1.0000 0.18287  0.63470  0.14580  Biso   1.000  O
  O3       1.0000 0.13914  0.49760  0.11470  Biso   1.000  O
  O4       1.0000 0.19636  0.53900  0.06680  Biso   1.000  O
  O5       1.0000 0.17018  0.54310  0.20510  Biso   1.000  O
  O6       1.0000 0.24659  0.59860  0.14100  Biso   1.000  O
  O7       1.0000 0.13664  0.60490  0.05870  Biso   1.000  O
  O8       1.0000 0.18777  0.41800  0.10020  Biso   1.000  O
  O9       1.0000 0.28944  0.56770  0.24040  Biso   1.000  O
  O10      1.0000 0.29979  0.49630  0.18180  Biso   1.000  O
  O11      1.0000 0.32713  0.47380  0.26520  Biso   1.000  O
  O12      1.0000 0.34523  0.56700  0.23050  Biso   1.000  O
  O13      1.0000 0.23581  0.73630  0.12430  Biso   1.000  O
  O14      1.0000 0.21830  0.81190  0.17210  Biso   1.000  O
  O15      1.0000 0.24677  0.71170  0.20700  Biso   1.000  O
  O16      1.0000 0.27925  0.79580  0.18470  Biso   1.000  O
  O17      1.0000 0.23992  0.45150  0.34490  Biso   1.000  O
  O18      1.0000 0.23433  0.53470  0.28620  Biso   1.000  O
  O19      1.0000 0.20610  0.43060  0.26290  Biso   1.000  O
  O20      1.0000 0.26859  0.43870  0.28710  Biso   1.000  O
  O21      1.0000 0.11635  0.71680  0.11110  Biso   1.000  O
  O22      1.0000 0.15721  0.74640  0.07260  Biso   1.000  O
  O23      1.0000 0.14426  0.82350  0.12520  Biso   1.000  O
  O24      1.0000 0.10082  0.79820  0.04970  Biso   1.000  O
  O25      1.0000 0.25831  0.37080  0.14910  Biso   1.000  O
  O26      1.0000 0.21614  0.34090  0.18520  Biso   1.000  O
  O27      1.0000 0.25060  0.25860  0.16550  Biso   1.000  O
  O28      1.0000 0.27680  0.33320  0.22950  Biso   1.000  O
  O29      1.0000 0.13505  0.65990  0.21300  Biso   1.000  O
  O30      1.0000 0.16606  0.75940  0.21320  Biso   1.000  O
  O31      1.0000 0.19699  0.66510  0.25550  Biso   1.000  O
  O32      1.0000 0.15745  0.72460  0.28470  Biso   1.000  O
  O33      1.0000 0.23440  0.41720  0.04250  Biso   1.000  O
  O34      1.0000 0.17337  0.42010  0.99610  Biso   1.000  O
  O35      1.0000 0.21580  0.43940  0.95860  Biso   1.000  O
  O36      1.0000 0.20940  0.33200  0.98580  Biso   1.000  O
  O37      1.0000 0.13573  0.34230  0.12850  Biso   1.000  O
  O38      1.0000 0.11550  0.37980  0.04710  Biso   1.000  O
  O39      1.0000 0.11670  0.26560  0.06540  Biso   1.000  O
  O40      1.0000 0.07560  0.33200  0.08100  Biso   1.000  O
  O41      1.0000 0.07075  0.59050  0.06950  Biso   1.000  O
  O42      1.0000 0.08038  0.51540  0.01290  Biso   1.000  O
  O43      1.0000 0.03840  0.49090  0.04920  Biso   1.000  O
  O44      1.0000 0.02770  0.57820  0.99350  Biso   1.000  O
  O45      1.0000 0.12195  0.43360  0.20080  Biso   1.000  O
  O46      1.0000 0.09110  0.53340  0.17050  Biso   1.000  O
  O47      1.0000 0.07370  0.46450  0.22240  Biso   1.000  O
  O48      1.0000 0.06550  0.42900  0.14270  Biso   1.000  O
  O49      1.0000 0.16534  0.34640  0.48960  Biso   1.000  O
  O50      1.0000 0.13790  0.45160  0.46740  Biso   1.000  O
  O51      1.0000 0.19220  0.42610  0.45380  Biso   1.000  O
  O52      1.0000 0.16920  0.40600  0.42160  Biso   1.000  O
  O53      1.0000 0.13680  0.37300  0.40770  Biso   1.000  O
  O54      1.0000 0.24475  0.35820  0.54430  Biso   1.000  O
  O55      1.0000 0.27570  0.45900  0.57350  Biso   1.000  O
  O56      1.0000 0.30440  0.37070  0.55140  Biso   1.000  O
  O57      1.0000 0.26510  0.42990  0.49520  Biso   1.000  O
  O58      1.0000 0.23660  0.43920  0.48570  Biso   1.000  O
  O59      1.0000 0.00470  0.52570  0.89340  Biso   1.000  O
  O60      1.0000 0.21970  0.57410  0.36650  Biso   1.000  O
  O61      1.0000 0.21850  0.35980  0.39320  Biso   1.000  O
  O62      1.0000 0.17280  0.48040  0.36230  Biso   1.000  O
  O63      1.0000 0.16730  0.43900  0.32810  Biso   1.000  O
  O64      1.0000 0.28620  0.54090  0.44750  Biso   1.000  O
  O65      1.0000 0.27220  0.51350  0.43290  Biso   1.000  O
  O66      1.0000 0.99670  0.40280  0.89930  Biso   1.000  O
  O67      1.0000 0.98900  0.45760  0.82420  Biso   1.000  O
  O68      1.0000 0.04660  0.45510  0.88070  Biso   1.000  O
  Th12     1.0000 0.72719  0.09822  0.21182  Biso   1.000  Th
  Th13     1.0000 0.62683  0.10172  0.13650  Biso   1.000  Th
  Th14     1.0000 0.69622  0.15139  0.07715  Biso   1.000  Th
  Th15     1.0000 0.74386  0.98077  0.11588  Biso   1.000  Th
  Th16     1.0000 0.64332  0.98580  0.04000  Biso   1.000  Th
  Th17     1.0000 0.67424  0.93079  0.17475  Biso   1.000  Th
  Th18     1.0000 0.67945  0.36962  0.20149  Biso   1.000  Th
  Th19     1.0000 0.47838  0.11075  0.92720  Biso   1.000  Th
  Th20     1.0000 0.73272  0.96891  0.41941  Biso   1.000  Th
  Th21     1.0000 0.71007  0.97643  0.40534  Biso   1.000  Th
  Th22     1.0000 0.53408  0.01690  0.25820  Biso   1.000  Th
  S14      1.0000 0.81543  0.02653  0.22939  Biso   1.000  S
  S15      1.0000 0.74544  0.26389  0.17256  Biso   1.000  S
  S16      1.0000 0.73749  0.96315  0.29503  Biso   1.000  S
  S17      1.0000 0.62965  0.27129  0.08972  Biso   1.000  S
  S18      1.0000 0.75042  0.82546  0.18241  Biso   1.000  S
  S19      1.0000 0.66391  0.20214  0.24231  Biso   1.000  S
  S20      1.0000 0.70817  0.90135  0.99602  Biso   1.000  S
  S21      1.0000 0.61094  0.83070  0.08064  Biso   1.000  S
  S22      1.0000 0.55445  0.04347  0.03131  Biso   1.000  S
  S23      1.0000 0.58783  0.96539  0.18403  Biso   1.000  S
  S24      1.0000 0.65486  0.89661  0.45227  Biso   1.000  S
  S25      1.0000 0.77062  0.90492  0.53950  Biso   1.000  S
  S26      1.0000 0.51070  0.96330  0.87560  Biso   1.000  S
  O69      1.0000 0.72195  0.99380  0.17770  Biso   1.000  O
  O70      1.0000 0.68287  0.13470  0.14580  Biso   1.000  O
  O71      1.0000 0.63914  0.99760  0.11470  Biso   1.000  O
  O72      1.0000 0.69636  0.03900  0.06680  Biso   1.000  O
  O73      1.0000 0.67018  0.04310  0.20510  Biso   1.000  O
  O74      1.0000 0.74659  0.09860  0.14100  Biso   1.000  O
  O75      1.0000 0.63664  0.10490  0.05870  Biso   1.000  O
  O76      1.0000 0.68777  0.91800  0.10020  Biso   1.000  O
  O77      1.0000 0.78944  0.06770  0.24040  Biso   1.000  O
  O78      1.0000 0.79979  0.99630  0.18180  Biso   1.000  O
  O79      1.0000 0.82713  0.97380  0.26520  Biso   1.000  O
  O80      1.0000 0.84523  0.06700  0.23050  Biso   1.000  O
  O81      1.0000 0.73581  0.23630  0.12430  Biso   1.000  O
  O82      1.0000 0.71830  0.31190  0.17210  Biso   1.000  O
  O83      1.0000 0.74677  0.21170  0.20700  Biso   1.000  O
  O84      1.0000 0.77925  0.29580  0.18470  Biso   1.000  O
  O85      1.0000 0.73992  0.95150  0.34490  Biso   1.000  O
  O86      1.0000 0.73433  0.03470  0.28620  Biso   1.000  O
  O87      1.0000 0.70610  0.93060  0.26290  Biso   1.000  O
  O88      1.0000 0.76859  0.93870  0.28710  Biso   1.000  O
  O89      1.0000 0.61635  0.21680  0.11110  Biso   1.000  O
  O90      1.0000 0.65721  0.24640  0.07260  Biso   1.000  O
  O91      1.0000 0.64426  0.32350  0.12520  Biso   1.000  O
  O92      1.0000 0.60082  0.29820  0.04970  Biso   1.000  O
  O93      1.0000 0.75831  0.87080  0.14910  Biso   1.000  O
  O94      1.0000 0.71614  0.84090  0.18520  Biso   1.000  O
  O95      1.0000 0.75060  0.75860  0.16550  Biso   1.000  O
  O96      1.0000 0.77680  0.83320  0.22950  Biso   1.000  O
  O97      1.0000 0.63505  0.15990  0.21300  Biso   1.000  O
  O98      1.0000 0.66606  0.25940  0.21320  Biso   1.000  O
  O99      1.0000 0.69699  0.16510  0.25550  Biso   1.000  O
  O100     1.0000 0.65745  0.22460  0.28470  Biso   1.000  O
  O101     1.0000 0.73440  0.91720  0.04250  Biso   1.000  O
  O102     1.0000 0.67337  0.92010  0.99610  Biso   1.000  O
  O103     1.0000 0.71580  0.93940  0.95860  Biso   1.000  O
  O104     1.0000 0.70940  0.83200  0.98580  Biso   1.000  O
  O105     1.0000 0.63573  0.84230  0.12850  Biso   1.000  O
  O106     1.0000 0.61550  0.87980  0.04710  Biso   1.000  O
  O107     1.0000 0.61670  0.76560  0.06540  Biso   1.000  O
  O108     1.0000 0.57560  0.83200  0.08100  Biso   1.000  O
  O109     1.0000 0.57075  0.09050  0.06950  Biso   1.000  O
  O110     1.0000 0.58038  0.01540  0.01290  Biso   1.000  O
  O111     1.0000 0.53840  0.99090  0.04920  Biso   1.000  O
  O112     1.0000 0.52770  0.07820  0.99350  Biso   1.000  O
  O113     1.0000 0.62195  0.93360  0.20080  Biso   1.000  O
  O114     1.0000 0.59110  0.03340  0.17050  Biso   1.000  O
  O115     1.0000 0.57370  0.96450  0.22240  Biso   1.000  O
  O116     1.0000 0.56550  0.92900  0.14270  Biso   1.000  O
  O117     1.0000 0.66534  0.84640  0.48960  Biso   1.000  O
  O118     1.0000 0.63790  0.95160  0.46740  Biso   1.000  O
  O119     1.0000 0.69220  0.92610  0.45380  Biso   1.000  O
  O120     1.0000 0.66920  0.90600  0.42160  Biso   1.000  O
  O121     1.0000 0.63680  0.87300  0.40770  Biso   1.000  O
  O122     1.0000 0.74475  0.85820  0.54430  Biso   1.000  O
  O123     1.0000 0.77570  0.95900  0.57350  Biso   1.000  O
  O124     1.0000 0.80440  0.87070  0.55140  Biso   1.000  O
  O125     1.0000 0.76510  0.92990  0.49520  Biso   1.000  O
  O126     1.0000 0.73660  0.93920  0.48570  Biso   1.000  O
  O127     1.0000 0.50470  0.02570  0.89340  Biso   1.000  O
  O128     1.0000 0.71970  0.07410  0.36650  Biso   1.000  O
  O129     1.0000 0.71850  0.85980  0.39320  Biso   1.000  O
  O130     1.0000 0.67280  0.98040  0.36230  Biso   1.000  O
  O131     1.0000 0.66730  0.93900  0.32810  Biso   1.000  O
  O132     1.0000 0.78620  0.04090  0.44750  Biso   1.000  O
  O133     1.0000 0.77220  0.01350  0.43290  Biso   1.000  O
  O134     1.0000 0.49670  0.90280  0.89930  Biso   1.000  O
  O135     1.0000 0.48900  0.95760  0.82420  Biso   1.000  O
  O136     1.0000 0.54660  0.95510  0.88070  Biso   1.000  O
  Th23     1.0000 0.77281  0.59822  0.28818  Biso   1.000  Th
  Th24     1.0000 0.87317  0.60172  0.36350  Biso   1.000  Th
  Th25     1.0000 0.80378  0.65139  0.42285  Biso   1.000  Th
  Th26     1.0000 0.75614  0.48077  0.38412  Biso   1.000  Th
  Th27     1.0000 0.85668  0.48580  0.46000  Biso   1.000  Th
  Th28     1.0000 0.82576  0.43079  0.32525  Biso   1.000  Th
  Th29     1.0000 0.82055  0.86962  0.29851  Biso   1.000  Th
  Th30     1.0000 0.02162  0.61075  0.57280  Biso   1.000  Th
  Th31     1.0000 0.76728  0.46891  0.08059  Biso   1.000  Th
  Th32     1.0000 0.78993  0.47643  0.09466  Biso   1.000  Th
  Th33     1.0000 0.96592  0.51690  0.24180  Biso   1.000  Th
  S27      1.0000 0.68457  0.52653  0.27061  Biso   1.000  S
  S28      1.0000 0.75456  0.76389  0.32744  Biso   1.000  S
  S29      1.0000 0.76251  0.46315  0.20497  Biso   1.000  S
  S30      1.0000 0.87035  0.77129  0.41028  Biso   1.000  S
  S31      1.0000 0.74958  0.32546  0.31759  Biso   1.000  S
  S32      1.0000 0.83609  0.70214  0.25769  Biso   1.000  S
  S33      1.0000 0.79183  0.40135  0.50398  Biso   1.000  S
  S34      1.0000 0.88906  0.33070  0.41936  Biso   1.000  S
  S35      1.0000 0.94555  0.54347  0.46869  Biso   1.000  S
  S36      1.0000 0.91217  0.46539  0.31597  Biso   1.000  S
  S37      1.0000 0.84514  0.39661  0.04773  Biso   1.000  S
  S38      1.0000 0.72938  0.40492  0.96050  Biso   1.000  S
  S39      1.0000 0.98930  0.46330  0.62440  Biso   1.000  S
  O137     1.0000 0.77805  0.49380  0.32230  Biso   1.000  O
  O138     1.0000 0.81713  0.63470  0.35420  Biso   1.000  O
  O139     1.0000 0.86086  0.49760  0.38530  Biso   1.000  O
  O140     1.0000 0.80364  0.53900  0.43320  Biso   1.000  O
  O141     1.0000 0.82982  0.54310  0.29490  Biso   1.000  O
  O142     1.0000 0.75341  0.59860  0.35900  Biso   1.000  O
  O143     1.0000 0.86336  0.60490  0.44130  Biso   1.000  O
  O144     1.0000 0.81223  0.41800  0.39980  Biso   1.000  O
  O145     1.0000 0.71056  0.56770  0.25960  Biso   1.000  O
  O146     1.0000 0.70021  0.49630  0.31820  Biso   1.000  O
  O147     1.0000 0.67287  0.47380  0.23480  Biso   1.000  O
  O148     1.0000 0.65477  0.56700  0.26950  Biso   1.000  O
  O149     1.0000 0.76419  0.73630  0.37570  Biso   1.000  O
  O150     1.0000 0.78170  0.81190  0.32790  Biso   1.000  O
  O151     1.0000 0.75323  0.71170  0.29300  Biso   1.000  O
  O152     1.0000 0.72075  0.79580  0.31530  Biso   1.000  O
  O153     1.0000 0.76008  0.45150  0.15510  Biso   1.000  O
  O154     1.0000 0.76567  0.53470  0.21380  Biso   1.000  O
  O155     1.0000 0.79390  0.43060  0.23710  Biso   1.000  O
  O156     1.0000 0.73141  0.43870  0.21290  Biso   1.000  O
  O157     1.0000 0.88365  0.71680  0.38890  Biso   1.000  O
  O158     1.0000 0.84279  0.74640  0.42740  Biso   1.000  O
  O159     1.0000 0.85574  0.82350  0.37480  Biso   1.000  O
  O160     1.0000 0.89918  0.79820  0.45030  Biso   1.000  O
  O161     1.0000 0.74169  0.37080  0.35090  Biso   1.000  O
  O162     1.0000 0.78386  0.34090  0.31480  Biso   1.000  O
  O163     1.0000 0.74940  0.25860  0.33450  Biso   1.000  O
  O164     1.0000 0.72320  0.33320  0.27050  Biso   1.000  O
  O165     1.0000 0.86495  0.65990  0.28700  Biso   1.000  O
  O166     1.0000 0.83394  0.75940  0.28680  Biso   1.000  O
  O167     1.0000 0.80301  0.66510  0.24450  Biso   1.000  O
  O168     1.0000 0.84255  0.72460  0.21530  Biso   1.000  O
  O169     1.0000 0.76560  0.41720  0.45750  Biso   1.000  O
  O170     1.0000 0.82663  0.42010  0.50390  Biso   1.000  O
  O171     1.0000 0.78420  0.43940  0.54140  Biso   1.000  O
  O172     1.0000 0.79060  0.33200  0.51420  Biso   1.000  O
  O173     1.0000 0.86427  0.34230  0.37150  Biso   1.000  O
  O174     1.0000 0.88450  0.37980  0.45290  Biso   1.000  O
  O175     1.0000 0.88330  0.26560  0.43460  Biso   1.000  O
  O176     1.0000 0.92440  0.33200  0.41900  Biso   1.000  O
  O177     1.0000 0.92925  0.59050  0.43050  Biso   1.000  O
  O178     1.0000 0.91962  0.51540  0.48710  Biso   1.000  O
  O179     1.0000 0.96160  0.49090  0.45080  Biso   1.000  O
  O180     1.0000 0.97230  0.57820  0.50650  Biso   1.000  O
  O181     1.0000 0.87805  0.43360  0.29920  Biso   1.000  O
  O182     1.0000 0.90890  0.53340  0.32950  Biso   1.000  O
  O183     1.0000 0.92630  0.46450  0.27760  Biso   1.000  O
  O184     1.0000 0.93450  0.42900  0.35730  Biso   1.000  O
  O185     1.0000 0.83466  0.34640  0.01040  Biso   1.000  O
  O186     1.0000 0.86210  0.45160  0.03260  Biso   1.000  O
  O187     1.0000 0.80780  0.42610  0.04620  Biso   1.000  O
  O188     1.0000 0.83080  0.40600  0.07840  Biso   1.000  O
  O189     1.0000 0.86320  0.37300  0.09230  Biso   1.000  O
  O190     1.0000 0.75525  0.35820  0.95570  Biso   1.000  O
  O191     1.0000 0.72430  0.45900  0.92650  Biso   1.000  O
  O192     1.0000 0.69560  0.37070  0.94860  Biso   1.000  O
  O193     1.0000 0.73490  0.42990  0.00480  Biso   1.000  O
  O194     1.0000 0.76340  0.43920  0.01430  Biso   1.000  O
  O195     1.0000 0.99530  0.52570  0.60660  Biso   1.000  O
  O196     1.0000 0.78030  0.57410  0.13350  Biso   1.000  O
  O197     1.0000 0.78150  0.35980  0.10680  Biso   1.000  O
  O198     1.0000 0.82720  0.48040  0.13770  Biso   1.000  O
  O199     1.0000 0.83270  0.43900  0.17190  Biso   1.000  O
  O200     1.0000 0.71380  0.54090  0.05250  Biso   1.000  O
  O201     1.0000 0.72780  0.51350  0.06710  Biso   1.000  O
  O202     1.0000 0.00330  0.40280  0.60070  Biso   1.000  O
  O203     1.0000 0.01100  0.45760  0.67580  Biso   1.000  O
  O204     1.0000 0.95340  0.45510  0.61930  Biso   1.000  O
  Th34     1.0000 0.27281  0.09822  0.28818  Biso   1.000  Th
  Th35     1.0000 0.37317  0.10172  0.36350  Biso   1.000  Th
  Th36     1.0000 0.30378  0.15139  0.42285  Biso   1.000  Th
  Th37     1.0000 0.25614  0.98077  0.38412  Biso   1.000  Th
  Th38     1.0000 0.35668  0.98580  0.46000  Biso   1.000  Th
  Th39     1.0000 0.32576  0.93079  0.32525  Biso   1.000  Th
  Th40     1.0000 0.32055  0.36962  0.29851  Biso   1.000  Th
  Th41     1.0000 0.52162  0.11075  0.57280  Biso   1.000  Th
  Th42     1.0000 0.26728  0.96891  0.08059  Biso   1.000  Th
  Th43     1.0000 0.28993  0.97643  0.09466  Biso   1.000  Th
  Th44     1.0000 0.46592  0.01690  0.24180  Biso   1.000  Th
  S40      1.0000 0.18457  0.02653  0.27061  Biso   1.000  S
  S41      1.0000 0.25456  0.26389  0.32744  Biso   1.000  S
  S42      1.0000 0.26251  0.96315  0.20497  Biso   1.000  S
  S43      1.0000 0.37035  0.27129  0.41028  Biso   1.000  S
  S44      1.0000 0.24958  0.82546  0.31759  Biso   1.000  S
  S45      1.0000 0.33609  0.20214  0.25769  Biso   1.000  S
  S46      1.0000 0.29183  0.90135  0.50398  Biso   1.000  S
  S47      1.0000 0.38906  0.83070  0.41936  Biso   1.000  S
  S48      1.0000 0.44555  0.04347  0.46869  Biso   1.000  S
  S49      1.0000 0.41217  0.96539  0.31597  Biso   1.000  S
  S50      1.0000 0.34514  0.89661  0.04773  Biso   1.000  S
  S51      1.0000 0.22938  0.90492  0.96050  Biso   1.000  S
  S52      1.0000 0.48930  0.96330  0.62440  Biso   1.000  S
  O205     1.0000 0.27805  0.99380  0.32230  Biso   1.000  O
  O206     1.0000 0.31713  0.13470  0.35420  Biso   1.000  O
  O207     1.0000 0.36086  0.99760  0.38530  Biso   1.000  O
  O208     1.0000 0.30364  0.03900  0.43320  Biso   1.000  O
  O209     1.0000 0.32982  0.04310  0.29490  Biso   1.000  O
  O210     1.0000 0.25341  0.09860  0.35900  Biso   1.000  O
  O211     1.0000 0.36336  0.10490  0.44130  Biso   1.000  O
  O212     1.0000 0.31223  0.91800  0.39980  Biso   1.000  O
  O213     1.0000 0.21056  0.06770  0.25960  Biso   1.000  O
  O214     1.0000 0.20021  0.99630  0.31820  Biso   1.000  O
  O215     1.0000 0.17287  0.97380  0.23480  Biso   1.000  O
  O216     1.0000 0.15477  0.06700  0.26950  Biso   1.000  O
  O217     1.0000 0.26419  0.23630  0.37570  Biso   1.000  O
  O218     1.0000 0.28170  0.31190  0.32790  Biso   1.000  O
  O219     1.0000 0.25323  0.21170  0.29300  Biso   1.000  O
  O220     1.0000 0.22075  0.29580  0.31530  Biso   1.000  O
  O221     1.0000 0.26008  0.95150  0.15510  Biso   1.000  O
  O222     1.0000 0.26567  0.03470  0.21380  Biso   1.000  O
  O223     1.0000 0.29390  0.93060  0.23710  Biso   1.000  O
  O224     1.0000 0.23141  0.93870  0.21290  Biso   1.000  O
  O225     1.0000 0.38365  0.21680  0.38890  Biso   1.000  O
  O226     1.0000 0.34279  0.24640  0.42740  Biso   1.000  O
  O227     1.0000 0.35574  0.32350  0.37480  Biso   1.000  O
  O228     1.0000 0.39918  0.29820  0.45030  Biso   1.000  O
  O229     1.0000 0.24169  0.87080  0.35090  Biso   1.000  O
  O230     1.0000 0.28386  0.84090  0.31480  Biso   1.000  O
  O231     1.0000 0.24940  0.75860  0.33450  Biso   1.000  O
  O232     1.0000 0.22320  0.83320  0.27050  Biso   1.000  O
  O233     1.0000 0.36495  0.15990  0.28700  Biso   1.000  O
  O234     1.0000 0.33394  0.25940  0.28680  Biso   1.000  O
  O235     1.0000 0.30301  0.16510  0.24450  Biso   1.000  O
  O236     1.0000 0.34255  0.22460  0.21530  Biso   1.000  O
  O237     1.0000 0.26560  0.91720  0.45750  Biso   1.000  O
  O238     1.0000 0.32663  0.92010  0.50390  Biso   1.000  O
  O239     1.0000 0.28420  0.93940  0.54140  Biso   1.000  O
  O240     1.0000 0.29060  0.83200  0.51420  Biso   1.000  O
  O241     1.0000 0.36427  0.84230  0.37150  Biso   1.000  O
  O242     1.0000 0.38450  0.87980  0.45290  Biso   1.000  O
  O243     1.0000 0.38330  0.76560  0.43460  Biso   1.000  O
  O244     1.0000 0.42440  0.83200  0.41900  Biso   1.000  O
  O245     1.0000 0.42925  0.09050  0.43050  Biso   1.000  O
  O246     1.0000 0.41962  0.01540  0.48710  Biso   1.000  O
  O247     1.0000 0.46160  0.99090  0.45080  Biso   1.000  O
  O248     1.0000 0.47230  0.07820  0.50650  Biso   1.000  O
  O249     1.0000 0.37805  0.93360  0.29920  Biso   1.000  O
  O250     1.0000 0.40890  0.03340  0.32950  Biso   1.000  O
  O251     1.0000 0.42630  0.96450  0.27760  Biso   1.000  O
  O252     1.0000 0.43450  0.92900  0.35730  Biso   1.000  O
  O253     1.0000 0.33466  0.84640  0.01040  Biso   1.000  O
  O254     1.0000 0.36210  0.95160  0.03260  Biso   1.000  O
  O255     1.0000 0.30780  0.92610  0.04620  Biso   1.000  O
  O256     1.0000 0.33080  0.90600  0.07840  Biso   1.000  O
  O257     1.0000 0.36320  0.87300  0.09230  Biso   1.000  O
  O258     1.0000 0.25525  0.85820  0.95570  Biso   1.000  O
  O259     1.0000 0.22430  0.95900  0.92650  Biso   1.000  O
  O260     1.0000 0.19560  0.87070  0.94860  Biso   1.000  O
  O261     1.0000 0.23490  0.92990  0.00480  Biso   1.000  O
  O262     1.0000 0.26340  0.93920  0.01430  Biso   1.000  O
  O263     1.0000 0.49530  0.02570  0.60660  Biso   1.000  O
  O264     1.0000 0.28030  0.07410  0.13350  Biso   1.000  O
  O265     1.0000 0.28150  0.85980  0.10680  Biso   1.000  O
  O266     1.0000 0.32720  0.98040  0.13770  Biso   1.000  O
  O267     1.0000 0.33270  0.93900  0.17190  Biso   1.000  O
  O268     1.0000 0.21380  0.04090  0.05250  Biso   1.000  O
  O269     1.0000 0.22780  0.01350  0.06710  Biso   1.000  O
  O270     1.0000 0.50330  0.90280  0.60070  Biso   1.000  O
  O271     1.0000 0.51100  0.95760  0.67580  Biso   1.000  O
  O272     1.0000 0.45340  0.95510  0.61930  Biso   1.000  O
  Th45     1.0000 0.77281  0.40178  0.78818  Biso   1.000  Th
  Th46     1.0000 0.87317  0.39828  0.86350  Biso   1.000  Th
  Th47     1.0000 0.80378  0.34861  0.92285  Biso   1.000  Th
  Th48     1.0000 0.75614  0.51923  0.88412  Biso   1.000  Th
  Th49     1.0000 0.85668  0.51420  0.96000  Biso   1.000  Th
  Th50     1.0000 0.82576  0.56921  0.82525  Biso   1.000  Th
  Th51     1.0000 0.82055  0.13038  0.79851  Biso   1.000  Th
  Th52     1.0000 0.02162  0.38925  0.07280  Biso   1.000  Th
  Th53     1.0000 0.76728  0.53109  0.58059  Biso   1.000  Th
  Th54     1.0000 0.78993  0.52357  0.59466  Biso   1.000  Th
  Th55     1.0000 0.96592  0.48310  0.74180  Biso   1.000  Th
  S53      1.0000 0.68457  0.47347  0.77061  Biso   1.000  S
  S54      1.0000 0.75456  0.23611  0.82744  Biso   1.000  S
  S55      1.0000 0.76251  0.53685  0.70497  Biso   1.000  S
  S56      1.0000 0.87035  0.22871  0.91028  Biso   1.000  S
  S57      1.0000 0.74958  0.67454  0.81759  Biso   1.000  S
  S58      1.0000 0.83609  0.29786  0.75769  Biso   1.000  S
  S59      1.0000 0.79183  0.59865  0.00398  Biso   1.000  S
  S60      1.0000 0.88906  0.66930  0.91936  Biso   1.000  S
  S61      1.0000 0.94555  0.45653  0.96869  Biso   1.000  S
  S62      1.0000 0.91217  0.53461  0.81597  Biso   1.000  S
  S63      1.0000 0.84514  0.60339  0.54773  Biso   1.000  S
  S64      1.0000 0.72938  0.59508  0.46050  Biso   1.000  S
  S65      1.0000 0.98930  0.53670  0.12440  Biso   1.000  S
  O273     1.0000 0.77805  0.50620  0.82230  Biso   1.000  O
  O274     1.0000 0.81713  0.36530  0.85420  Biso   1.000  O
  O275     1.0000 0.86086  0.50240  0.88530  Biso   1.000  O
  O276     1.0000 0.80364  0.46100  0.93320  Biso   1.000  O
  O277     1.0000 0.82982  0.45690  0.79490  Biso   1.000  O
  O278     1.0000 0.75341  0.40140  0.85900  Biso   1.000  O
  O279     1.0000 0.86336  0.39510  0.94130  Biso   1.000  O
  O280     1.0000 0.81223  0.58200  0.89980  Biso   1.000  O
  O281     1.0000 0.71056  0.43230  0.75960  Biso   1.000  O
  O282     1.0000 0.70021  0.50370  0.81820  Biso   1.000  O
  O283     1.0000 0.67287  0.52620  0.73480  Biso   1.000  O
  O284     1.0000 0.65477  0.43300  0.76950  Biso   1.000  O
  O285     1.0000 0.76419  0.26370  0.87570  Biso   1.000  O
  O286     1.0000 0.78170  0.18810  0.82790  Biso   1.000  O
  O287     1.0000 0.75323  0.28830  0.79300  Biso   1.000  O
  O288     1.0000 0.72075  0.20420  0.81530  Biso   1.000  O
  O289     1.0000 0.76008  0.54850  0.65510  Biso   1.000  O
  O290     1.0000 0.76567  0.46530  0.71380  Biso   1.000  O
  O291     1.0000 0.79390  0.56940  0.73710  Biso   1.000  O
  O292     1.0000 0.73141  0.56130  0.71290  Biso   1.000  O
  O293     1.0000 0.88365  0.28320  0.88890  Biso   1.000  O
  O294     1.0000 0.84279  0.25360  0.92740  Biso   1.000  O
  O295     1.0000 0.85574  0.17650  0.87480  Biso   1.000  O
  O296     1.0000 0.89918  0.20180  0.95030  Biso   1.000  O
  O297     1.0000 0.74169  0.62920  0.85090  Biso   1.000  O
  O298     1.0000 0.78386  0.65910  0.81480  Biso   1.000  O
  O299     1.0000 0.74940  0.74140  0.83450  Biso   1.000  O
  O300     1.0000 0.72320  0.66680  0.77050  Biso   1.000  O
  O301     1.0000 0.86495  0.34010  0.78700  Biso   1.000  O
  O302     1.0000 0.83394  0.24060  0.78680  Biso   1.000  O
  O303     1.0000 0.80301  0.33490  0.74450  Biso   1.000  O
  O304     1.0000 0.84255  0.27540  0.71530  Biso   1.000  O
  O305     1.0000 0.76560  0.58280  0.95750  Biso   1.000  O
  O306     1.0000 0.82663  0.57990  0.00390  Biso   1.000  O
  O307     1.0000 0.78420  0.56060  0.04140  Biso   1.000  O
  O308     1.0000 0.79060  0.66800  0.01420  Biso   1.000  O
  O309     1.0000 0.86427  0.65770  0.87150  Biso   1.000  O
  O310     1.0000 0.88450  0.62020  0.95290  Biso   1.000  O
  O311     1.0000 0.88330  0.73440  0.93460  Biso   1.000  O
  O312     1.0000 0.92440  0.66800  0.91900  Biso   1.000  O
  O313     1.0000 0.92925  0.40950  0.93050  Biso   1.000  O
  O314     1.0000 0.91962  0.48460  0.98710  Biso   1.000  O
  O315     1.0000 0.96160  0.50910  0.95080  Biso   1.000  O
  O316     1.0000 0.97230  0.42180  0.00650  Biso   1.000  O
  O317     1.0000 0.87805  0.56640  0.79920  Biso   1.000  O
  O318     1.0000 0.90890  0.46660  0.82950  Biso   1.000  O
  O319     1.0000 0.92630  0.53550  0.77760  Biso   1.000  O
  O320     1.0000 0.93450  0.57100  0.85730  Biso   1.000  O
  O321     1.0000 0.83466  0.65360  0.51040  Biso   1.000  O
  O322     1.0000 0.86210  0.54840  0.53260  Biso   1.000  O
  O323     1.0000 0.80780  0.57390  0.54620  Biso   1.000  O
  O324     1.0000 0.83080  0.59400  0.57840  Biso   1.000  O
  O325     1.0000 0.86320  0.62700  0.59230  Biso   1.000  O
  O326     1.0000 0.75525  0.64180  0.45570  Biso   1.000  O
  O327     1.0000 0.72430  0.54100  0.42650  Biso   1.000  O
  O328     1.0000 0.69560  0.62930  0.44860  Biso   1.000  O
  O329     1.0000 0.73490  0.57010  0.50480  Biso   1.000  O
  O330     1.0000 0.76340  0.56080  0.51430  Biso   1.000  O
  O331     1.0000 0.99530  0.47430  0.10660  Biso   1.000  O
  O332     1.0000 0.78030  0.42590  0.63350  Biso   1.000  O
  O333     1.0000 0.78150  0.64020  0.60680  Biso   1.000  O
  O334     1.0000 0.82720  0.51960  0.63770  Biso   1.000  O
  O335     1.0000 0.83270  0.56100  0.67190  Biso   1.000  O
  O336     1.0000 0.71380  0.45910  0.55250  Biso   1.000  O
  O337     1.0000 0.72780  0.48650  0.56710  Biso   1.000  O
  O338     1.0000 0.00330  0.59720  0.10070  Biso   1.000  O
  O339     1.0000 0.01100  0.54240  0.17580  Biso   1.000  O
  O340     1.0000 0.95340  0.54490  0.11930  Biso   1.000  O
  Th56     1.0000 0.27281  0.90178  0.78818  Biso   1.000  Th
  Th57     1.0000 0.37317  0.89828  0.86350  Biso   1.000  Th
  Th58     1.0000 0.30378  0.84861  0.92285  Biso   1.000  Th
  Th59     1.0000 0.25614  0.01923  0.88412  Biso   1.000  Th
  Th60     1.0000 0.35668  0.01420  0.96000  Biso   1.000  Th
  Th61     1.0000 0.32576  0.06921  0.82525  Biso   1.000  Th
  Th62     1.0000 0.32055  0.63038  0.79851  Biso   1.000  Th
  Th63     1.0000 0.52162  0.88925  0.07280  Biso   1.000  Th
  Th64     1.0000 0.26728  0.03109  0.58059  Biso   1.000  Th
  Th65     1.0000 0.28993  0.02357  0.59466  Biso   1.000  Th
  Th66     1.0000 0.46592  0.98310  0.74180  Biso   1.000  Th
  S66      1.0000 0.18457  0.97347  0.77061  Biso   1.000  S
  S67      1.0000 0.25456  0.73611  0.82744  Biso   1.000  S
  S68      1.0000 0.26251  0.03685  0.70497  Biso   1.000  S
  S69      1.0000 0.37035  0.72871  0.91028  Biso   1.000  S
  S70      1.0000 0.24958  0.17454  0.81759  Biso   1.000  S
  S71      1.0000 0.33609  0.79786  0.75769  Biso   1.000  S
  S72      1.0000 0.29183  0.09865  0.00398  Biso   1.000  S
  S73      1.0000 0.38906  0.16930  0.91936  Biso   1.000  S
  S74      1.0000 0.44555  0.95653  0.96869  Biso   1.000  S
  S75      1.0000 0.41217  0.03461  0.81597  Biso   1.000  S
  S76      1.0000 0.34514  0.10339  0.54773  Biso   1.000  S
  S77      1.0000 0.22938  0.09508  0.46050  Biso   1.000  S
  S78      1.0000 0.48930  0.03670  0.12440  Biso   1.000  S
  O341     1.0000 0.27805  0.00620  0.82230  Biso   1.000  O
  O342     1.0000 0.31713  0.86530  0.85420  Biso   1.000  O
  O343     1.0000 0.36086  0.00240  0.88530  Biso   1.000  O
  O344     1.0000 0.30364  0.96100  0.93320  Biso   1.000  O
  O345     1.0000 0.32982  0.95690  0.79490  Biso   1.000  O
  O346     1.0000 0.25341  0.90140  0.85900  Biso   1.000  O
  O347     1.0000 0.36336  0.89510  0.94130  Biso   1.000  O
  O348     1.0000 0.31223  0.08200  0.89980  Biso   1.000  O
  O349     1.0000 0.21056  0.93230  0.75960  Biso   1.000  O
  O350     1.0000 0.20021  0.00370  0.81820  Biso   1.000  O
  O351     1.0000 0.17287  0.02620  0.73480  Biso   1.000  O
  O352     1.0000 0.15477  0.93300  0.76950  Biso   1.000  O
  O353     1.0000 0.26419  0.76370  0.87570  Biso   1.000  O
  O354     1.0000 0.28170  0.68810  0.82790  Biso   1.000  O
  O355     1.0000 0.25323  0.78830  0.79300  Biso   1.000  O
  O356     1.0000 0.22075  0.70420  0.81530  Biso   1.000  O
  O357     1.0000 0.26008  0.04850  0.65510  Biso   1.000  O
  O358     1.0000 0.26567  0.96530  0.71380  Biso   1.000  O
  O359     1.0000 0.29390  0.06940  0.73710  Biso   1.000  O
  O360     1.0000 0.23141  0.06130  0.71290  Biso   1.000  O
  O361     1.0000 0.38365  0.78320  0.88890  Biso   1.000  O
  O362     1.0000 0.34279  0.75360  0.92740  Biso   1.000  O
  O363     1.0000 0.35574  0.67650  0.87480  Biso   1.000  O
  O364     1.0000 0.39918  0.70180  0.95030  Biso   1.000  O
  O365     1.0000 0.24169  0.12920  0.85090  Biso   1.000  O
  O366     1.0000 0.28386  0.15910  0.81480  Biso   1.000  O
  O367     1.0000 0.24940  0.24140  0.83450  Biso   1.000  O
  O368     1.0000 0.22320  0.16680  0.77050  Biso   1.000  O
  O369     1.0000 0.36495  0.84010  0.78700  Biso   1.000  O
  O370     1.0000 0.33394  0.74060  0.78680  Biso   1.000  O
  O371     1.0000 0.30301  0.83490  0.74450  Biso   1.000  O
  O372     1.0000 0.34255  0.77540  0.71530  Biso   1.000  O
  O373     1.0000 0.26560  0.08280  0.95750  Biso   1.000  O
  O374     1.0000 0.32663  0.07990  0.00390  Biso   1.000  O
  O375     1.0000 0.28420  0.06060  0.04140  Biso   1.000  O
  O376     1.0000 0.29060  0.16800  0.01420  Biso   1.000  O
  O377     1.0000 0.36427  0.15770  0.87150  Biso   1.000  O
  O378     1.0000 0.38450  0.12020  0.95290  Biso   1.000  O
  O379     1.0000 0.38330  0.23440  0.93460  Biso   1.000  O
  O380     1.0000 0.42440  0.16800  0.91900  Biso   1.000  O
  O381     1.0000 0.42925  0.90950  0.93050  Biso   1.000  O
  O382     1.0000 0.41962  0.98460  0.98710  Biso   1.000  O
  O383     1.0000 0.46160  0.00910  0.95080  Biso   1.000  O
  O384     1.0000 0.47230  0.92180  0.00650  Biso   1.000  O
  O385     1.0000 0.37805  0.06640  0.79920  Biso   1.000  O
  O386     1.0000 0.40890  0.96660  0.82950  Biso   1.000  O
  O387     1.0000 0.42630  0.03550  0.77760  Biso   1.000  O
  O388     1.0000 0.43450  0.07100  0.85730  Biso   1.000  O
  O389     1.0000 0.33466  0.15360  0.51040  Biso   1.000  O
  O390     1.0000 0.36210  0.04840  0.53260  Biso   1.000  O
  O391     1.0000 0.30780  0.07390  0.54620  Biso   1.000  O
  O392     1.0000 0.33080  0.09400  0.57840  Biso   1.000  O
  O393     1.0000 0.36320  0.12700  0.59230  Biso   1.000  O
  O394     1.0000 0.25525  0.14180  0.45570  Biso   1.000  O
  O395     1.0000 0.22430  0.04100  0.42650  Biso   1.000  O
  O396     1.0000 0.19560  0.12930  0.44860  Biso   1.000  O
  O397     1.0000 0.23490  0.07010  0.50480  Biso   1.000  O
  O398     1.0000 0.26340  0.06080  0.51430  Biso   1.000  O
  O399     1.0000 0.49530  0.97430  0.10660  Biso   1.000  O
  O400     1.0000 0.28030  0.92590  0.63350  Biso   1.000  O
  O401     1.0000 0.28150  0.14020  0.60680  Biso   1.000  O
  O402     1.0000 0.32720  0.01960  0.63770  Biso   1.000  O
  O403     1.0000 0.33270  0.06100  0.67190  Biso   1.000  O
  O404     1.0000 0.21380  0.95910  0.55250  Biso   1.000  O
  O405     1.0000 0.22780  0.98650  0.56710  Biso   1.000  O
  O406     1.0000 0.50330  0.09720  0.10070  Biso   1.000  O
  O407     1.0000 0.51100  0.04240  0.17580  Biso   1.000  O
  O408     1.0000 0.45340  0.04490  0.11930  Biso   1.000  O
  Th67     1.0000 0.22719  0.40178  0.71182  Biso   1.000  Th
  Th68     1.0000 0.12683  0.39828  0.63650  Biso   1.000  Th
  Th69     1.0000 0.19622  0.34861  0.57715  Biso   1.000  Th
  Th70     1.0000 0.24386  0.51923  0.61588  Biso   1.000  Th
  Th71     1.0000 0.14332  0.51420  0.54000  Biso   1.000  Th
  Th72     1.0000 0.17424  0.56921  0.67475  Biso   1.000  Th
  Th73     1.0000 0.17945  0.13038  0.70149  Biso   1.000  Th
  Th74     1.0000 0.97838  0.38925  0.42720  Biso   1.000  Th
  Th75     1.0000 0.23272  0.53109  0.91941  Biso   1.000  Th
  Th76     1.0000 0.21007  0.52357  0.90534  Biso   1.000  Th
  Th77     1.0000 0.03408  0.48310  0.75820  Biso   1.000  Th
  S79      1.0000 0.31543  0.47347  0.72939  Biso   1.000  S
  S80      1.0000 0.24544  0.23611  0.67256  Biso   1.000  S
  S81      1.0000 0.23749  0.53685  0.79503  Biso   1.000  S
  S82      1.0000 0.12965  0.22871  0.58972  Biso   1.000  S
  S83      1.0000 0.25042  0.67454  0.68241  Biso   1.000  S
  S84      1.0000 0.16391  0.29786  0.74231  Biso   1.000  S
  S85      1.0000 0.20817  0.59865  0.49602  Biso   1.000  S
  S86      1.0000 0.11094  0.66930  0.58064  Biso   1.000  S
  S87      1.0000 0.05445  0.45653  0.53131  Biso   1.000  S
  S88      1.0000 0.08783  0.53461  0.68403  Biso   1.000  S
  S89      1.0000 0.15486  0.60339  0.95227  Biso   1.000  S
  S90      1.0000 0.27062  0.59508  0.03950  Biso   1.000  S
  S91      1.0000 0.01070  0.53670  0.37560  Biso   1.000  S
  O409     1.0000 0.22195  0.50620  0.67770  Biso   1.000  O
  O410     1.0000 0.18287  0.36530  0.64580  Biso   1.000  O
  O411     1.0000 0.13914  0.50240  0.61470  Biso   1.000  O
  O412     1.0000 0.19636  0.46100  0.56680  Biso   1.000  O
  O413     1.0000 0.17018  0.45690  0.70510  Biso   1.000  O
  O414     1.0000 0.24659  0.40140  0.64100  Biso   1.000  O
  O415     1.0000 0.13664  0.39510  0.55870  Biso   1.000  O
  O416     1.0000 0.18777  0.58200  0.60020  Biso   1.000  O
  O417     1.0000 0.28944  0.43230  0.74040  Biso   1.000  O
  O418     1.0000 0.29979  0.50370  0.68180  Biso   1.000  O
  O419     1.0000 0.32713  0.52620  0.76520  Biso   1.000  O
  O420     1.0000 0.34523  0.43300  0.73050  Biso   1.000  O
  O421     1.0000 0.23581  0.26370  0.62430  Biso   1.000  O
  O422     1.0000 0.21830  0.18810  0.67210  Biso   1.000  O
  O423     1.0000 0.24677  0.28830  0.70700  Biso   1.000  O
  O424     1.0000 0.27925  0.20420  0.68470  Biso   1.000  O
  O425     1.0000 0.23992  0.54850  0.84490  Biso   1.000  O
  O426     1.0000 0.23433  0.46530  0.78620  Biso   1.000  O
  O427     1.0000 0.20610  0.56940  0.76290  Biso   1.000  O
  O428     1.0000 0.26859  0.56130  0.78710  Biso   1.000  O
  O429     1.0000 0.11635  0.28320  0.61110  Biso   1.000  O
  O430     1.0000 0.15721  0.25360  0.57260  Biso   1.000  O
  O431     1.0000 0.14426  0.17650  0.62520  Biso   1.000  O
  O432     1.0000 0.10082  0.20180  0.54970  Biso   1.000  O
  O433     1.0000 0.25831  0.62920  0.64910  Biso   1.000  O
  O434     1.0000 0.21614  0.65910  0.68520  Biso   1.000  O
  O435     1.0000 0.25060  0.74140  0.66550  Biso   1.000  O
  O436     1.0000 0.27680  0.66680  0.72950  Biso   1.000  O
  O437     1.0000 0.13505  0.34010  0.71300  Biso   1.000  O
  O438     1.0000 0.16606  0.24060  0.71320  Biso   1.000  O
  O439     1.0000 0.19699  0.33490  0.75550  Biso   1.000  O
  O440     1.0000 0.15745  0.27540  0.78470  Biso   1.000  O
  O441     1.0000 0.23440  0.58280  0.54250  Biso   1.000  O
  O442     1.0000 0.17337  0.57990  0.49610  Biso   1.000  O
  O443     1.0000 0.21580  0.56060  0.45860  Biso   1.000  O
  O444     1.0000 0.20940  0.66800  0.48580  Biso   1.000  O
  O445     1.0000 0.13573  0.65770  0.62850  Biso   1.000  O
  O446     1.0000 0.11550  0.62020  0.54710  Biso   1.000  O
  O447     1.0000 0.11670  0.73440  0.56540  Biso   1.000  O
  O448     1.0000 0.07560  0.66800  0.58100  Biso   1.000  O
  O449     1.0000 0.07075  0.40950  0.56950  Biso   1.000  O
  O450     1.0000 0.08038  0.48460  0.51290  Biso   1.000  O
  O451     1.0000 0.03840  0.50910  0.54920  Biso   1.000  O
  O452     1.0000 0.02770  0.42180  0.49350  Biso   1.000  O
  O453     1.0000 0.12195  0.56640  0.70080  Biso   1.000  O
  O454     1.0000 0.09110  0.46660  0.67050  Biso   1.000  O
  O455     1.0000 0.07370  0.53550  0.72240  Biso   1.000  O
  O456     1.0000 0.06550  0.57100  0.64270  Biso   1.000  O
  O457     1.0000 0.16534  0.65360  0.98960  Biso   1.000  O
  O458     1.0000 0.13790  0.54840  0.96740  Biso   1.000  O
  O459     1.0000 0.19220  0.57390  0.95380  Biso   1.000  O
  O460     1.0000 0.16920  0.59400  0.92160  Biso   1.000  O
  O461     1.0000 0.13680  0.62700  0.90770  Biso   1.000  O
  O462     1.0000 0.24475  0.64180  0.04430  Biso   1.000  O
  O463     1.0000 0.27570  0.54100  0.07350  Biso   1.000  O
  O464     1.0000 0.30440  0.62930  0.05140  Biso   1.000  O
  O465     1.0000 0.26510  0.57010  0.99520  Biso   1.000  O
  O466     1.0000 0.23660  0.56080  0.98570  Biso   1.000  O
  O467     1.0000 0.00470  0.47430  0.39340  Biso   1.000  O
  O468     1.0000 0.21970  0.42590  0.86650  Biso   1.000  O
  O469     1.0000 0.21850  0.64020  0.89320  Biso   1.000  O
  O470     1.0000 0.17280  0.51960  0.86230  Biso   1.000  O
  O471     1.0000 0.16730  0.56100  0.82810  Biso   1.000  O
  O472     1.0000 0.28620  0.45910  0.94750  Biso   1.000  O
  O473     1.0000 0.27220  0.48650  0.93290  Biso   1.000  O
  O474     1.0000 0.99670  0.59720  0.39930  Biso   1.000  O
  O475     1.0000 0.98900  0.54240  0.32420  Biso   1.000  O
  O476     1.0000 0.04660  0.54490  0.38070  Biso   1.000  O
  Th78     1.0000 0.72719  0.90178  0.71182  Biso   1.000  Th
  Th79     1.0000 0.62683  0.89828  0.63650  Biso   1.000  Th
  Th80     1.0000 0.69622  0.84861  0.57715  Biso   1.000  Th
  Th81     1.0000 0.74386  0.01923  0.61588  Biso   1.000  Th
  Th82     1.0000 0.64332  0.01420  0.54000  Biso   1.000  Th
  Th83     1.0000 0.67424  0.06921  0.67475  Biso   1.000  Th
  Th84     1.0000 0.67945  0.63038  0.70149  Biso   1.000  Th
  Th85     1.0000 0.47838  0.88925  0.42720  Biso   1.000  Th
  Th86     1.0000 0.73272  0.03109  0.91941  Biso   1.000  Th
  Th87     1.0000 0.71007  0.02357  0.90534  Biso   1.000  Th
  Th88     1.0000 0.53408  0.98310  0.75820  Biso   1.000  Th
  S92      1.0000 0.81543  0.97347  0.72939  Biso   1.000  S
  S93      1.0000 0.74544  0.73611  0.67256  Biso   1.000  S
  S94      1.0000 0.73749  0.03685  0.79503  Biso   1.000  S
  S95      1.0000 0.62965  0.72871  0.58972  Biso   1.000  S
  S96      1.0000 0.75042  0.17454  0.68241  Biso   1.000  S
  S97      1.0000 0.66391  0.79786  0.74231  Biso   1.000  S
  S98      1.0000 0.70817  0.09865  0.49602  Biso   1.000  S
  S99      1.0000 0.61094  0.16930  0.58064  Biso   1.000  S
  S100     1.0000 0.55445  0.95653  0.53131  Biso   1.000  S
  S101     1.0000 0.58783  0.03461  0.68403  Biso   1.000  S
  S102     1.0000 0.65486  0.10339  0.95227  Biso   1.000  S
  S103     1.0000 0.77062  0.09508  0.03950  Biso   1.000  S
  S104     1.0000 0.51070  0.03670  0.37560  Biso   1.000  S
  O477     1.0000 0.72195  0.00620  0.67770  Biso   1.000  O
  O478     1.0000 0.68287  0.86530  0.64580  Biso   1.000  O
  O479     1.0000 0.63914  0.00240  0.61470  Biso   1.000  O
  O480     1.0000 0.69636  0.96100  0.56680  Biso   1.000  O
  O481     1.0000 0.67018  0.95690  0.70510  Biso   1.000  O
  O482     1.0000 0.74659  0.90140  0.64100  Biso   1.000  O
  O483     1.0000 0.63664  0.89510  0.55870  Biso   1.000  O
  O484     1.0000 0.68777  0.08200  0.60020  Biso   1.000  O
  O485     1.0000 0.78944  0.93230  0.74040  Biso   1.000  O
  O486     1.0000 0.79979  0.00370  0.68180  Biso   1.000  O
  O487     1.0000 0.82713  0.02620  0.76520  Biso   1.000  O
  O488     1.0000 0.84523  0.93300  0.73050  Biso   1.000  O
  O489     1.0000 0.73581  0.76370  0.62430  Biso   1.000  O
  O490     1.0000 0.71830  0.68810  0.67210  Biso   1.000  O
  O491     1.0000 0.74677  0.78830  0.70700  Biso   1.000  O
  O492     1.0000 0.77925  0.70420  0.68470  Biso   1.000  O
  O493     1.0000 0.73992  0.04850  0.84490  Biso   1.000  O
  O494     1.0000 0.73433  0.96530  0.78620  Biso   1.000  O
  O495     1.0000 0.70610  0.06940  0.76290  Biso   1.000  O
  O496     1.0000 0.76859  0.06130  0.78710  Biso   1.000  O
  O497     1.0000 0.61635  0.78320  0.61110  Biso   1.000  O
  O498     1.0000 0.65721  0.75360  0.57260  Biso   1.000  O
  O499     1.0000 0.64426  0.67650  0.62520  Biso   1.000  O
  O500     1.0000 0.60082  0.70180  0.54970  Biso   1.000  O
  O501     1.0000 0.75831  0.12920  0.64910  Biso   1.000  O
  O502     1.0000 0.71614  0.15910  0.68520  Biso   1.000  O
  O503     1.0000 0.75060  0.24140  0.66550  Biso   1.000  O
  O504     1.0000 0.77680  0.16680  0.72950  Biso   1.000  O
  O505     1.0000 0.63505  0.84010  0.71300  Biso   1.000  O
  O506     1.0000 0.66606  0.74060  0.71320  Biso   1.000  O
  O507     1.0000 0.69699  0.83490  0.75550  Biso   1.000  O
  O508     1.0000 0.65745  0.77540  0.78470  Biso   1.000  O
  O509     1.0000 0.73440  0.08280  0.54250  Biso   1.000  O
  O510     1.0000 0.67337  0.07990  0.49610  Biso   1.000  O
  O511     1.0000 0.71580  0.06060  0.45860  Biso   1.000  O
  O512     1.0000 0.70940  0.16800  0.48580  Biso   1.000  O
  O513     1.0000 0.63573  0.15770  0.62850  Biso   1.000  O
  O514     1.0000 0.61550  0.12020  0.54710  Biso   1.000  O
  O515     1.0000 0.61670  0.23440  0.56540  Biso   1.000  O
  O516     1.0000 0.57560  0.16800  0.58100  Biso   1.000  O
  O517     1.0000 0.57075  0.90950  0.56950  Biso   1.000  O
  O518     1.0000 0.58038  0.98460  0.51290  Biso   1.000  O
  O519     1.0000 0.53840  0.00910  0.54920  Biso   1.000  O
  O520     1.0000 0.52770  0.92180  0.49350  Biso   1.000  O
  O521     1.0000 0.62195  0.06640  0.70080  Biso   1.000  O
  O522     1.0000 0.59110  0.96660  0.67050  Biso   1.000  O
  O523     1.0000 0.57370  0.03550  0.72240  Biso   1.000  O
  O524     1.0000 0.56550  0.07100  0.64270  Biso   1.000  O
  O525     1.0000 0.66534  0.15360  0.98960  Biso   1.000  O
  O526     1.0000 0.63790  0.04840  0.96740  Biso   1.000  O
  O527     1.0000 0.69220  0.07390  0.95380  Biso   1.000  O
  O528     1.0000 0.66920  0.09400  0.92160  Biso   1.000  O
  O529     1.0000 0.63680  0.12700  0.90770  Biso   1.000  O
  O530     1.0000 0.74475  0.14180  0.04430  Biso   1.000  O
  O531     1.0000 0.77570  0.04100  0.07350  Biso   1.000  O
  O532     1.0000 0.80440  0.12930  0.05140  Biso   1.000  O
  O533     1.0000 0.76510  0.07010  0.99520  Biso   1.000  O
  O534     1.0000 0.73660  0.06080  0.98570  Biso   1.000  O
  O535     1.0000 0.50470  0.97430  0.39340  Biso   1.000  O
  O536     1.0000 0.71970  0.92590  0.86650  Biso   1.000  O
  O537     1.0000 0.71850  0.14020  0.89320  Biso   1.000  O
  O538     1.0000 0.67280  0.01960  0.86230  Biso   1.000  O
  O539     1.0000 0.66730  0.06100  0.82810  Biso   1.000  O
  O540     1.0000 0.78620  0.95910  0.94750  Biso   1.000  O
  O541     1.0000 0.77220  0.98650  0.93290  Biso   1.000  O
  O542     1.0000 0.49670  0.09720  0.39930  Biso   1.000  O
  O543     1.0000 0.48900  0.04240  0.32420  Biso   1.000  O
  O544     1.0000 0.54660  0.04490  0.38070  Biso   1.000  O
  O545     1.0000 0.00000  0.62130  0.25000  Biso   1.000  O
  O546     1.0000 0.50000  0.12130  0.25000  Biso   1.000  O
  O547     1.0000 0.00000  0.37870  0.75000  Biso   1.000  O
  O548     1.0000 0.50000  0.87870  0.75000  Biso   1.000  O
