data_image0
_cell_length_a       29.0261
_cell_length_b       29.0261
_cell_length_c       29.0261
_cell_angle_alpha    90
_cell_angle_beta     90
_cell_angle_gamma    90

_symmetry_space_group_name_H-M    "P 1"
_symmetry_int_tables_number       1

loop_
  _symmetry_equiv_pos_as_xyz
  'x, y, z'

loop_
  _atom_site_label
  _atom_site_occupancy
  _atom_site_fract_x
  _atom_site_fract_y
  _atom_site_fract_z
  _atom_site_thermal_displace_type
  _atom_site_B_iso_or_equiv
  _atom_site_type_symbol
  O1       1.0000 0.26940  0.33040  0.45340  Biso   1.000  O
  O2       1.0000 0.21220  0.27640  0.45610  Biso   1.000  O
  O3       1.0000 0.26640  0.45240  0.33760  Biso   1.000  O
  O4       1.0000 0.21070  0.45010  0.28010  Biso   1.000  O
  C1       1.0000 0.23550  0.30830  0.43670  Biso   1.000  C
  C2       1.0000 0.23190  0.43590  0.31590  Biso   1.000  C
  C3       1.0000 0.21070  0.33110  0.39430  Biso   1.000  C
  C4       1.0000 0.17300  0.31100  0.37270  Biso   1.000  C
  H1       1.0000 0.16130  0.28240  0.38350  Biso   1.000  H
  C5       1.0000 0.15240  0.33270  0.33530  Biso   1.000  C
  C6       1.0000 0.16940  0.37450  0.31950  Biso   1.000  C
  H2       1.0000 0.15540  0.38930  0.29400  Biso   1.000  H
  C7       1.0000 0.20720  0.39470  0.34110  Biso   1.000  C
  C8       1.0000 0.22780  0.37300  0.37850  Biso   1.000  C
  H3       1.0000 0.25350  0.38670  0.39320  Biso   1.000  H
  C9       1.0000 0.04380  0.26000  0.26090  Biso   1.000  C
  C10      1.0000 0.07450  0.23590  0.28870  Biso   1.000  C
  H4       1.0000 0.07120  0.20350  0.29240  Biso   1.000  H
  C11      1.0000 0.10990  0.25910  0.31100  Biso   1.000  C
  H5       1.0000 0.13080  0.24270  0.33000  Biso   1.000  H
  C12      1.0000 0.11460  0.30650  0.30550  Biso   1.000  C
  C13      1.0000 0.08400  0.33060  0.27770  Biso   1.000  C
  H6       1.0000 0.08720  0.36290  0.27390  Biso   1.000  H
  C14      1.0000 0.04860  0.30730  0.25540  Biso   1.000  C
  H7       1.0000 0.02760  0.32380  0.23640  Biso   1.000  H
  O5       1.0000 0.00030  0.19200  0.24680  Biso   1.000  O
  H8       1.0000 0.00070  0.18810  0.27840  Biso   1.000  H
  C15      1.0000 0.99990  0.24990  0.18870  Biso   1.000  C
  H9       1.0000 0.01080  0.28200  0.18240  Biso   1.000  H
  N1       1.0000 0.03020  0.21620  0.16550  Biso   1.000  N
  H10      1.0000 0.05740  0.23030  0.15780  Biso   1.000  H
  C16      1.0000 0.95060  0.24320  0.16980  Biso   1.000  C
  H11      1.0000 0.93520  0.27330  0.16520  Biso   1.000  H
  H12      1.0000 0.93190  0.22450  0.19140  Biso   1.000  H
  C17      1.0000 0.00650  0.20030  0.12330  Biso   1.000  C
  H13      1.0000 0.00680  0.16620  0.12210  Biso   1.000  H
  H14      1.0000 0.02290  0.21210  0.09580  Biso   1.000  H
  C18      1.0000 0.95640  0.21800  0.12320  Biso   1.000  C
  H15      1.0000 0.93450  0.19180  0.12080  Biso   1.000  H
  H16      1.0000 0.95110  0.23910  0.09710  Biso   1.000  H
  O6       1.0000 0.73060  0.66960  0.45340  Biso   1.000  O
  O7       1.0000 0.78780  0.72360  0.45610  Biso   1.000  O
  O8       1.0000 0.73360  0.54760  0.33760  Biso   1.000  O
  O9       1.0000 0.78930  0.54990  0.28010  Biso   1.000  O
  C19      1.0000 0.76450  0.69170  0.43670  Biso   1.000  C
  C20      1.0000 0.76810  0.56410  0.31590  Biso   1.000  C
  C21      1.0000 0.78930  0.66890  0.39430  Biso   1.000  C
  C22      1.0000 0.82700  0.68900  0.37270  Biso   1.000  C
  H17      1.0000 0.83870  0.71760  0.38350  Biso   1.000  H
  C23      1.0000 0.84760  0.66730  0.33530  Biso   1.000  C
  C24      1.0000 0.83060  0.62550  0.31950  Biso   1.000  C
  H18      1.0000 0.84460  0.61070  0.29400  Biso   1.000  H
  C25      1.0000 0.79280  0.60530  0.34110  Biso   1.000  C
  C26      1.0000 0.77220  0.62700  0.37850  Biso   1.000  C
  H19      1.0000 0.74650  0.61330  0.39320  Biso   1.000  H
  C27      1.0000 0.95620  0.74000  0.26090  Biso   1.000  C
  C28      1.0000 0.92550  0.76410  0.28870  Biso   1.000  C
  H20      1.0000 0.92880  0.79650  0.29240  Biso   1.000  H
  C29      1.0000 0.89010  0.74090  0.31100  Biso   1.000  C
  H21      1.0000 0.86920  0.75730  0.33000  Biso   1.000  H
  C30      1.0000 0.88540  0.69350  0.30550  Biso   1.000  C
  C31      1.0000 0.91600  0.66940  0.27770  Biso   1.000  C
  H22      1.0000 0.91280  0.63710  0.27390  Biso   1.000  H
  C32      1.0000 0.95140  0.69270  0.25540  Biso   1.000  C
  H23      1.0000 0.97240  0.67620  0.23640  Biso   1.000  H
  O10      1.0000 0.99970  0.80800  0.24680  Biso   1.000  O
  H24      1.0000 0.99930  0.81190  0.27840  Biso   1.000  H
  C33      1.0000 0.00010  0.75010  0.18870  Biso   1.000  C
  H25      1.0000 0.98920  0.71800  0.18240  Biso   1.000  H
  N2       1.0000 0.96980  0.78380  0.16550  Biso   1.000  N
  H26      1.0000 0.94260  0.76970  0.15780  Biso   1.000  H
  C34      1.0000 0.04940  0.75680  0.16980  Biso   1.000  C
  H27      1.0000 0.06480  0.72670  0.16520  Biso   1.000  H
  H28      1.0000 0.06810  0.77550  0.19140  Biso   1.000  H
  C35      1.0000 0.99350  0.79970  0.12330  Biso   1.000  C
  H29      1.0000 0.99320  0.83380  0.12210  Biso   1.000  H
  H30      1.0000 0.97710  0.78790  0.09580  Biso   1.000  H
  C36      1.0000 0.04360  0.78200  0.12320  Biso   1.000  C
  H31      1.0000 0.06550  0.80820  0.12080  Biso   1.000  H
  H32      1.0000 0.04890  0.76090  0.09710  Biso   1.000  H
  O11      1.0000 0.73060  0.33040  0.54660  Biso   1.000  O
  O12      1.0000 0.78780  0.27640  0.54390  Biso   1.000  O
  O13      1.0000 0.73360  0.45240  0.66240  Biso   1.000  O
  O14      1.0000 0.78930  0.45010  0.71990  Biso   1.000  O
  C37      1.0000 0.76450  0.30830  0.56330  Biso   1.000  C
  C38      1.0000 0.76810  0.43590  0.68410  Biso   1.000  C
  C39      1.0000 0.78930  0.33110  0.60570  Biso   1.000  C
  C40      1.0000 0.82700  0.31100  0.62730  Biso   1.000  C
  H33      1.0000 0.83870  0.28240  0.61650  Biso   1.000  H
  C41      1.0000 0.84760  0.33270  0.66470  Biso   1.000  C
  C42      1.0000 0.83060  0.37450  0.68050  Biso   1.000  C
  H34      1.0000 0.84460  0.38930  0.70600  Biso   1.000  H
  C43      1.0000 0.79280  0.39470  0.65890  Biso   1.000  C
  C44      1.0000 0.77220  0.37300  0.62150  Biso   1.000  C
  H35      1.0000 0.74650  0.38670  0.60680  Biso   1.000  H
  C45      1.0000 0.95620  0.26000  0.73910  Biso   1.000  C
  C46      1.0000 0.92550  0.23590  0.71130  Biso   1.000  C
  H36      1.0000 0.92880  0.20350  0.70760  Biso   1.000  H
  C47      1.0000 0.89010  0.25910  0.68900  Biso   1.000  C
  H37      1.0000 0.86920  0.24270  0.67000  Biso   1.000  H
  C48      1.0000 0.88540  0.30650  0.69450  Biso   1.000  C
  C49      1.0000 0.91600  0.33060  0.72230  Biso   1.000  C
  H38      1.0000 0.91280  0.36290  0.72610  Biso   1.000  H
  C50      1.0000 0.95140  0.30730  0.74460  Biso   1.000  C
  H39      1.0000 0.97240  0.32380  0.76360  Biso   1.000  H
  O15      1.0000 0.99970  0.19200  0.75320  Biso   1.000  O
  H40      1.0000 0.99930  0.18810  0.72160  Biso   1.000  H
  C51      1.0000 0.00010  0.24990  0.81130  Biso   1.000  C
  H41      1.0000 0.98920  0.28200  0.81760  Biso   1.000  H
  N3       1.0000 0.96980  0.21620  0.83450  Biso   1.000  N
  H42      1.0000 0.94260  0.23030  0.84220  Biso   1.000  H
  C52      1.0000 0.04940  0.24320  0.83020  Biso   1.000  C
  H43      1.0000 0.06480  0.27330  0.83480  Biso   1.000  H
  H44      1.0000 0.06810  0.22450  0.80860  Biso   1.000  H
  C53      1.0000 0.99350  0.20030  0.87670  Biso   1.000  C
  H45      1.0000 0.99320  0.16620  0.87790  Biso   1.000  H
  H46      1.0000 0.97710  0.21210  0.90420  Biso   1.000  H
  C54      1.0000 0.04360  0.21800  0.87680  Biso   1.000  C
  H47      1.0000 0.06550  0.19180  0.87920  Biso   1.000  H
  H48      1.0000 0.04890  0.23910  0.90290  Biso   1.000  H
  O16      1.0000 0.26940  0.66960  0.54660  Biso   1.000  O
  O17      1.0000 0.21220  0.72360  0.54390  Biso   1.000  O
  O18      1.0000 0.26640  0.54760  0.66240  Biso   1.000  O
  O19      1.0000 0.21070  0.54990  0.71990  Biso   1.000  O
  C55      1.0000 0.23550  0.69170  0.56330  Biso   1.000  C
  C56      1.0000 0.23190  0.56410  0.68410  Biso   1.000  C
  C57      1.0000 0.21070  0.66890  0.60570  Biso   1.000  C
  C58      1.0000 0.17300  0.68900  0.62730  Biso   1.000  C
  H49      1.0000 0.16130  0.71760  0.61650  Biso   1.000  H
  C59      1.0000 0.15240  0.66730  0.66470  Biso   1.000  C
  C60      1.0000 0.16940  0.62550  0.68050  Biso   1.000  C
  H50      1.0000 0.15540  0.61070  0.70600  Biso   1.000  H
  C61      1.0000 0.20720  0.60530  0.65890  Biso   1.000  C
  C62      1.0000 0.22780  0.62700  0.62150  Biso   1.000  C
  H51      1.0000 0.25350  0.61330  0.60680  Biso   1.000  H
  C63      1.0000 0.04380  0.74000  0.73910  Biso   1.000  C
  C64      1.0000 0.07450  0.76410  0.71130  Biso   1.000  C
  H52      1.0000 0.07120  0.79650  0.70760  Biso   1.000  H
  C65      1.0000 0.10990  0.74090  0.68900  Biso   1.000  C
  H53      1.0000 0.13080  0.75730  0.67000  Biso   1.000  H
  C66      1.0000 0.11460  0.69350  0.69450  Biso   1.000  C
  C67      1.0000 0.08400  0.66940  0.72230  Biso   1.000  C
  H54      1.0000 0.08720  0.63710  0.72610  Biso   1.000  H
  C68      1.0000 0.04860  0.69270  0.74460  Biso   1.000  C
  H55      1.0000 0.02760  0.67620  0.76360  Biso   1.000  H
  O20      1.0000 0.00030  0.80800  0.75320  Biso   1.000  O
  H56      1.0000 0.00070  0.81190  0.72160  Biso   1.000  H
  C69      1.0000 0.99990  0.75010  0.81130  Biso   1.000  C
  H57      1.0000 0.01080  0.71800  0.81760  Biso   1.000  H
  N4       1.0000 0.03020  0.78380  0.83450  Biso   1.000  N
  H58      1.0000 0.05740  0.76970  0.84220  Biso   1.000  H
  C70      1.0000 0.95060  0.75680  0.83020  Biso   1.000  C
  H59      1.0000 0.93520  0.72670  0.83480  Biso   1.000  H
  H60      1.0000 0.93190  0.77550  0.80860  Biso   1.000  H
  C71      1.0000 0.00650  0.79970  0.87670  Biso   1.000  C
  H61      1.0000 0.00680  0.83380  0.87790  Biso   1.000  H
  H62      1.0000 0.02290  0.78790  0.90420  Biso   1.000  H
  C72      1.0000 0.95640  0.78200  0.87680  Biso   1.000  C
  H63      1.0000 0.93450  0.80820  0.87920  Biso   1.000  H
  H64      1.0000 0.95110  0.76090  0.90290  Biso   1.000  H
  O21      1.0000 0.45340  0.26940  0.33040  Biso   1.000  O
  O22      1.0000 0.45610  0.21220  0.27640  Biso   1.000  O
  O23      1.0000 0.33760  0.26640  0.45240  Biso   1.000  O
  O24      1.0000 0.28010  0.21070  0.45010  Biso   1.000  O
  C73      1.0000 0.43670  0.23550  0.30830  Biso   1.000  C
  C74      1.0000 0.31590  0.23190  0.43590  Biso   1.000  C
  C75      1.0000 0.39430  0.21070  0.33110  Biso   1.000  C
  C76      1.0000 0.37270  0.17300  0.31100  Biso   1.000  C
  H65      1.0000 0.38350  0.16130  0.28240  Biso   1.000  H
  C77      1.0000 0.33530  0.15240  0.33270  Biso   1.000  C
  C78      1.0000 0.31950  0.16940  0.37450  Biso   1.000  C
  H66      1.0000 0.29400  0.15540  0.38930  Biso   1.000  H
  C79      1.0000 0.34110  0.20720  0.39470  Biso   1.000  C
  C80      1.0000 0.37850  0.22780  0.37300  Biso   1.000  C
  H67      1.0000 0.39320  0.25350  0.38670  Biso   1.000  H
  C81      1.0000 0.26090  0.04380  0.26000  Biso   1.000  C
  C82      1.0000 0.28870  0.07450  0.23590  Biso   1.000  C
  H68      1.0000 0.29240  0.07120  0.20350  Biso   1.000  H
  C83      1.0000 0.31100  0.10990  0.25910  Biso   1.000  C
  H69      1.0000 0.33000  0.13080  0.24270  Biso   1.000  H
  C84      1.0000 0.30550  0.11460  0.30650  Biso   1.000  C
  C85      1.0000 0.27770  0.08400  0.33060  Biso   1.000  C
  H70      1.0000 0.27390  0.08720  0.36290  Biso   1.000  H
  C86      1.0000 0.25540  0.04860  0.30730  Biso   1.000  C
  H71      1.0000 0.23640  0.02760  0.32380  Biso   1.000  H
  O25      1.0000 0.24680  0.00030  0.19200  Biso   1.000  O
  H72      1.0000 0.27840  0.00070  0.18810  Biso   1.000  H
  C87      1.0000 0.18870  0.99990  0.24990  Biso   1.000  C
  H73      1.0000 0.18240  0.01080  0.28200  Biso   1.000  H
  N5       1.0000 0.16550  0.03020  0.21620  Biso   1.000  N
  H74      1.0000 0.15780  0.05740  0.23030  Biso   1.000  H
  C88      1.0000 0.16980  0.95060  0.24320  Biso   1.000  C
  H75      1.0000 0.16520  0.93520  0.27330  Biso   1.000  H
  H76      1.0000 0.19140  0.93190  0.22450  Biso   1.000  H
  C89      1.0000 0.12330  0.00650  0.20030  Biso   1.000  C
  H77      1.0000 0.12210  0.00680  0.16620  Biso   1.000  H
  H78      1.0000 0.09580  0.02290  0.21210  Biso   1.000  H
  C90      1.0000 0.12320  0.95640  0.21800  Biso   1.000  C
  H79      1.0000 0.12080  0.93450  0.19180  Biso   1.000  H
  H80      1.0000 0.09710  0.95110  0.23910  Biso   1.000  H
  O26      1.0000 0.45340  0.73060  0.66960  Biso   1.000  O
  O27      1.0000 0.45610  0.78780  0.72360  Biso   1.000  O
  O28      1.0000 0.33760  0.73360  0.54760  Biso   1.000  O
  O29      1.0000 0.28010  0.78930  0.54990  Biso   1.000  O
  C91      1.0000 0.43670  0.76450  0.69170  Biso   1.000  C
  C92      1.0000 0.31590  0.76810  0.56410  Biso   1.000  C
  C93      1.0000 0.39430  0.78930  0.66890  Biso   1.000  C
  C94      1.0000 0.37270  0.82700  0.68900  Biso   1.000  C
  H81      1.0000 0.38350  0.83870  0.71760  Biso   1.000  H
  C95      1.0000 0.33530  0.84760  0.66730  Biso   1.000  C
  C96      1.0000 0.31950  0.83060  0.62550  Biso   1.000  C
  H82      1.0000 0.29400  0.84460  0.61070  Biso   1.000  H
  C97      1.0000 0.34110  0.79280  0.60530  Biso   1.000  C
  C98      1.0000 0.37850  0.77220  0.62700  Biso   1.000  C
  H83      1.0000 0.39320  0.74650  0.61330  Biso   1.000  H
  C99      1.0000 0.26090  0.95620  0.74000  Biso   1.000  C
  C100     1.0000 0.28870  0.92550  0.76410  Biso   1.000  C
  H84      1.0000 0.29240  0.92880  0.79650  Biso   1.000  H
  C101     1.0000 0.31100  0.89010  0.74090  Biso   1.000  C
  H85      1.0000 0.33000  0.86920  0.75730  Biso   1.000  H
  C102     1.0000 0.30550  0.88540  0.69350  Biso   1.000  C
  C103     1.0000 0.27770  0.91600  0.66940  Biso   1.000  C
  H86      1.0000 0.27390  0.91280  0.63710  Biso   1.000  H
  C104     1.0000 0.25540  0.95140  0.69270  Biso   1.000  C
  H87      1.0000 0.23640  0.97240  0.67620  Biso   1.000  H
  O30      1.0000 0.24680  0.99970  0.80800  Biso   1.000  O
  H88      1.0000 0.27840  0.99930  0.81190  Biso   1.000  H
  C105     1.0000 0.18870  0.00010  0.75010  Biso   1.000  C
  H89      1.0000 0.18240  0.98920  0.71800  Biso   1.000  H
  N6       1.0000 0.16550  0.96980  0.78380  Biso   1.000  N
  H90      1.0000 0.15780  0.94260  0.76970  Biso   1.000  H
  C106     1.0000 0.16980  0.04940  0.75680  Biso   1.000  C
  H91      1.0000 0.16520  0.06480  0.72670  Biso   1.000  H
  H92      1.0000 0.19140  0.06810  0.77550  Biso   1.000  H
  C107     1.0000 0.12330  0.99350  0.79970  Biso   1.000  C
  H93      1.0000 0.12210  0.99320  0.83380  Biso   1.000  H
  H94      1.0000 0.09580  0.97710  0.78790  Biso   1.000  H
  C108     1.0000 0.12320  0.04360  0.78200  Biso   1.000  C
  H95      1.0000 0.12080  0.06550  0.80820  Biso   1.000  H
  H96      1.0000 0.09710  0.04890  0.76090  Biso   1.000  H
  O31      1.0000 0.54660  0.73060  0.33040  Biso   1.000  O
  O32      1.0000 0.54390  0.78780  0.27640  Biso   1.000  O
  O33      1.0000 0.66240  0.73360  0.45240  Biso   1.000  O
  O34      1.0000 0.71990  0.78930  0.45010  Biso   1.000  O
  C109     1.0000 0.56330  0.76450  0.30830  Biso   1.000  C
  C110     1.0000 0.68410  0.76810  0.43590  Biso   1.000  C
  C111     1.0000 0.60570  0.78930  0.33110  Biso   1.000  C
  C112     1.0000 0.62730  0.82700  0.31100  Biso   1.000  C
  H97      1.0000 0.61650  0.83870  0.28240  Biso   1.000  H
  C113     1.0000 0.66470  0.84760  0.33270  Biso   1.000  C
  C114     1.0000 0.68050  0.83060  0.37450  Biso   1.000  C
  H98      1.0000 0.70600  0.84460  0.38930  Biso   1.000  H
  C115     1.0000 0.65890  0.79280  0.39470  Biso   1.000  C
  C116     1.0000 0.62150  0.77220  0.37300  Biso   1.000  C
  H99      1.0000 0.60680  0.74650  0.38670  Biso   1.000  H
  C117     1.0000 0.73910  0.95620  0.26000  Biso   1.000  C
  C118     1.0000 0.71130  0.92550  0.23590  Biso   1.000  C
  H100     1.0000 0.70760  0.92880  0.20350  Biso   1.000  H
  C119     1.0000 0.68900  0.89010  0.25910  Biso   1.000  C
  H101     1.0000 0.67000  0.86920  0.24270  Biso   1.000  H
  C120     1.0000 0.69450  0.88540  0.30650  Biso   1.000  C
  C121     1.0000 0.72230  0.91600  0.33060  Biso   1.000  C
  H102     1.0000 0.72610  0.91280  0.36290  Biso   1.000  H
  C122     1.0000 0.74460  0.95140  0.30730  Biso   1.000  C
  H103     1.0000 0.76360  0.97240  0.32380  Biso   1.000  H
  O35      1.0000 0.75320  0.99970  0.19200  Biso   1.000  O
  H104     1.0000 0.72160  0.99930  0.18810  Biso   1.000  H
  C123     1.0000 0.81130  0.00010  0.24990  Biso   1.000  C
  H105     1.0000 0.81760  0.98920  0.28200  Biso   1.000  H
  N7       1.0000 0.83450  0.96980  0.21620  Biso   1.000  N
  H106     1.0000 0.84220  0.94260  0.23030  Biso   1.000  H
  C124     1.0000 0.83020  0.04940  0.24320  Biso   1.000  C
  H107     1.0000 0.83480  0.06480  0.27330  Biso   1.000  H
  H108     1.0000 0.80860  0.06810  0.22450  Biso   1.000  H
  C125     1.0000 0.87670  0.99350  0.20030  Biso   1.000  C
  H109     1.0000 0.87790  0.99320  0.16620  Biso   1.000  H
  H110     1.0000 0.90420  0.97710  0.21210  Biso   1.000  H
  C126     1.0000 0.87680  0.04360  0.21800  Biso   1.000  C
  H111     1.0000 0.87920  0.06550  0.19180  Biso   1.000  H
  H112     1.0000 0.90290  0.04890  0.23910  Biso   1.000  H
  O36      1.0000 0.54660  0.26940  0.66960  Biso   1.000  O
  O37      1.0000 0.54390  0.21220  0.72360  Biso   1.000  O
  O38      1.0000 0.66240  0.26640  0.54760  Biso   1.000  O
  O39      1.0000 0.71990  0.21070  0.54990  Biso   1.000  O
  C127     1.0000 0.56330  0.23550  0.69170  Biso   1.000  C
  C128     1.0000 0.68410  0.23190  0.56410  Biso   1.000  C
  C129     1.0000 0.60570  0.21070  0.66890  Biso   1.000  C
  C130     1.0000 0.62730  0.17300  0.68900  Biso   1.000  C
  H113     1.0000 0.61650  0.16130  0.71760  Biso   1.000  H
  C131     1.0000 0.66470  0.15240  0.66730  Biso   1.000  C
  C132     1.0000 0.68050  0.16940  0.62550  Biso   1.000  C
  H114     1.0000 0.70600  0.15540  0.61070  Biso   1.000  H
  C133     1.0000 0.65890  0.20720  0.60530  Biso   1.000  C
  C134     1.0000 0.62150  0.22780  0.62700  Biso   1.000  C
  H115     1.0000 0.60680  0.25350  0.61330  Biso   1.000  H
  C135     1.0000 0.73910  0.04380  0.74000  Biso   1.000  C
  C136     1.0000 0.71130  0.07450  0.76410  Biso   1.000  C
  H116     1.0000 0.70760  0.07120  0.79650  Biso   1.000  H
  C137     1.0000 0.68900  0.10990  0.74090  Biso   1.000  C
  H117     1.0000 0.67000  0.13080  0.75730  Biso   1.000  H
  C138     1.0000 0.69450  0.11460  0.69350  Biso   1.000  C
  C139     1.0000 0.72230  0.08400  0.66940  Biso   1.000  C
  H118     1.0000 0.72610  0.08720  0.63710  Biso   1.000  H
  C140     1.0000 0.74460  0.04860  0.69270  Biso   1.000  C
  H119     1.0000 0.76360  0.02760  0.67620  Biso   1.000  H
  O40      1.0000 0.75320  0.00030  0.80800  Biso   1.000  O
  H120     1.0000 0.72160  0.00070  0.81190  Biso   1.000  H
  C141     1.0000 0.81130  0.99990  0.75010  Biso   1.000  C
  H121     1.0000 0.81760  0.01080  0.71800  Biso   1.000  H
  N8       1.0000 0.83450  0.03020  0.78380  Biso   1.000  N
  H122     1.0000 0.84220  0.05740  0.76970  Biso   1.000  H
  C142     1.0000 0.83020  0.95060  0.75680  Biso   1.000  C
  H123     1.0000 0.83480  0.93520  0.72670  Biso   1.000  H
  H124     1.0000 0.80860  0.93190  0.77550  Biso   1.000  H
  C143     1.0000 0.87670  0.00650  0.79970  Biso   1.000  C
  H125     1.0000 0.87790  0.00680  0.83380  Biso   1.000  H
  H126     1.0000 0.90420  0.02290  0.78790  Biso   1.000  H
  C144     1.0000 0.87680  0.95640  0.78200  Biso   1.000  C
  H127     1.0000 0.87920  0.93450  0.80820  Biso   1.000  H
  H128     1.0000 0.90290  0.95110  0.76090  Biso   1.000  H
  O41      1.0000 0.33040  0.45340  0.26940  Biso   1.000  O
  O42      1.0000 0.27640  0.45610  0.21220  Biso   1.000  O
  O43      1.0000 0.45240  0.33760  0.26640  Biso   1.000  O
  O44      1.0000 0.45010  0.28010  0.21070  Biso   1.000  O
  C145     1.0000 0.30830  0.43670  0.23550  Biso   1.000  C
  C146     1.0000 0.43590  0.31590  0.23190  Biso   1.000  C
  C147     1.0000 0.33110  0.39430  0.21070  Biso   1.000  C
  C148     1.0000 0.31100  0.37270  0.17300  Biso   1.000  C
  H129     1.0000 0.28240  0.38350  0.16130  Biso   1.000  H
  C149     1.0000 0.33270  0.33530  0.15240  Biso   1.000  C
  C150     1.0000 0.37450  0.31950  0.16940  Biso   1.000  C
  H130     1.0000 0.38930  0.29400  0.15540  Biso   1.000  H
  C151     1.0000 0.39470  0.34110  0.20720  Biso   1.000  C
  C152     1.0000 0.37300  0.37850  0.22780  Biso   1.000  C
  H131     1.0000 0.38670  0.39320  0.25350  Biso   1.000  H
  C153     1.0000 0.26000  0.26090  0.04380  Biso   1.000  C
  C154     1.0000 0.23590  0.28870  0.07450  Biso   1.000  C
  H132     1.0000 0.20350  0.29240  0.07120  Biso   1.000  H
  C155     1.0000 0.25910  0.31100  0.10990  Biso   1.000  C
  H133     1.0000 0.24270  0.33000  0.13080  Biso   1.000  H
  C156     1.0000 0.30650  0.30550  0.11460  Biso   1.000  C
  C157     1.0000 0.33060  0.27770  0.08400  Biso   1.000  C
  H134     1.0000 0.36290  0.27390  0.08720  Biso   1.000  H
  C158     1.0000 0.30730  0.25540  0.04860  Biso   1.000  C
  H135     1.0000 0.32380  0.23640  0.02760  Biso   1.000  H
  O45      1.0000 0.19200  0.24680  0.00030  Biso   1.000  O
  H136     1.0000 0.18810  0.27840  0.00070  Biso   1.000  H
  C159     1.0000 0.24990  0.18870  0.99990  Biso   1.000  C
  H137     1.0000 0.28200  0.18240  0.01080  Biso   1.000  H
  N9       1.0000 0.21620  0.16550  0.03020  Biso   1.000  N
  H138     1.0000 0.23030  0.15780  0.05740  Biso   1.000  H
  C160     1.0000 0.24320  0.16980  0.95060  Biso   1.000  C
  H139     1.0000 0.27330  0.16520  0.93520  Biso   1.000  H
  H140     1.0000 0.22450  0.19140  0.93190  Biso   1.000  H
  C161     1.0000 0.20030  0.12330  0.00650  Biso   1.000  C
  H141     1.0000 0.16620  0.12210  0.00680  Biso   1.000  H
  H142     1.0000 0.21210  0.09580  0.02290  Biso   1.000  H
  C162     1.0000 0.21800  0.12320  0.95640  Biso   1.000  C
  H143     1.0000 0.19180  0.12080  0.93450  Biso   1.000  H
  H144     1.0000 0.23910  0.09710  0.95110  Biso   1.000  H
  O46      1.0000 0.66960  0.45340  0.73060  Biso   1.000  O
  O47      1.0000 0.72360  0.45610  0.78780  Biso   1.000  O
  O48      1.0000 0.54760  0.33760  0.73360  Biso   1.000  O
  O49      1.0000 0.54990  0.28010  0.78930  Biso   1.000  O
  C163     1.0000 0.69170  0.43670  0.76450  Biso   1.000  C
  C164     1.0000 0.56410  0.31590  0.76810  Biso   1.000  C
  C165     1.0000 0.66890  0.39430  0.78930  Biso   1.000  C
  C166     1.0000 0.68900  0.37270  0.82700  Biso   1.000  C
  H145     1.0000 0.71760  0.38350  0.83870  Biso   1.000  H
  C167     1.0000 0.66730  0.33530  0.84760  Biso   1.000  C
  C168     1.0000 0.62550  0.31950  0.83060  Biso   1.000  C
  H146     1.0000 0.61070  0.29400  0.84460  Biso   1.000  H
  C169     1.0000 0.60530  0.34110  0.79280  Biso   1.000  C
  C170     1.0000 0.62700  0.37850  0.77220  Biso   1.000  C
  H147     1.0000 0.61330  0.39320  0.74650  Biso   1.000  H
  C171     1.0000 0.74000  0.26090  0.95620  Biso   1.000  C
  C172     1.0000 0.76410  0.28870  0.92550  Biso   1.000  C
  H148     1.0000 0.79650  0.29240  0.92880  Biso   1.000  H
  C173     1.0000 0.74090  0.31100  0.89010  Biso   1.000  C
  H149     1.0000 0.75730  0.33000  0.86920  Biso   1.000  H
  C174     1.0000 0.69350  0.30550  0.88540  Biso   1.000  C
  C175     1.0000 0.66940  0.27770  0.91600  Biso   1.000  C
  H150     1.0000 0.63710  0.27390  0.91280  Biso   1.000  H
  C176     1.0000 0.69270  0.25540  0.95140  Biso   1.000  C
  H151     1.0000 0.67620  0.23640  0.97240  Biso   1.000  H
  O50      1.0000 0.80800  0.24680  0.99970  Biso   1.000  O
  H152     1.0000 0.81190  0.27840  0.99930  Biso   1.000  H
  C177     1.0000 0.75010  0.18870  0.00010  Biso   1.000  C
  H153     1.0000 0.71800  0.18240  0.98920  Biso   1.000  H
  N10      1.0000 0.78380  0.16550  0.96980  Biso   1.000  N
  H154     1.0000 0.76970  0.15780  0.94260  Biso   1.000  H
  C178     1.0000 0.75680  0.16980  0.04940  Biso   1.000  C
  H155     1.0000 0.72670  0.16520  0.06480  Biso   1.000  H
  H156     1.0000 0.77550  0.19140  0.06810  Biso   1.000  H
  C179     1.0000 0.79970  0.12330  0.99350  Biso   1.000  C
  H157     1.0000 0.83380  0.12210  0.99320  Biso   1.000  H
  H158     1.0000 0.78790  0.09580  0.97710  Biso   1.000  H
  C180     1.0000 0.78200  0.12320  0.04360  Biso   1.000  C
  H159     1.0000 0.80820  0.12080  0.06550  Biso   1.000  H
  H160     1.0000 0.76090  0.09710  0.04890  Biso   1.000  H
  O51      1.0000 0.33040  0.54660  0.73060  Biso   1.000  O
  O52      1.0000 0.27640  0.54390  0.78780  Biso   1.000  O
  O53      1.0000 0.45240  0.66240  0.73360  Biso   1.000  O
  O54      1.0000 0.45010  0.71990  0.78930  Biso   1.000  O
  C181     1.0000 0.30830  0.56330  0.76450  Biso   1.000  C
  C182     1.0000 0.43590  0.68410  0.76810  Biso   1.000  C
  C183     1.0000 0.33110  0.60570  0.78930  Biso   1.000  C
  C184     1.0000 0.31100  0.62730  0.82700  Biso   1.000  C
  H161     1.0000 0.28240  0.61650  0.83870  Biso   1.000  H
  C185     1.0000 0.33270  0.66470  0.84760  Biso   1.000  C
  C186     1.0000 0.37450  0.68050  0.83060  Biso   1.000  C
  H162     1.0000 0.38930  0.70600  0.84460  Biso   1.000  H
  C187     1.0000 0.39470  0.65890  0.79280  Biso   1.000  C
  C188     1.0000 0.37300  0.62150  0.77220  Biso   1.000  C
  H163     1.0000 0.38670  0.60680  0.74650  Biso   1.000  H
  C189     1.0000 0.26000  0.73910  0.95620  Biso   1.000  C
  C190     1.0000 0.23590  0.71130  0.92550  Biso   1.000  C
  H164     1.0000 0.20350  0.70760  0.92880  Biso   1.000  H
  C191     1.0000 0.25910  0.68900  0.89010  Biso   1.000  C
  H165     1.0000 0.24270  0.67000  0.86920  Biso   1.000  H
  C192     1.0000 0.30650  0.69450  0.88540  Biso   1.000  C
  C193     1.0000 0.33060  0.72230  0.91600  Biso   1.000  C
  H166     1.0000 0.36290  0.72610  0.91280  Biso   1.000  H
  C194     1.0000 0.30730  0.74460  0.95140  Biso   1.000  C
  H167     1.0000 0.32380  0.76360  0.97240  Biso   1.000  H
  O55      1.0000 0.19200  0.75320  0.99970  Biso   1.000  O
  H168     1.0000 0.18810  0.72160  0.99930  Biso   1.000  H
  C195     1.0000 0.24990  0.81130  0.00010  Biso   1.000  C
  H169     1.0000 0.28200  0.81760  0.98920  Biso   1.000  H
  N11      1.0000 0.21620  0.83450  0.96980  Biso   1.000  N
  H170     1.0000 0.23030  0.84220  0.94260  Biso   1.000  H
  C196     1.0000 0.24320  0.83020  0.04940  Biso   1.000  C
  H171     1.0000 0.27330  0.83480  0.06480  Biso   1.000  H
  H172     1.0000 0.22450  0.80860  0.06810  Biso   1.000  H
  C197     1.0000 0.20030  0.87670  0.99350  Biso   1.000  C
  H173     1.0000 0.16620  0.87790  0.99320  Biso   1.000  H
  H174     1.0000 0.21210  0.90420  0.97710  Biso   1.000  H
  C198     1.0000 0.21800  0.87680  0.04360  Biso   1.000  C
  H175     1.0000 0.19180  0.87920  0.06550  Biso   1.000  H
  H176     1.0000 0.23910  0.90290  0.04890  Biso   1.000  H
  O56      1.0000 0.66960  0.54660  0.26940  Biso   1.000  O
  O57      1.0000 0.72360  0.54390  0.21220  Biso   1.000  O
  O58      1.0000 0.54760  0.66240  0.26640  Biso   1.000  O
  O59      1.0000 0.54990  0.71990  0.21070  Biso   1.000  O
  C199     1.0000 0.69170  0.56330  0.23550  Biso   1.000  C
  C200     1.0000 0.56410  0.68410  0.23190  Biso   1.000  C
  C201     1.0000 0.66890  0.60570  0.21070  Biso   1.000  C
  C202     1.0000 0.68900  0.62730  0.17300  Biso   1.000  C
  H177     1.0000 0.71760  0.61650  0.16130  Biso   1.000  H
  C203     1.0000 0.66730  0.66470  0.15240  Biso   1.000  C
  C204     1.0000 0.62550  0.68050  0.16940  Biso   1.000  C
  H178     1.0000 0.61070  0.70600  0.15540  Biso   1.000  H
  C205     1.0000 0.60530  0.65890  0.20720  Biso   1.000  C
  C206     1.0000 0.62700  0.62150  0.22780  Biso   1.000  C
  H179     1.0000 0.61330  0.60680  0.25350  Biso   1.000  H
  C207     1.0000 0.74000  0.73910  0.04380  Biso   1.000  C
  C208     1.0000 0.76410  0.71130  0.07450  Biso   1.000  C
  H180     1.0000 0.79650  0.70760  0.07120  Biso   1.000  H
  C209     1.0000 0.74090  0.68900  0.10990  Biso   1.000  C
  H181     1.0000 0.75730  0.67000  0.13080  Biso   1.000  H
  C210     1.0000 0.69350  0.69450  0.11460  Biso   1.000  C
  C211     1.0000 0.66940  0.72230  0.08400  Biso   1.000  C
  H182     1.0000 0.63710  0.72610  0.08720  Biso   1.000  H
  C212     1.0000 0.69270  0.74460  0.04860  Biso   1.000  C
  H183     1.0000 0.67620  0.76360  0.02760  Biso   1.000  H
  O60      1.0000 0.80800  0.75320  0.00030  Biso   1.000  O
  H184     1.0000 0.81190  0.72160  0.00070  Biso   1.000  H
  C213     1.0000 0.75010  0.81130  0.99990  Biso   1.000  C
  H185     1.0000 0.71800  0.81760  0.01080  Biso   1.000  H
  N12      1.0000 0.78380  0.83450  0.03020  Biso   1.000  N
  H186     1.0000 0.76970  0.84220  0.05740  Biso   1.000  H
  C214     1.0000 0.75680  0.83020  0.95060  Biso   1.000  C
  H187     1.0000 0.72670  0.83480  0.93520  Biso   1.000  H
  H188     1.0000 0.77550  0.80860  0.93190  Biso   1.000  H
  C215     1.0000 0.79970  0.87670  0.00650  Biso   1.000  C
  H189     1.0000 0.83380  0.87790  0.00680  Biso   1.000  H
  H190     1.0000 0.78790  0.90420  0.02290  Biso   1.000  H
  C216     1.0000 0.78200  0.87680  0.95640  Biso   1.000  C
  H191     1.0000 0.80820  0.87920  0.93450  Biso   1.000  H
  H192     1.0000 0.76090  0.90290  0.95110  Biso   1.000  H
  O61      1.0000 0.33040  0.26940  0.54660  Biso   1.000  O
  O62      1.0000 0.27640  0.21220  0.54390  Biso   1.000  O
  O63      1.0000 0.45240  0.26640  0.66240  Biso   1.000  O
  O64      1.0000 0.45010  0.21070  0.71990  Biso   1.000  O
  C217     1.0000 0.30830  0.23550  0.56330  Biso   1.000  C
  C218     1.0000 0.43590  0.23190  0.68410  Biso   1.000  C
  C219     1.0000 0.33110  0.21070  0.60570  Biso   1.000  C
  C220     1.0000 0.31100  0.17300  0.62730  Biso   1.000  C
  H193     1.0000 0.28240  0.16130  0.61650  Biso   1.000  H
  C221     1.0000 0.33270  0.15240  0.66470  Biso   1.000  C
  C222     1.0000 0.37450  0.16940  0.68050  Biso   1.000  C
  H194     1.0000 0.38930  0.15540  0.70600  Biso   1.000  H
  C223     1.0000 0.39470  0.20720  0.65890  Biso   1.000  C
  C224     1.0000 0.37300  0.22780  0.62150  Biso   1.000  C
  H195     1.0000 0.38670  0.25350  0.60680  Biso   1.000  H
  C225     1.0000 0.26000  0.04380  0.73910  Biso   1.000  C
  C226     1.0000 0.23590  0.07450  0.71130  Biso   1.000  C
  H196     1.0000 0.20350  0.07120  0.70760  Biso   1.000  H
  C227     1.0000 0.25910  0.10990  0.68900  Biso   1.000  C
  H197     1.0000 0.24270  0.13080  0.67000  Biso   1.000  H
  C228     1.0000 0.30650  0.11460  0.69450  Biso   1.000  C
  C229     1.0000 0.33060  0.08400  0.72230  Biso   1.000  C
  H198     1.0000 0.36290  0.08720  0.72610  Biso   1.000  H
  C230     1.0000 0.30730  0.04860  0.74460  Biso   1.000  C
  H199     1.0000 0.32380  0.02760  0.76360  Biso   1.000  H
  O65      1.0000 0.19200  0.00030  0.75320  Biso   1.000  O
  H200     1.0000 0.18810  0.00070  0.72160  Biso   1.000  H
  C231     1.0000 0.24990  0.99990  0.81130  Biso   1.000  C
  H201     1.0000 0.28200  0.01080  0.81760  Biso   1.000  H
  N13      1.0000 0.21620  0.03020  0.83450  Biso   1.000  N
  H202     1.0000 0.23030  0.05740  0.84220  Biso   1.000  H
  C232     1.0000 0.24320  0.95060  0.83020  Biso   1.000  C
  H203     1.0000 0.27330  0.93520  0.83480  Biso   1.000  H
  H204     1.0000 0.22450  0.93190  0.80860  Biso   1.000  H
  C233     1.0000 0.20030  0.00650  0.87670  Biso   1.000  C
  H205     1.0000 0.16620  0.00680  0.87790  Biso   1.000  H
  H206     1.0000 0.21210  0.02290  0.90420  Biso   1.000  H
  C234     1.0000 0.21800  0.95640  0.87680  Biso   1.000  C
  H207     1.0000 0.19180  0.93450  0.87920  Biso   1.000  H
  H208     1.0000 0.23910  0.95110  0.90290  Biso   1.000  H
  O66      1.0000 0.66960  0.73060  0.54660  Biso   1.000  O
  O67      1.0000 0.72360  0.78780  0.54390  Biso   1.000  O
  O68      1.0000 0.54760  0.73360  0.66240  Biso   1.000  O
  O69      1.0000 0.54990  0.78930  0.71990  Biso   1.000  O
  C235     1.0000 0.69170  0.76450  0.56330  Biso   1.000  C
  C236     1.0000 0.56410  0.76810  0.68410  Biso   1.000  C
  C237     1.0000 0.66890  0.78930  0.60570  Biso   1.000  C
  C238     1.0000 0.68900  0.82700  0.62730  Biso   1.000  C
  H209     1.0000 0.71760  0.83870  0.61650  Biso   1.000  H
  C239     1.0000 0.66730  0.84760  0.66470  Biso   1.000  C
  C240     1.0000 0.62550  0.83060  0.68050  Biso   1.000  C
  H210     1.0000 0.61070  0.84460  0.70600  Biso   1.000  H
  C241     1.0000 0.60530  0.79280  0.65890  Biso   1.000  C
  C242     1.0000 0.62700  0.77220  0.62150  Biso   1.000  C
  H211     1.0000 0.61330  0.74650  0.60680  Biso   1.000  H
  C243     1.0000 0.74000  0.95620  0.73910  Biso   1.000  C
  C244     1.0000 0.76410  0.92550  0.71130  Biso   1.000  C
  H212     1.0000 0.79650  0.92880  0.70760  Biso   1.000  H
  C245     1.0000 0.74090  0.89010  0.68900  Biso   1.000  C
  H213     1.0000 0.75730  0.86920  0.67000  Biso   1.000  H
  C246     1.0000 0.69350  0.88540  0.69450  Biso   1.000  C
  C247     1.0000 0.66940  0.91600  0.72230  Biso   1.000  C
  H214     1.0000 0.63710  0.91280  0.72610  Biso   1.000  H
  C248     1.0000 0.69270  0.95140  0.74460  Biso   1.000  C
  H215     1.0000 0.67620  0.97240  0.76360  Biso   1.000  H
  O70      1.0000 0.80800  0.99970  0.75320  Biso   1.000  O
  H216     1.0000 0.81190  0.99930  0.72160  Biso   1.000  H
  C249     1.0000 0.75010  0.00010  0.81130  Biso   1.000  C
  H217     1.0000 0.71800  0.98920  0.81760  Biso   1.000  H
  N14      1.0000 0.78380  0.96980  0.83450  Biso   1.000  N
  H218     1.0000 0.76970  0.94260  0.84220  Biso   1.000  H
  C250     1.0000 0.75680  0.04940  0.83020  Biso   1.000  C
  H219     1.0000 0.72670  0.06480  0.83480  Biso   1.000  H
  H220     1.0000 0.77550  0.06810  0.80860  Biso   1.000  H
  C251     1.0000 0.79970  0.99350  0.87670  Biso   1.000  C
  H221     1.0000 0.83380  0.99320  0.87790  Biso   1.000  H
  H222     1.0000 0.78790  0.97710  0.90420  Biso   1.000  H
  C252     1.0000 0.78200  0.04360  0.87680  Biso   1.000  C
  H223     1.0000 0.80820  0.06550  0.87920  Biso   1.000  H
  H224     1.0000 0.76090  0.04890  0.90290  Biso   1.000  H
  O71      1.0000 0.33040  0.73060  0.45340  Biso   1.000  O
  O72      1.0000 0.27640  0.78780  0.45610  Biso   1.000  O
  O73      1.0000 0.45240  0.73360  0.33760  Biso   1.000  O
  O74      1.0000 0.45010  0.78930  0.28010  Biso   1.000  O
  C253     1.0000 0.30830  0.76450  0.43670  Biso   1.000  C
  C254     1.0000 0.43590  0.76810  0.31590  Biso   1.000  C
  C255     1.0000 0.33110  0.78930  0.39430  Biso   1.000  C
  C256     1.0000 0.31100  0.82700  0.37270  Biso   1.000  C
  H225     1.0000 0.28240  0.83870  0.38350  Biso   1.000  H
  C257     1.0000 0.33270  0.84760  0.33530  Biso   1.000  C
  C258     1.0000 0.37450  0.83060  0.31950  Biso   1.000  C
  H226     1.0000 0.38930  0.84460  0.29400  Biso   1.000  H
  C259     1.0000 0.39470  0.79280  0.34110  Biso   1.000  C
  C260     1.0000 0.37300  0.77220  0.37850  Biso   1.000  C
  H227     1.0000 0.38670  0.74650  0.39320  Biso   1.000  H
  C261     1.0000 0.26000  0.95620  0.26090  Biso   1.000  C
  C262     1.0000 0.23590  0.92550  0.28870  Biso   1.000  C
  H228     1.0000 0.20350  0.92880  0.29240  Biso   1.000  H
  C263     1.0000 0.25910  0.89010  0.31100  Biso   1.000  C
  H229     1.0000 0.24270  0.86920  0.33000  Biso   1.000  H
  C264     1.0000 0.30650  0.88540  0.30550  Biso   1.000  C
  C265     1.0000 0.33060  0.91600  0.27770  Biso   1.000  C
  H230     1.0000 0.36290  0.91280  0.27390  Biso   1.000  H
  C266     1.0000 0.30730  0.95140  0.25540  Biso   1.000  C
  H231     1.0000 0.32380  0.97240  0.23640  Biso   1.000  H
  O75      1.0000 0.19200  0.99970  0.24680  Biso   1.000  O
  H232     1.0000 0.18810  0.99930  0.27840  Biso   1.000  H
  C267     1.0000 0.24990  0.00010  0.18870  Biso   1.000  C
  H233     1.0000 0.28200  0.98920  0.18240  Biso   1.000  H
  N15      1.0000 0.21620  0.96980  0.16550  Biso   1.000  N
  H234     1.0000 0.23030  0.94260  0.15780  Biso   1.000  H
  C268     1.0000 0.24320  0.04940  0.16980  Biso   1.000  C
  H235     1.0000 0.27330  0.06480  0.16520  Biso   1.000  H
  H236     1.0000 0.22450  0.06810  0.19140  Biso   1.000  H
  C269     1.0000 0.20030  0.99350  0.12330  Biso   1.000  C
  H237     1.0000 0.16620  0.99320  0.12210  Biso   1.000  H
  H238     1.0000 0.21210  0.97710  0.09580  Biso   1.000  H
  C270     1.0000 0.21800  0.04360  0.12320  Biso   1.000  C
  H239     1.0000 0.19180  0.06550  0.12080  Biso   1.000  H
  H240     1.0000 0.23910  0.04890  0.09710  Biso   1.000  H
  O76      1.0000 0.66960  0.26940  0.45340  Biso   1.000  O
  O77      1.0000 0.72360  0.21220  0.45610  Biso   1.000  O
  O78      1.0000 0.54760  0.26640  0.33760  Biso   1.000  O
  O79      1.0000 0.54990  0.21070  0.28010  Biso   1.000  O
  C271     1.0000 0.69170  0.23550  0.43670  Biso   1.000  C
  C272     1.0000 0.56410  0.23190  0.31590  Biso   1.000  C
  C273     1.0000 0.66890  0.21070  0.39430  Biso   1.000  C
  C274     1.0000 0.68900  0.17300  0.37270  Biso   1.000  C
  H241     1.0000 0.71760  0.16130  0.38350  Biso   1.000  H
  C275     1.0000 0.66730  0.15240  0.33530  Biso   1.000  C
  C276     1.0000 0.62550  0.16940  0.31950  Biso   1.000  C
  H242     1.0000 0.61070  0.15540  0.29400  Biso   1.000  H
  C277     1.0000 0.60530  0.20720  0.34110  Biso   1.000  C
  C278     1.0000 0.62700  0.22780  0.37850  Biso   1.000  C
  H243     1.0000 0.61330  0.25350  0.39320  Biso   1.000  H
  C279     1.0000 0.74000  0.04380  0.26090  Biso   1.000  C
  C280     1.0000 0.76410  0.07450  0.28870  Biso   1.000  C
  H244     1.0000 0.79650  0.07120  0.29240  Biso   1.000  H
  C281     1.0000 0.74090  0.10990  0.31100  Biso   1.000  C
  H245     1.0000 0.75730  0.13080  0.33000  Biso   1.000  H
  C282     1.0000 0.69350  0.11460  0.30550  Biso   1.000  C
  C283     1.0000 0.66940  0.08400  0.27770  Biso   1.000  C
  H246     1.0000 0.63710  0.08720  0.27390  Biso   1.000  H
  C284     1.0000 0.69270  0.04860  0.25540  Biso   1.000  C
  H247     1.0000 0.67620  0.02760  0.23640  Biso   1.000  H
  O80      1.0000 0.80800  0.00030  0.24680  Biso   1.000  O
  H248     1.0000 0.81190  0.00070  0.27840  Biso   1.000  H
  C285     1.0000 0.75010  0.99990  0.18870  Biso   1.000  C
  H249     1.0000 0.71800  0.01080  0.18240  Biso   1.000  H
  N16      1.0000 0.78380  0.03020  0.16550  Biso   1.000  N
  H250     1.0000 0.76970  0.05740  0.15780  Biso   1.000  H
  C286     1.0000 0.75680  0.95060  0.16980  Biso   1.000  C
  H251     1.0000 0.72670  0.93520  0.16520  Biso   1.000  H
  H252     1.0000 0.77550  0.93190  0.19140  Biso   1.000  H
  C287     1.0000 0.79970  0.00650  0.12330  Biso   1.000  C
  H253     1.0000 0.83380  0.00680  0.12210  Biso   1.000  H
  H254     1.0000 0.78790  0.02290  0.09580  Biso   1.000  H
  C288     1.0000 0.78200  0.95640  0.12320  Biso   1.000  C
  H255     1.0000 0.80820  0.93450  0.12080  Biso   1.000  H
  H256     1.0000 0.76090  0.95110  0.09710  Biso   1.000  H
  O81      1.0000 0.26940  0.45340  0.66960  Biso   1.000  O
  O82      1.0000 0.21220  0.45610  0.72360  Biso   1.000  O
  O83      1.0000 0.26640  0.33760  0.54760  Biso   1.000  O
  O84      1.0000 0.21070  0.28010  0.54990  Biso   1.000  O
  C289     1.0000 0.23550  0.43670  0.69170  Biso   1.000  C
  C290     1.0000 0.23190  0.31590  0.56410  Biso   1.000  C
  C291     1.0000 0.21070  0.39430  0.66890  Biso   1.000  C
  C292     1.0000 0.17300  0.37270  0.68900  Biso   1.000  C
  H257     1.0000 0.16130  0.38350  0.71760  Biso   1.000  H
  C293     1.0000 0.15240  0.33530  0.66730  Biso   1.000  C
  C294     1.0000 0.16940  0.31950  0.62550  Biso   1.000  C
  H258     1.0000 0.15540  0.29400  0.61070  Biso   1.000  H
  C295     1.0000 0.20720  0.34110  0.60530  Biso   1.000  C
  C296     1.0000 0.22780  0.37850  0.62700  Biso   1.000  C
  H259     1.0000 0.25350  0.39320  0.61330  Biso   1.000  H
  C297     1.0000 0.04380  0.26090  0.74000  Biso   1.000  C
  C298     1.0000 0.07450  0.28870  0.76410  Biso   1.000  C
  H260     1.0000 0.07120  0.29240  0.79650  Biso   1.000  H
  C299     1.0000 0.10990  0.31100  0.74090  Biso   1.000  C
  H261     1.0000 0.13080  0.33000  0.75730  Biso   1.000  H
  C300     1.0000 0.11460  0.30550  0.69350  Biso   1.000  C
  C301     1.0000 0.08400  0.27770  0.66940  Biso   1.000  C
  H262     1.0000 0.08720  0.27390  0.63710  Biso   1.000  H
  C302     1.0000 0.04860  0.25540  0.69270  Biso   1.000  C
  H263     1.0000 0.02760  0.23640  0.67620  Biso   1.000  H
  O85      1.0000 0.00030  0.24680  0.80800  Biso   1.000  O
  H264     1.0000 0.00070  0.27840  0.81190  Biso   1.000  H
  C303     1.0000 0.99990  0.18870  0.75010  Biso   1.000  C
  H265     1.0000 0.01080  0.18240  0.71800  Biso   1.000  H
  N17      1.0000 0.03020  0.16550  0.78380  Biso   1.000  N
  H266     1.0000 0.05740  0.15780  0.76970  Biso   1.000  H
  C304     1.0000 0.95060  0.16980  0.75680  Biso   1.000  C
  H267     1.0000 0.93520  0.16520  0.72670  Biso   1.000  H
  H268     1.0000 0.93190  0.19140  0.77550  Biso   1.000  H
  C305     1.0000 0.00650  0.12330  0.79970  Biso   1.000  C
  H269     1.0000 0.00680  0.12210  0.83380  Biso   1.000  H
  H270     1.0000 0.02290  0.09580  0.78790  Biso   1.000  H
  C306     1.0000 0.95640  0.12320  0.78200  Biso   1.000  C
  H271     1.0000 0.93450  0.12080  0.80820  Biso   1.000  H
  H272     1.0000 0.95110  0.09710  0.76090  Biso   1.000  H
  O86      1.0000 0.73060  0.45340  0.33040  Biso   1.000  O
  O87      1.0000 0.78780  0.45610  0.27640  Biso   1.000  O
  O88      1.0000 0.73360  0.33760  0.45240  Biso   1.000  O
  O89      1.0000 0.78930  0.28010  0.45010  Biso   1.000  O
  C307     1.0000 0.76450  0.43670  0.30830  Biso   1.000  C
  C308     1.0000 0.76810  0.31590  0.43590  Biso   1.000  C
  C309     1.0000 0.78930  0.39430  0.33110  Biso   1.000  C
  C310     1.0000 0.82700  0.37270  0.31100  Biso   1.000  C
  H273     1.0000 0.83870  0.38350  0.28240  Biso   1.000  H
  C311     1.0000 0.84760  0.33530  0.33270  Biso   1.000  C
  C312     1.0000 0.83060  0.31950  0.37450  Biso   1.000  C
  H274     1.0000 0.84460  0.29400  0.38930  Biso   1.000  H
  C313     1.0000 0.79280  0.34110  0.39470  Biso   1.000  C
  C314     1.0000 0.77220  0.37850  0.37300  Biso   1.000  C
  H275     1.0000 0.74650  0.39320  0.38670  Biso   1.000  H
  C315     1.0000 0.95620  0.26090  0.26000  Biso   1.000  C
  C316     1.0000 0.92550  0.28870  0.23590  Biso   1.000  C
  H276     1.0000 0.92880  0.29240  0.20350  Biso   1.000  H
  C317     1.0000 0.89010  0.31100  0.25910  Biso   1.000  C
  H277     1.0000 0.86920  0.33000  0.24270  Biso   1.000  H
  C318     1.0000 0.88540  0.30550  0.30650  Biso   1.000  C
  C319     1.0000 0.91600  0.27770  0.33060  Biso   1.000  C
  H278     1.0000 0.91280  0.27390  0.36290  Biso   1.000  H
  C320     1.0000 0.95140  0.25540  0.30730  Biso   1.000  C
  H279     1.0000 0.97240  0.23640  0.32380  Biso   1.000  H
  O90      1.0000 0.99970  0.24680  0.19200  Biso   1.000  O
  H280     1.0000 0.99930  0.27840  0.18810  Biso   1.000  H
  C321     1.0000 0.00010  0.18870  0.24990  Biso   1.000  C
  H281     1.0000 0.98920  0.18240  0.28200  Biso   1.000  H
  N18      1.0000 0.96980  0.16550  0.21620  Biso   1.000  N
  H282     1.0000 0.94260  0.15780  0.23030  Biso   1.000  H
  C322     1.0000 0.04940  0.16980  0.24320  Biso   1.000  C
  H283     1.0000 0.06480  0.16520  0.27330  Biso   1.000  H
  H284     1.0000 0.06810  0.19140  0.22450  Biso   1.000  H
  C323     1.0000 0.99350  0.12330  0.20030  Biso   1.000  C
  H285     1.0000 0.99320  0.12210  0.16620  Biso   1.000  H
  H286     1.0000 0.97710  0.09580  0.21210  Biso   1.000  H
  C324     1.0000 0.04360  0.12320  0.21800  Biso   1.000  C
  H287     1.0000 0.06550  0.12080  0.19180  Biso   1.000  H
  H288     1.0000 0.04890  0.09710  0.23910  Biso   1.000  H
  O91      1.0000 0.73060  0.54660  0.66960  Biso   1.000  O
  O92      1.0000 0.78780  0.54390  0.72360  Biso   1.000  O
  O93      1.0000 0.73360  0.66240  0.54760  Biso   1.000  O
  O94      1.0000 0.78930  0.71990  0.54990  Biso   1.000  O
  C325     1.0000 0.76450  0.56330  0.69170  Biso   1.000  C
  C326     1.0000 0.76810  0.68410  0.56410  Biso   1.000  C
  C327     1.0000 0.78930  0.60570  0.66890  Biso   1.000  C
  C328     1.0000 0.82700  0.62730  0.68900  Biso   1.000  C
  H289     1.0000 0.83870  0.61650  0.71760  Biso   1.000  H
  C329     1.0000 0.84760  0.66470  0.66730  Biso   1.000  C
  C330     1.0000 0.83060  0.68050  0.62550  Biso   1.000  C
  H290     1.0000 0.84460  0.70600  0.61070  Biso   1.000  H
  C331     1.0000 0.79280  0.65890  0.60530  Biso   1.000  C
  C332     1.0000 0.77220  0.62150  0.62700  Biso   1.000  C
  H291     1.0000 0.74650  0.60680  0.61330  Biso   1.000  H
  C333     1.0000 0.95620  0.73910  0.74000  Biso   1.000  C
  C334     1.0000 0.92550  0.71130  0.76410  Biso   1.000  C
  H292     1.0000 0.92880  0.70760  0.79650  Biso   1.000  H
  C335     1.0000 0.89010  0.68900  0.74090  Biso   1.000  C
  H293     1.0000 0.86920  0.67000  0.75730  Biso   1.000  H
  C336     1.0000 0.88540  0.69450  0.69350  Biso   1.000  C
  C337     1.0000 0.91600  0.72230  0.66940  Biso   1.000  C
  H294     1.0000 0.91280  0.72610  0.63710  Biso   1.000  H
  C338     1.0000 0.95140  0.74460  0.69270  Biso   1.000  C
  H295     1.0000 0.97240  0.76360  0.67620  Biso   1.000  H
  O95      1.0000 0.99970  0.75320  0.80800  Biso   1.000  O
  H296     1.0000 0.99930  0.72160  0.81190  Biso   1.000  H
  C339     1.0000 0.00010  0.81130  0.75010  Biso   1.000  C
  H297     1.0000 0.98920  0.81760  0.71800  Biso   1.000  H
  N19      1.0000 0.96980  0.83450  0.78380  Biso   1.000  N
  H298     1.0000 0.94260  0.84220  0.76970  Biso   1.000  H
  C340     1.0000 0.04940  0.83020  0.75680  Biso   1.000  C
  H299     1.0000 0.06480  0.83480  0.72670  Biso   1.000  H
  H300     1.0000 0.06810  0.80860  0.77550  Biso   1.000  H
  C341     1.0000 0.99350  0.87670  0.79970  Biso   1.000  C
  H301     1.0000 0.99320  0.87790  0.83380  Biso   1.000  H
  H302     1.0000 0.97710  0.90420  0.78790  Biso   1.000  H
  C342     1.0000 0.04360  0.87680  0.78200  Biso   1.000  C
  H303     1.0000 0.06550  0.87920  0.80820  Biso   1.000  H
  H304     1.0000 0.04890  0.90290  0.76090  Biso   1.000  H
  O96      1.0000 0.26940  0.54660  0.33040  Biso   1.000  O
  O97      1.0000 0.21220  0.54390  0.27640  Biso   1.000  O
  O98      1.0000 0.26640  0.66240  0.45240  Biso   1.000  O
  O99      1.0000 0.21070  0.71990  0.45010  Biso   1.000  O
  C343     1.0000 0.23550  0.56330  0.30830  Biso   1.000  C
  C344     1.0000 0.23190  0.68410  0.43590  Biso   1.000  C
  C345     1.0000 0.21070  0.60570  0.33110  Biso   1.000  C
  C346     1.0000 0.17300  0.62730  0.31100  Biso   1.000  C
  H305     1.0000 0.16130  0.61650  0.28240  Biso   1.000  H
  C347     1.0000 0.15240  0.66470  0.33270  Biso   1.000  C
  C348     1.0000 0.16940  0.68050  0.37450  Biso   1.000  C
  H306     1.0000 0.15540  0.70600  0.38930  Biso   1.000  H
  C349     1.0000 0.20720  0.65890  0.39470  Biso   1.000  C
  C350     1.0000 0.22780  0.62150  0.37300  Biso   1.000  C
  H307     1.0000 0.25350  0.60680  0.38670  Biso   1.000  H
  C351     1.0000 0.04380  0.73910  0.26000  Biso   1.000  C
  C352     1.0000 0.07450  0.71130  0.23590  Biso   1.000  C
  H308     1.0000 0.07120  0.70760  0.20350  Biso   1.000  H
  C353     1.0000 0.10990  0.68900  0.25910  Biso   1.000  C
  H309     1.0000 0.13080  0.67000  0.24270  Biso   1.000  H
  C354     1.0000 0.11460  0.69450  0.30650  Biso   1.000  C
  C355     1.0000 0.08400  0.72230  0.33060  Biso   1.000  C
  H310     1.0000 0.08720  0.72610  0.36290  Biso   1.000  H
  C356     1.0000 0.04860  0.74460  0.30730  Biso   1.000  C
  H311     1.0000 0.02760  0.76360  0.32380  Biso   1.000  H
  O100     1.0000 0.00030  0.75320  0.19200  Biso   1.000  O
  H312     1.0000 0.00070  0.72160  0.18810  Biso   1.000  H
  C357     1.0000 0.99990  0.81130  0.24990  Biso   1.000  C
  H313     1.0000 0.01080  0.81760  0.28200  Biso   1.000  H
  N20      1.0000 0.03020  0.83450  0.21620  Biso   1.000  N
  H314     1.0000 0.05740  0.84220  0.23030  Biso   1.000  H
  C358     1.0000 0.95060  0.83020  0.24320  Biso   1.000  C
  H315     1.0000 0.93520  0.83480  0.27330  Biso   1.000  H
  H316     1.0000 0.93190  0.80860  0.22450  Biso   1.000  H
  C359     1.0000 0.00650  0.87670  0.20030  Biso   1.000  C
  H317     1.0000 0.00680  0.87790  0.16620  Biso   1.000  H
  H318     1.0000 0.02290  0.90420  0.21210  Biso   1.000  H
  C360     1.0000 0.95640  0.87680  0.21800  Biso   1.000  C
  H319     1.0000 0.93450  0.87920  0.19180  Biso   1.000  H
  H320     1.0000 0.95110  0.90290  0.23910  Biso   1.000  H
  O101     1.0000 0.45340  0.33040  0.73060  Biso   1.000  O
  O102     1.0000 0.45610  0.27640  0.78780  Biso   1.000  O
  O103     1.0000 0.33760  0.45240  0.73360  Biso   1.000  O
  O104     1.0000 0.28010  0.45010  0.78930  Biso   1.000  O
  C361     1.0000 0.43670  0.30830  0.76450  Biso   1.000  C
  C362     1.0000 0.31590  0.43590  0.76810  Biso   1.000  C
  C363     1.0000 0.39430  0.33110  0.78930  Biso   1.000  C
  C364     1.0000 0.37270  0.31100  0.82700  Biso   1.000  C
  H321     1.0000 0.38350  0.28240  0.83870  Biso   1.000  H
  C365     1.0000 0.33530  0.33270  0.84760  Biso   1.000  C
  C366     1.0000 0.31950  0.37450  0.83060  Biso   1.000  C
  H322     1.0000 0.29400  0.38930  0.84460  Biso   1.000  H
  C367     1.0000 0.34110  0.39470  0.79280  Biso   1.000  C
  C368     1.0000 0.37850  0.37300  0.77220  Biso   1.000  C
  H323     1.0000 0.39320  0.38670  0.74650  Biso   1.000  H
  C369     1.0000 0.26090  0.26000  0.95620  Biso   1.000  C
  C370     1.0000 0.28870  0.23590  0.92550  Biso   1.000  C
  H324     1.0000 0.29240  0.20350  0.92880  Biso   1.000  H
  C371     1.0000 0.31100  0.25910  0.89010  Biso   1.000  C
  H325     1.0000 0.33000  0.24270  0.86920  Biso   1.000  H
  C372     1.0000 0.30550  0.30650  0.88540  Biso   1.000  C
  C373     1.0000 0.27770  0.33060  0.91600  Biso   1.000  C
  H326     1.0000 0.27390  0.36290  0.91280  Biso   1.000  H
  C374     1.0000 0.25540  0.30730  0.95140  Biso   1.000  C
  H327     1.0000 0.23640  0.32380  0.97240  Biso   1.000  H
  O105     1.0000 0.24680  0.19200  0.99970  Biso   1.000  O
  H328     1.0000 0.27840  0.18810  0.99930  Biso   1.000  H
  C375     1.0000 0.18870  0.24990  0.00010  Biso   1.000  C
  H329     1.0000 0.18240  0.28200  0.98920  Biso   1.000  H
  N21      1.0000 0.16550  0.21620  0.96980  Biso   1.000  N
  H330     1.0000 0.15780  0.23030  0.94260  Biso   1.000  H
  C376     1.0000 0.16980  0.24320  0.04940  Biso   1.000  C
  H331     1.0000 0.16520  0.27330  0.06480  Biso   1.000  H
  H332     1.0000 0.19140  0.22450  0.06810  Biso   1.000  H
  C377     1.0000 0.12330  0.20030  0.99350  Biso   1.000  C
  H333     1.0000 0.12210  0.16620  0.99320  Biso   1.000  H
  H334     1.0000 0.09580  0.21210  0.97710  Biso   1.000  H
  C378     1.0000 0.12320  0.21800  0.04360  Biso   1.000  C
  H335     1.0000 0.12080  0.19180  0.06550  Biso   1.000  H
  H336     1.0000 0.09710  0.23910  0.04890  Biso   1.000  H
  O106     1.0000 0.45340  0.66960  0.26940  Biso   1.000  O
  O107     1.0000 0.45610  0.72360  0.21220  Biso   1.000  O
  O108     1.0000 0.33760  0.54760  0.26640  Biso   1.000  O
  O109     1.0000 0.28010  0.54990  0.21070  Biso   1.000  O
  C379     1.0000 0.43670  0.69170  0.23550  Biso   1.000  C
  C380     1.0000 0.31590  0.56410  0.23190  Biso   1.000  C
  C381     1.0000 0.39430  0.66890  0.21070  Biso   1.000  C
  C382     1.0000 0.37270  0.68900  0.17300  Biso   1.000  C
  H337     1.0000 0.38350  0.71760  0.16130  Biso   1.000  H
  C383     1.0000 0.33530  0.66730  0.15240  Biso   1.000  C
  C384     1.0000 0.31950  0.62550  0.16940  Biso   1.000  C
  H338     1.0000 0.29400  0.61070  0.15540  Biso   1.000  H
  C385     1.0000 0.34110  0.60530  0.20720  Biso   1.000  C
  C386     1.0000 0.37850  0.62700  0.22780  Biso   1.000  C
  H339     1.0000 0.39320  0.61330  0.25350  Biso   1.000  H
  C387     1.0000 0.26090  0.74000  0.04380  Biso   1.000  C
  C388     1.0000 0.28870  0.76410  0.07450  Biso   1.000  C
  H340     1.0000 0.29240  0.79650  0.07120  Biso   1.000  H
  C389     1.0000 0.31100  0.74090  0.10990  Biso   1.000  C
  H341     1.0000 0.33000  0.75730  0.13080  Biso   1.000  H
  C390     1.0000 0.30550  0.69350  0.11460  Biso   1.000  C
  C391     1.0000 0.27770  0.66940  0.08400  Biso   1.000  C
  H342     1.0000 0.27390  0.63710  0.08720  Biso   1.000  H
  C392     1.0000 0.25540  0.69270  0.04860  Biso   1.000  C
  H343     1.0000 0.23640  0.67620  0.02760  Biso   1.000  H
  O110     1.0000 0.24680  0.80800  0.00030  Biso   1.000  O
  H344     1.0000 0.27840  0.81190  0.00070  Biso   1.000  H
  C393     1.0000 0.18870  0.75010  0.99990  Biso   1.000  C
  H345     1.0000 0.18240  0.71800  0.01080  Biso   1.000  H
  N22      1.0000 0.16550  0.78380  0.03020  Biso   1.000  N
  H346     1.0000 0.15780  0.76970  0.05740  Biso   1.000  H
  C394     1.0000 0.16980  0.75680  0.95060  Biso   1.000  C
  H347     1.0000 0.16520  0.72670  0.93520  Biso   1.000  H
  H348     1.0000 0.19140  0.77550  0.93190  Biso   1.000  H
  C395     1.0000 0.12330  0.79970  0.00650  Biso   1.000  C
  H349     1.0000 0.12210  0.83380  0.00680  Biso   1.000  H
  H350     1.0000 0.09580  0.78790  0.02290  Biso   1.000  H
  C396     1.0000 0.12320  0.78200  0.95640  Biso   1.000  C
  H351     1.0000 0.12080  0.80820  0.93450  Biso   1.000  H
  H352     1.0000 0.09710  0.76090  0.95110  Biso   1.000  H
  O111     1.0000 0.54660  0.33040  0.26940  Biso   1.000  O
  O112     1.0000 0.54390  0.27640  0.21220  Biso   1.000  O
  O113     1.0000 0.66240  0.45240  0.26640  Biso   1.000  O
  O114     1.0000 0.71990  0.45010  0.21070  Biso   1.000  O
  C397     1.0000 0.56330  0.30830  0.23550  Biso   1.000  C
  C398     1.0000 0.68410  0.43590  0.23190  Biso   1.000  C
  C399     1.0000 0.60570  0.33110  0.21070  Biso   1.000  C
  C400     1.0000 0.62730  0.31100  0.17300  Biso   1.000  C
  H353     1.0000 0.61650  0.28240  0.16130  Biso   1.000  H
  C401     1.0000 0.66470  0.33270  0.15240  Biso   1.000  C
  C402     1.0000 0.68050  0.37450  0.16940  Biso   1.000  C
  H354     1.0000 0.70600  0.38930  0.15540  Biso   1.000  H
  C403     1.0000 0.65890  0.39470  0.20720  Biso   1.000  C
  C404     1.0000 0.62150  0.37300  0.22780  Biso   1.000  C
  H355     1.0000 0.60680  0.38670  0.25350  Biso   1.000  H
  C405     1.0000 0.73910  0.26000  0.04380  Biso   1.000  C
  C406     1.0000 0.71130  0.23590  0.07450  Biso   1.000  C
  H356     1.0000 0.70760  0.20350  0.07120  Biso   1.000  H
  C407     1.0000 0.68900  0.25910  0.10990  Biso   1.000  C
  H357     1.0000 0.67000  0.24270  0.13080  Biso   1.000  H
  C408     1.0000 0.69450  0.30650  0.11460  Biso   1.000  C
  C409     1.0000 0.72230  0.33060  0.08400  Biso   1.000  C
  H358     1.0000 0.72610  0.36290  0.08720  Biso   1.000  H
  C410     1.0000 0.74460  0.30730  0.04860  Biso   1.000  C
  H359     1.0000 0.76360  0.32380  0.02760  Biso   1.000  H
  O115     1.0000 0.75320  0.19200  0.00030  Biso   1.000  O
  H360     1.0000 0.72160  0.18810  0.00070  Biso   1.000  H
  C411     1.0000 0.81130  0.24990  0.99990  Biso   1.000  C
  H361     1.0000 0.81760  0.28200  0.01080  Biso   1.000  H
  N23      1.0000 0.83450  0.21620  0.03020  Biso   1.000  N
  H362     1.0000 0.84220  0.23030  0.05740  Biso   1.000  H
  C412     1.0000 0.83020  0.24320  0.95060  Biso   1.000  C
  H363     1.0000 0.83480  0.27330  0.93520  Biso   1.000  H
  H364     1.0000 0.80860  0.22450  0.93190  Biso   1.000  H
  C413     1.0000 0.87670  0.20030  0.00650  Biso   1.000  C
  H365     1.0000 0.87790  0.16620  0.00680  Biso   1.000  H
  H366     1.0000 0.90420  0.21210  0.02290  Biso   1.000  H
  C414     1.0000 0.87680  0.21800  0.95640  Biso   1.000  C
  H367     1.0000 0.87920  0.19180  0.93450  Biso   1.000  H
  H368     1.0000 0.90290  0.23910  0.95110  Biso   1.000  H
  O116     1.0000 0.54660  0.66960  0.73060  Biso   1.000  O
  O117     1.0000 0.54390  0.72360  0.78780  Biso   1.000  O
  O118     1.0000 0.66240  0.54760  0.73360  Biso   1.000  O
  O119     1.0000 0.71990  0.54990  0.78930  Biso   1.000  O
  C415     1.0000 0.56330  0.69170  0.76450  Biso   1.000  C
  C416     1.0000 0.68410  0.56410  0.76810  Biso   1.000  C
  C417     1.0000 0.60570  0.66890  0.78930  Biso   1.000  C
  C418     1.0000 0.62730  0.68900  0.82700  Biso   1.000  C
  H369     1.0000 0.61650  0.71760  0.83870  Biso   1.000  H
  C419     1.0000 0.66470  0.66730  0.84760  Biso   1.000  C
  C420     1.0000 0.68050  0.62550  0.83060  Biso   1.000  C
  H370     1.0000 0.70600  0.61070  0.84460  Biso   1.000  H
  C421     1.0000 0.65890  0.60530  0.79280  Biso   1.000  C
  C422     1.0000 0.62150  0.62700  0.77220  Biso   1.000  C
  H371     1.0000 0.60680  0.61330  0.74650  Biso   1.000  H
  C423     1.0000 0.73910  0.74000  0.95620  Biso   1.000  C
  C424     1.0000 0.71130  0.76410  0.92550  Biso   1.000  C
  H372     1.0000 0.70760  0.79650  0.92880  Biso   1.000  H
  C425     1.0000 0.68900  0.74090  0.89010  Biso   1.000  C
  H373     1.0000 0.67000  0.75730  0.86920  Biso   1.000  H
  C426     1.0000 0.69450  0.69350  0.88540  Biso   1.000  C
  C427     1.0000 0.72230  0.66940  0.91600  Biso   1.000  C
  H374     1.0000 0.72610  0.63710  0.91280  Biso   1.000  H
  C428     1.0000 0.74460  0.69270  0.95140  Biso   1.000  C
  H375     1.0000 0.76360  0.67620  0.97240  Biso   1.000  H
  O120     1.0000 0.75320  0.80800  0.99970  Biso   1.000  O
  H376     1.0000 0.72160  0.81190  0.99930  Biso   1.000  H
  C429     1.0000 0.81130  0.75010  0.00010  Biso   1.000  C
  H377     1.0000 0.81760  0.71800  0.98920  Biso   1.000  H
  N24      1.0000 0.83450  0.78380  0.96980  Biso   1.000  N
  H378     1.0000 0.84220  0.76970  0.94260  Biso   1.000  H
  C430     1.0000 0.83020  0.75680  0.04940  Biso   1.000  C
  H379     1.0000 0.83480  0.72670  0.06480  Biso   1.000  H
  H380     1.0000 0.80860  0.77550  0.06810  Biso   1.000  H
  C431     1.0000 0.87670  0.79970  0.99350  Biso   1.000  C
  H381     1.0000 0.87790  0.83380  0.99320  Biso   1.000  H
  H382     1.0000 0.90420  0.78790  0.97710  Biso   1.000  H
  C432     1.0000 0.87680  0.78200  0.04360  Biso   1.000  C
  H383     1.0000 0.87920  0.80820  0.06550  Biso   1.000  H
  H384     1.0000 0.90290  0.76090  0.04890  Biso   1.000  H
  Cu1      1.0000 0.30548  0.30548  0.50000  Biso   1.000  Cu
  Cu2      1.0000 0.24011  0.24011  0.50000  Biso   1.000  Cu
  Cu3      1.0000 0.69452  0.69452  0.50000  Biso   1.000  Cu
  Cu4      1.0000 0.75989  0.75989  0.50000  Biso   1.000  Cu
  Cu5      1.0000 0.69452  0.30548  0.50000  Biso   1.000  Cu
  Cu6      1.0000 0.75989  0.24011  0.50000  Biso   1.000  Cu
  Cu7      1.0000 0.30548  0.69452  0.50000  Biso   1.000  Cu
  Cu8      1.0000 0.24011  0.75989  0.50000  Biso   1.000  Cu
  Cu9      1.0000 0.50000  0.30548  0.30548  Biso   1.000  Cu
  Cu10     1.0000 0.50000  0.24011  0.24011  Biso   1.000  Cu
  Cu11     1.0000 0.50000  0.69452  0.69452  Biso   1.000  Cu
  Cu12     1.0000 0.50000  0.75989  0.75989  Biso   1.000  Cu
  Cu13     1.0000 0.50000  0.69452  0.30548  Biso   1.000  Cu
  Cu14     1.0000 0.50000  0.75989  0.24011  Biso   1.000  Cu
  Cu15     1.0000 0.50000  0.30548  0.69452  Biso   1.000  Cu
  Cu16     1.0000 0.50000  0.24011  0.75989  Biso   1.000  Cu
  Cu17     1.0000 0.30548  0.50000  0.30548  Biso   1.000  Cu
  Cu18     1.0000 0.24011  0.50000  0.24011  Biso   1.000  Cu
  Cu19     1.0000 0.69452  0.50000  0.69452  Biso   1.000  Cu
  Cu20     1.0000 0.75989  0.50000  0.75989  Biso   1.000  Cu
  Cu21     1.0000 0.30548  0.50000  0.69452  Biso   1.000  Cu
  Cu22     1.0000 0.24011  0.50000  0.75989  Biso   1.000  Cu
  Cu23     1.0000 0.69452  0.50000  0.30548  Biso   1.000  Cu
  Cu24     1.0000 0.75989  0.50000  0.24011  Biso   1.000  Cu
  C433     1.0000 0.00000  0.24060  0.24060  Biso   1.000  C
  C434     1.0000 0.00000  0.75940  0.24060  Biso   1.000  C
  C435     1.0000 0.00000  0.24060  0.75940  Biso   1.000  C
  C436     1.0000 0.00000  0.75940  0.75940  Biso   1.000  C
  C437     1.0000 0.24060  0.00000  0.24060  Biso   1.000  C
  C438     1.0000 0.24060  0.00000  0.75940  Biso   1.000  C
  C439     1.0000 0.75940  0.00000  0.24060  Biso   1.000  C
  C440     1.0000 0.75940  0.00000  0.75940  Biso   1.000  C
  C441     1.0000 0.24060  0.24060  0.00000  Biso   1.000  C
  C442     1.0000 0.75940  0.24060  0.00000  Biso   1.000  C
  C443     1.0000 0.24060  0.75940  0.00000  Biso   1.000  C
  C444     1.0000 0.75940  0.75940  0.00000  Biso   1.000  C
