data_image0
_cell_length_a       20.27
_cell_length_b       16.336
_cell_length_c       24.664
_cell_angle_alpha    90
_cell_angle_beta     101.671
_cell_angle_gamma    90

_symmetry_space_group_name_H-M    "P 1"
_symmetry_int_tables_number       1

loop_
  _symmetry_equiv_pos_as_xyz
  'x, y, z'

loop_
  _atom_site_label
  _atom_site_occupancy
  _atom_site_fract_x
  _atom_site_fract_y
  _atom_site_fract_z
  _atom_site_thermal_displace_type
  _atom_site_B_iso_or_equiv
  _atom_site_type_symbol
  Co1      1.0000 0.13335  0.75376  0.10000  Biso   1.000  Co
  Co2      1.0000 0.30033  0.76655  0.10662  Biso   1.000  Co
  Co3      1.0000 0.18867  0.86937  0.01175  Biso   1.000  Co
  O1       1.0000 0.20787  0.76615  0.05416  Biso   1.000  O
  H1       1.0000 0.20570  0.72620  0.03180  Biso   1.000  H
  O2       1.0000 0.33507  0.34100  0.34093  Biso   1.000  O
  O3       1.0000 0.22557  0.35170  0.34107  Biso   1.000  O
  O4       1.0000 0.28790  0.67320  0.15780  Biso   1.000  O
  O5       1.0000 0.17698  0.65830  0.14792  Biso   1.000  O
  C1       1.0000 0.27780  0.36960  0.32400  Biso   1.000  C
  C2       1.0000 0.23610  0.63740  0.16579  Biso   1.000  C
  C3       1.0000 0.26930  0.43340  0.27960  Biso   1.000  C
  C4       1.0000 0.24860  0.56290  0.20270  Biso   1.000  C
  C5       1.0000 0.30060  0.50100  0.29120  Biso   1.000  C
  H2       1.0000 0.32890  0.50510  0.32590  Biso   1.000  H
  C6       1.0000 0.29680  0.57320  0.25600  Biso   1.000  C
  H3       1.0000 0.32180  0.62050  0.26580  Biso   1.000  H
  C7       1.0000 0.21860  0.48530  0.18620  Biso   1.000  C
  C8       1.0000 0.17700  0.47380  0.13390  Biso   1.000  C
  H4       1.0000 0.17060  0.51620  0.10820  Biso   1.000  H
  C9       1.0000 0.14630  0.40060  0.12100  Biso   1.000  C
  H5       1.0000 0.11790  0.39360  0.08670  Biso   1.000  H
  C10      1.0000 0.15640  0.33580  0.15840  Biso   1.000  C
  H6       1.0000 0.13700  0.28520  0.14760  Biso   1.000  H
  C11      1.0000 0.19370  0.34490  0.20970  Biso   1.000  C
  H7       1.0000 0.19800  0.30230  0.23520  Biso   1.000  H
  C12      1.0000 0.22580  0.41980  0.22380  Biso   1.000  C
  O6       1.0000 0.57991  0.35610  0.05162  Biso   1.000  O
  O7       1.0000 0.64462  0.46000  0.04230  Biso   1.000  O
  O8       1.0000 0.34713  0.67929  0.06192  Biso   1.000  O
  O9       1.0000 0.41413  0.72960  0.13456  Biso   1.000  O
  C13      1.0000 0.59190  0.43090  0.05456  Biso   1.000  C
  C14      1.0000 0.40410  0.67930  0.09694  Biso   1.000  C
  C15      1.0000 0.54290  0.49150  0.07102  Biso   1.000  C
  C16      1.0000 0.45380  0.61400  0.09054  Biso   1.000  C
  C17      1.0000 0.55380  0.57320  0.05970  Biso   1.000  C
  H8       1.0000 0.59150  0.58680  0.04540  Biso   1.000  H
  C18      1.0000 0.51050  0.63520  0.06900  Biso   1.000  C
  H9       1.0000 0.51880  0.68940  0.06110  Biso   1.000  H
  C19      1.0000 0.44170  0.53500  0.10100  Biso   1.000  C
  C20      1.0000 0.38410  0.51310  0.12580  Biso   1.000  C
  H10      1.0000 0.35610  0.55450  0.13400  Biso   1.000  H
  C21      1.0000 0.37050  0.43450  0.13720  Biso   1.000  C
  H11      1.0000 0.33100  0.42130  0.14900  Biso   1.000  H
  C22      1.0000 0.41630  0.37370  0.13090  Biso   1.000  C
  H12      1.0000 0.40920  0.32110  0.14300  Biso   1.000  H
  C23      1.0000 0.47250  0.38750  0.10760  Biso   1.000  C
  H13      1.0000 0.49960  0.34490  0.09980  Biso   1.000  H
  C24      1.0000 0.48560  0.46940  0.09650  Biso   1.000  C
  O10      1.0000 0.07910  0.66840  0.04261  Biso   1.000  O
  O11      1.0000 0.03827  0.70850  0.11292  Biso   1.000  O
  O12      1.0000 0.84088  0.36130  0.07122  Biso   1.000  O
  O13      1.0000 0.77341  0.41750  0.00003  Biso   1.000  O
  C25      1.0000 0.03500  0.66460  0.07060  Biso   1.000  C
  C26      1.0000 0.82680  0.41630  0.03651  Biso   1.000  C
  C27      1.0000 0.97880  0.60340  0.05650  Biso   1.000  C
  C28      1.0000 0.87730  0.48420  0.03881  Biso   1.000  C
  C29      1.0000 0.99020  0.52660  0.08550  Biso   1.000  C
  H14      1.0000 0.03050  0.51630  0.11010  Biso   1.000  H
  C30      1.0000 0.93900  0.46810  0.07570  Biso   1.000  C
  H15      1.0000 0.94550  0.41780  0.09370  Biso   1.000  H
  C31      1.0000 0.86650  0.56080  0.01260  Biso   1.000  C
  C32      1.0000 0.80660  0.58260  0.97730  Biso   1.000  C
  H16      1.0000 0.77070  0.54600  0.97140  Biso   1.000  H
  C33      1.0000 0.79970  0.65510  0.95190  Biso   1.000  C
  H17      1.0000 0.76060  0.66670  0.92610  Biso   1.000  H
  C34      1.0000 0.90970  0.69750  0.99900  Biso   1.000  C
  H18      1.0000 0.94370  0.73660  0.00710  Biso   1.000  H
  C35      1.0000 0.85270  0.71570  0.96420  Biso   1.000  C
  H19      1.0000 0.84680  0.76710  0.94770  Biso   1.000  H
  C36      1.0000 0.91930  0.62010  0.02360  Biso   1.000  C
  C37      1.0000 0.31190  0.50350  0.28500  Biso   1.000  C
  H20      1.0000 0.34690  0.51060  0.31550  Biso   1.000  H
  C38      1.0000 0.29850  0.56220  0.24180  Biso   1.000  C
  H21      1.0000 0.32990  0.60390  0.24250  Biso   1.000  H
  C39      1.0000 0.20220  0.49460  0.19540  Biso   1.000  C
  C40      1.0000 0.14860  0.48360  0.14930  Biso   1.000  C
  H22      1.0000 0.13990  0.52420  0.12230  Biso   1.000  H
  C41      1.0000 0.10830  0.41340  0.14340  Biso   1.000  C
  H23      1.0000 0.06970  0.41100  0.11560  Biso   1.000  H
  C42      1.0000 0.12590  0.34730  0.17880  Biso   1.000  C
  H24      1.0000 0.10380  0.29740  0.17100  Biso   1.000  H
  C43      1.0000 0.17630  0.35570  0.22560  Biso   1.000  C
  H25      1.0000 0.18480  0.31260  0.25070  Biso   1.000  H
  C44      1.0000 0.21520  0.42850  0.23630  Biso   1.000  C
  C45      1.0000 0.56110  0.57330  0.07340  Biso   1.000  C
  H26      1.0000 0.60340  0.58850  0.06780  Biso   1.000  H
  C46      1.0000 0.51590  0.63370  0.08430  Biso   1.000  C
  H27      1.0000 0.52940  0.68820  0.08720  Biso   1.000  H
  C47      1.0000 0.43270  0.52710  0.09360  Biso   1.000  C
  C48      1.0000 0.37090  0.50590  0.10490  Biso   1.000  C
  H28      1.0000 0.34170  0.54660  0.11180  Biso   1.000  H
  C49      1.0000 0.35260  0.42720  0.10600  Biso   1.000  C
  H29      1.0000 0.31160  0.41340  0.11480  Biso   1.000  H
  C50      1.0000 0.39640  0.36540  0.09380  Biso   1.000  C
  H30      1.0000 0.38400  0.31060  0.09350  Biso   1.000  H
  C51      1.0000 0.45570  0.38760  0.08280  Biso   1.000  C
  H31      1.0000 0.48460  0.34560  0.07710  Biso   1.000  H
  C52      1.0000 0.47890  0.46870  0.07890  Biso   1.000  C
  C53      1.0000 0.99300  0.52290  0.05300  Biso   1.000  C
  H32      1.0000 0.03720  0.50690  0.05370  Biso   1.000  H
  C54      1.0000 0.94230  0.46260  0.04820  Biso   1.000  C
  H33      1.0000 0.95410  0.40760  0.05160  Biso   1.000  H
  C55      1.0000 0.85870  0.56830  0.03030  Biso   1.000  C
  C56      1.0000 0.79260  0.59520  0.00890  Biso   1.000  C
  H34      1.0000 0.75710  0.55810  0.00450  Biso   1.000  H
  C57      1.0000 0.78010  0.67610  0.99420  Biso   1.000  C
  H35      1.0000 0.73640  0.69210  0.97820  Biso   1.000  H
  C58      1.0000 0.83090  0.73380  0.00290  Biso   1.000  C
  H36      1.0000 0.82160  0.78780  0.99210  Biso   1.000  H
  C59      1.0000 0.89300  0.71170  0.02650  Biso   1.000  C
  H37      1.0000 0.92640  0.75140  0.03510  Biso   1.000  H
  C60      1.0000 0.90940  0.62810  0.03890  Biso   1.000  C
  Co4      1.0000 0.63335  0.25376  0.10000  Biso   1.000  Co
  Co5      1.0000 0.80033  0.26655  0.10662  Biso   1.000  Co
  Co6      1.0000 0.68867  0.36937  0.01175  Biso   1.000  Co
  O14      1.0000 0.70787  0.26615  0.05416  Biso   1.000  O
  H38      1.0000 0.70570  0.22620  0.03180  Biso   1.000  H
  O15      1.0000 0.83507  0.84100  0.34093  Biso   1.000  O
  O16      1.0000 0.72557  0.85170  0.34107  Biso   1.000  O
  O17      1.0000 0.78790  0.17320  0.15780  Biso   1.000  O
  O18      1.0000 0.67698  0.15830  0.14792  Biso   1.000  O
  C61      1.0000 0.77780  0.86960  0.32400  Biso   1.000  C
  C62      1.0000 0.73610  0.13740  0.16579  Biso   1.000  C
  C63      1.0000 0.76930  0.93340  0.27960  Biso   1.000  C
  C64      1.0000 0.74860  0.06290  0.20270  Biso   1.000  C
  C65      1.0000 0.80060  0.00100  0.29120  Biso   1.000  C
  H39      1.0000 0.82890  0.00510  0.32590  Biso   1.000  H
  C66      1.0000 0.79680  0.07320  0.25600  Biso   1.000  C
  H40      1.0000 0.82180  0.12050  0.26580  Biso   1.000  H
  C67      1.0000 0.71860  0.98530  0.18620  Biso   1.000  C
  C68      1.0000 0.67700  0.97380  0.13390  Biso   1.000  C
  H41      1.0000 0.67060  0.01620  0.10820  Biso   1.000  H
  C69      1.0000 0.64630  0.90060  0.12100  Biso   1.000  C
  H42      1.0000 0.61790  0.89360  0.08670  Biso   1.000  H
  C70      1.0000 0.65640  0.83580  0.15840  Biso   1.000  C
  H43      1.0000 0.63700  0.78520  0.14760  Biso   1.000  H
  C71      1.0000 0.69370  0.84490  0.20970  Biso   1.000  C
  H44      1.0000 0.69800  0.80230  0.23520  Biso   1.000  H
  C72      1.0000 0.72580  0.91980  0.22380  Biso   1.000  C
  O19      1.0000 0.07991  0.85610  0.05162  Biso   1.000  O
  O20      1.0000 0.14462  0.96000  0.04230  Biso   1.000  O
  O21      1.0000 0.84713  0.17929  0.06192  Biso   1.000  O
  O22      1.0000 0.91413  0.22960  0.13456  Biso   1.000  O
  C73      1.0000 0.09190  0.93090  0.05456  Biso   1.000  C
  C74      1.0000 0.90410  0.17930  0.09694  Biso   1.000  C
  C75      1.0000 0.04290  0.99150  0.07102  Biso   1.000  C
  C76      1.0000 0.95380  0.11400  0.09054  Biso   1.000  C
  C77      1.0000 0.05380  0.07320  0.05970  Biso   1.000  C
  H45      1.0000 0.09150  0.08680  0.04540  Biso   1.000  H
  C78      1.0000 0.01050  0.13520  0.06900  Biso   1.000  C
  H46      1.0000 0.01880  0.18940  0.06110  Biso   1.000  H
  C79      1.0000 0.94170  0.03500  0.10100  Biso   1.000  C
  C80      1.0000 0.88410  0.01310  0.12580  Biso   1.000  C
  H47      1.0000 0.85610  0.05450  0.13400  Biso   1.000  H
  C81      1.0000 0.87050  0.93450  0.13720  Biso   1.000  C
  H48      1.0000 0.83100  0.92130  0.14900  Biso   1.000  H
  C82      1.0000 0.91630  0.87370  0.13090  Biso   1.000  C
  H49      1.0000 0.90920  0.82110  0.14300  Biso   1.000  H
  C83      1.0000 0.97250  0.88750  0.10760  Biso   1.000  C
  H50      1.0000 0.99960  0.84490  0.09980  Biso   1.000  H
  C84      1.0000 0.98560  0.96940  0.09650  Biso   1.000  C
  O23      1.0000 0.57910  0.16840  0.04261  Biso   1.000  O
  O24      1.0000 0.53827  0.20850  0.11292  Biso   1.000  O
  O25      1.0000 0.34088  0.86130  0.07122  Biso   1.000  O
  O26      1.0000 0.27341  0.91750  0.00003  Biso   1.000  O
  C85      1.0000 0.53500  0.16460  0.07060  Biso   1.000  C
  C86      1.0000 0.32680  0.91630  0.03651  Biso   1.000  C
  C87      1.0000 0.47880  0.10340  0.05650  Biso   1.000  C
  C88      1.0000 0.37730  0.98420  0.03881  Biso   1.000  C
  C89      1.0000 0.49020  0.02660  0.08550  Biso   1.000  C
  H51      1.0000 0.53050  0.01630  0.11010  Biso   1.000  H
  C90      1.0000 0.43900  0.96810  0.07570  Biso   1.000  C
  H52      1.0000 0.44550  0.91780  0.09370  Biso   1.000  H
  C91      1.0000 0.36650  0.06080  0.01260  Biso   1.000  C
  C92      1.0000 0.30660  0.08260  0.97730  Biso   1.000  C
  H53      1.0000 0.27070  0.04600  0.97140  Biso   1.000  H
  C93      1.0000 0.29970  0.15510  0.95190  Biso   1.000  C
  H54      1.0000 0.26060  0.16670  0.92610  Biso   1.000  H
  C94      1.0000 0.40970  0.19750  0.99900  Biso   1.000  C
  H55      1.0000 0.44370  0.23660  0.00710  Biso   1.000  H
  C95      1.0000 0.35270  0.21570  0.96420  Biso   1.000  C
  H56      1.0000 0.34680  0.26710  0.94770  Biso   1.000  H
  C96      1.0000 0.41930  0.12010  0.02360  Biso   1.000  C
  C97      1.0000 0.81190  0.00350  0.28500  Biso   1.000  C
  H57      1.0000 0.84690  0.01060  0.31550  Biso   1.000  H
  C98      1.0000 0.79850  0.06220  0.24180  Biso   1.000  C
  H58      1.0000 0.82990  0.10390  0.24250  Biso   1.000  H
  C99      1.0000 0.70220  0.99460  0.19540  Biso   1.000  C
  C100     1.0000 0.64860  0.98360  0.14930  Biso   1.000  C
  H59      1.0000 0.63990  0.02420  0.12230  Biso   1.000  H
  C101     1.0000 0.60830  0.91340  0.14340  Biso   1.000  C
  H60      1.0000 0.56970  0.91100  0.11560  Biso   1.000  H
  C102     1.0000 0.62590  0.84730  0.17880  Biso   1.000  C
  H61      1.0000 0.60380  0.79740  0.17100  Biso   1.000  H
  C103     1.0000 0.67630  0.85570  0.22560  Biso   1.000  C
  H62      1.0000 0.68480  0.81260  0.25070  Biso   1.000  H
  C104     1.0000 0.71520  0.92850  0.23630  Biso   1.000  C
  C105     1.0000 0.06110  0.07330  0.07340  Biso   1.000  C
  H63      1.0000 0.10340  0.08850  0.06780  Biso   1.000  H
  C106     1.0000 0.01590  0.13370  0.08430  Biso   1.000  C
  H64      1.0000 0.02940  0.18820  0.08720  Biso   1.000  H
  C107     1.0000 0.93270  0.02710  0.09360  Biso   1.000  C
  C108     1.0000 0.87090  0.00590  0.10490  Biso   1.000  C
  H65      1.0000 0.84170  0.04660  0.11180  Biso   1.000  H
  C109     1.0000 0.85260  0.92720  0.10600  Biso   1.000  C
  H66      1.0000 0.81160  0.91340  0.11480  Biso   1.000  H
  C110     1.0000 0.89640  0.86540  0.09380  Biso   1.000  C
  H67      1.0000 0.88400  0.81060  0.09350  Biso   1.000  H
  C111     1.0000 0.95570  0.88760  0.08280  Biso   1.000  C
  H68      1.0000 0.98460  0.84560  0.07710  Biso   1.000  H
  C112     1.0000 0.97890  0.96870  0.07890  Biso   1.000  C
  C113     1.0000 0.49300  0.02290  0.05300  Biso   1.000  C
  H69      1.0000 0.53720  0.00690  0.05370  Biso   1.000  H
  C114     1.0000 0.44230  0.96260  0.04820  Biso   1.000  C
  H70      1.0000 0.45410  0.90760  0.05160  Biso   1.000  H
  C115     1.0000 0.35870  0.06830  0.03030  Biso   1.000  C
  C116     1.0000 0.29260  0.09520  0.00890  Biso   1.000  C
  H71      1.0000 0.25710  0.05810  0.00450  Biso   1.000  H
  C117     1.0000 0.28010  0.17610  0.99420  Biso   1.000  C
  H72      1.0000 0.23640  0.19210  0.97820  Biso   1.000  H
  C118     1.0000 0.33090  0.23380  0.00290  Biso   1.000  C
  H73      1.0000 0.32160  0.28780  0.99210  Biso   1.000  H
  C119     1.0000 0.39300  0.21170  0.02650  Biso   1.000  C
  H74      1.0000 0.42640  0.25140  0.03510  Biso   1.000  H
  C120     1.0000 0.40940  0.12810  0.03890  Biso   1.000  C
  Co7      1.0000 0.86665  0.75376  0.40000  Biso   1.000  Co
  Co8      1.0000 0.69967  0.76655  0.39338  Biso   1.000  Co
  Co9      1.0000 0.81133  0.86937  0.48825  Biso   1.000  Co
  O27      1.0000 0.79213  0.76615  0.44584  Biso   1.000  O
  H75      1.0000 0.79430  0.72620  0.46820  Biso   1.000  H
  O28      1.0000 0.66493  0.34100  0.15907  Biso   1.000  O
  O29      1.0000 0.77443  0.35170  0.15893  Biso   1.000  O
  O30      1.0000 0.71210  0.67320  0.34220  Biso   1.000  O
  O31      1.0000 0.82302  0.65830  0.35208  Biso   1.000  O
  C121     1.0000 0.72220  0.36960  0.17600  Biso   1.000  C
  C122     1.0000 0.76390  0.63740  0.33421  Biso   1.000  C
  C123     1.0000 0.73070  0.43340  0.22040  Biso   1.000  C
  C124     1.0000 0.75140  0.56290  0.29730  Biso   1.000  C
  C125     1.0000 0.69940  0.50100  0.20880  Biso   1.000  C
  H76      1.0000 0.67110  0.50510  0.17410  Biso   1.000  H
  C126     1.0000 0.70320  0.57320  0.24400  Biso   1.000  C
  H77      1.0000 0.67820  0.62050  0.23420  Biso   1.000  H
  C127     1.0000 0.78140  0.48530  0.31380  Biso   1.000  C
  C128     1.0000 0.82300  0.47380  0.36610  Biso   1.000  C
  H78      1.0000 0.82940  0.51620  0.39180  Biso   1.000  H
  C129     1.0000 0.85370  0.40060  0.37900  Biso   1.000  C
  H79      1.0000 0.88210  0.39360  0.41330  Biso   1.000  H
  C130     1.0000 0.84360  0.33580  0.34160  Biso   1.000  C
  H80      1.0000 0.86300  0.28520  0.35240  Biso   1.000  H
  C131     1.0000 0.80630  0.34490  0.29030  Biso   1.000  C
  H81      1.0000 0.80200  0.30230  0.26480  Biso   1.000  H
  C132     1.0000 0.77420  0.41980  0.27620  Biso   1.000  C
  O32      1.0000 0.42009  0.35610  0.44838  Biso   1.000  O
  O33      1.0000 0.35538  0.46000  0.45770  Biso   1.000  O
  O34      1.0000 0.65287  0.67929  0.43808  Biso   1.000  O
  O35      1.0000 0.58587  0.72960  0.36544  Biso   1.000  O
  C133     1.0000 0.40810  0.43090  0.44544  Biso   1.000  C
  C134     1.0000 0.59590  0.67930  0.40306  Biso   1.000  C
  C135     1.0000 0.45710  0.49150  0.42898  Biso   1.000  C
  C136     1.0000 0.54620  0.61400  0.40946  Biso   1.000  C
  C137     1.0000 0.44620  0.57320  0.44030  Biso   1.000  C
  H82      1.0000 0.40850  0.58680  0.45460  Biso   1.000  H
  C138     1.0000 0.48950  0.63520  0.43100  Biso   1.000  C
  H83      1.0000 0.48120  0.68940  0.43890  Biso   1.000  H
  C139     1.0000 0.55830  0.53500  0.39900  Biso   1.000  C
  C140     1.0000 0.61590  0.51310  0.37420  Biso   1.000  C
  H84      1.0000 0.64390  0.55450  0.36600  Biso   1.000  H
  C141     1.0000 0.62950  0.43450  0.36280  Biso   1.000  C
  H85      1.0000 0.66900  0.42130  0.35100  Biso   1.000  H
  C142     1.0000 0.58370  0.37370  0.36910  Biso   1.000  C
  H86      1.0000 0.59080  0.32110  0.35700  Biso   1.000  H
  C143     1.0000 0.52750  0.38750  0.39240  Biso   1.000  C
  H87      1.0000 0.50040  0.34490  0.40020  Biso   1.000  H
  C144     1.0000 0.51440  0.46940  0.40350  Biso   1.000  C
  O36      1.0000 0.92090  0.66840  0.45739  Biso   1.000  O
  O37      1.0000 0.96173  0.70850  0.38708  Biso   1.000  O
  O38      1.0000 0.15912  0.36130  0.42878  Biso   1.000  O
  O39      1.0000 0.22659  0.41750  0.49997  Biso   1.000  O
  C145     1.0000 0.96500  0.66460  0.42940  Biso   1.000  C
  C146     1.0000 0.17320  0.41630  0.46349  Biso   1.000  C
  C147     1.0000 0.02120  0.60340  0.44350  Biso   1.000  C
  C148     1.0000 0.12270  0.48420  0.46119  Biso   1.000  C
  C149     1.0000 0.00980  0.52660  0.41450  Biso   1.000  C
  H88      1.0000 0.96950  0.51630  0.38990  Biso   1.000  H
  C150     1.0000 0.06100  0.46810  0.42430  Biso   1.000  C
  H89      1.0000 0.05450  0.41780  0.40630  Biso   1.000  H
  C151     1.0000 0.13350  0.56080  0.48740  Biso   1.000  C
  C152     1.0000 0.19340  0.58260  0.52270  Biso   1.000  C
  H90      1.0000 0.22930  0.54600  0.52860  Biso   1.000  H
  C153     1.0000 0.20030  0.65510  0.54810  Biso   1.000  C
  H91      1.0000 0.23940  0.66670  0.57390  Biso   1.000  H
  C154     1.0000 0.09030  0.69750  0.50100  Biso   1.000  C
  H92      1.0000 0.05630  0.73660  0.49290  Biso   1.000  H
  C155     1.0000 0.14730  0.71570  0.53580  Biso   1.000  C
  H93      1.0000 0.15320  0.76710  0.55230  Biso   1.000  H
  C156     1.0000 0.08070  0.62010  0.47640  Biso   1.000  C
  C157     1.0000 0.68810  0.50350  0.21500  Biso   1.000  C
  H94      1.0000 0.65310  0.51060  0.18450  Biso   1.000  H
  C158     1.0000 0.70150  0.56220  0.25820  Biso   1.000  C
  H95      1.0000 0.67010  0.60390  0.25750  Biso   1.000  H
  C159     1.0000 0.79780  0.49460  0.30460  Biso   1.000  C
  C160     1.0000 0.85140  0.48360  0.35070  Biso   1.000  C
  H96      1.0000 0.86010  0.52420  0.37770  Biso   1.000  H
  C161     1.0000 0.89170  0.41340  0.35660  Biso   1.000  C
  H97      1.0000 0.93030  0.41100  0.38440  Biso   1.000  H
  C162     1.0000 0.87410  0.34730  0.32120  Biso   1.000  C
  H98      1.0000 0.89620  0.29740  0.32900  Biso   1.000  H
  C163     1.0000 0.82370  0.35570  0.27440  Biso   1.000  C
  H99      1.0000 0.81520  0.31260  0.24930  Biso   1.000  H
  C164     1.0000 0.78480  0.42850  0.26370  Biso   1.000  C
  C165     1.0000 0.43890  0.57330  0.42660  Biso   1.000  C
  H100     1.0000 0.39660  0.58850  0.43220  Biso   1.000  H
  C166     1.0000 0.48410  0.63370  0.41570  Biso   1.000  C
  H101     1.0000 0.47060  0.68820  0.41280  Biso   1.000  H
  C167     1.0000 0.56730  0.52710  0.40640  Biso   1.000  C
  C168     1.0000 0.62910  0.50590  0.39510  Biso   1.000  C
  H102     1.0000 0.65830  0.54660  0.38820  Biso   1.000  H
  C169     1.0000 0.64740  0.42720  0.39400  Biso   1.000  C
  H103     1.0000 0.68840  0.41340  0.38520  Biso   1.000  H
  C170     1.0000 0.60360  0.36540  0.40620  Biso   1.000  C
  H104     1.0000 0.61600  0.31060  0.40650  Biso   1.000  H
  C171     1.0000 0.54430  0.38760  0.41720  Biso   1.000  C
  H105     1.0000 0.51540  0.34560  0.42290  Biso   1.000  H
  C172     1.0000 0.52110  0.46870  0.42110  Biso   1.000  C
  C173     1.0000 0.00700  0.52290  0.44700  Biso   1.000  C
  H106     1.0000 0.96280  0.50690  0.44630  Biso   1.000  H
  C174     1.0000 0.05770  0.46260  0.45180  Biso   1.000  C
  H107     1.0000 0.04590  0.40760  0.44840  Biso   1.000  H
  C175     1.0000 0.14130  0.56830  0.46970  Biso   1.000  C
  C176     1.0000 0.20740  0.59520  0.49110  Biso   1.000  C
  H108     1.0000 0.24290  0.55810  0.49550  Biso   1.000  H
  C177     1.0000 0.21990  0.67610  0.50580  Biso   1.000  C
  H109     1.0000 0.26360  0.69210  0.52180  Biso   1.000  H
  C178     1.0000 0.16910  0.73380  0.49710  Biso   1.000  C
  H110     1.0000 0.17840  0.78780  0.50790  Biso   1.000  H
  C179     1.0000 0.10700  0.71170  0.47350  Biso   1.000  C
  H111     1.0000 0.07360  0.75140  0.46490  Biso   1.000  H
  C180     1.0000 0.09060  0.62810  0.46110  Biso   1.000  C
  Co10     1.0000 0.36665  0.25376  0.40000  Biso   1.000  Co
  Co11     1.0000 0.19967  0.26655  0.39338  Biso   1.000  Co
  Co12     1.0000 0.31133  0.36937  0.48825  Biso   1.000  Co
  O40      1.0000 0.29213  0.26615  0.44584  Biso   1.000  O
  H112     1.0000 0.29430  0.22620  0.46820  Biso   1.000  H
  O41      1.0000 0.16493  0.84100  0.15907  Biso   1.000  O
  O42      1.0000 0.27443  0.85170  0.15893  Biso   1.000  O
  O43      1.0000 0.21210  0.17320  0.34220  Biso   1.000  O
  O44      1.0000 0.32302  0.15830  0.35208  Biso   1.000  O
  C181     1.0000 0.22220  0.86960  0.17600  Biso   1.000  C
  C182     1.0000 0.26390  0.13740  0.33421  Biso   1.000  C
  C183     1.0000 0.23070  0.93340  0.22040  Biso   1.000  C
  C184     1.0000 0.25140  0.06290  0.29730  Biso   1.000  C
  C185     1.0000 0.19940  0.00100  0.20880  Biso   1.000  C
  H113     1.0000 0.17110  0.00510  0.17410  Biso   1.000  H
  C186     1.0000 0.20320  0.07320  0.24400  Biso   1.000  C
  H114     1.0000 0.17820  0.12050  0.23420  Biso   1.000  H
  C187     1.0000 0.28140  0.98530  0.31380  Biso   1.000  C
  C188     1.0000 0.32300  0.97380  0.36610  Biso   1.000  C
  H115     1.0000 0.32940  0.01620  0.39180  Biso   1.000  H
  C189     1.0000 0.35370  0.90060  0.37900  Biso   1.000  C
  H116     1.0000 0.38210  0.89360  0.41330  Biso   1.000  H
  C190     1.0000 0.34360  0.83580  0.34160  Biso   1.000  C
  H117     1.0000 0.36300  0.78520  0.35240  Biso   1.000  H
  C191     1.0000 0.30630  0.84490  0.29030  Biso   1.000  C
  H118     1.0000 0.30200  0.80230  0.26480  Biso   1.000  H
  C192     1.0000 0.27420  0.91980  0.27620  Biso   1.000  C
  O45      1.0000 0.92009  0.85610  0.44838  Biso   1.000  O
  O46      1.0000 0.85538  0.96000  0.45770  Biso   1.000  O
  O47      1.0000 0.15287  0.17929  0.43808  Biso   1.000  O
  O48      1.0000 0.08587  0.22960  0.36544  Biso   1.000  O
  C193     1.0000 0.90810  0.93090  0.44544  Biso   1.000  C
  C194     1.0000 0.09590  0.17930  0.40306  Biso   1.000  C
  C195     1.0000 0.95710  0.99150  0.42898  Biso   1.000  C
  C196     1.0000 0.04620  0.11400  0.40946  Biso   1.000  C
  C197     1.0000 0.94620  0.07320  0.44030  Biso   1.000  C
  H119     1.0000 0.90850  0.08680  0.45460  Biso   1.000  H
  C198     1.0000 0.98950  0.13520  0.43100  Biso   1.000  C
  H120     1.0000 0.98120  0.18940  0.43890  Biso   1.000  H
  C199     1.0000 0.05830  0.03500  0.39900  Biso   1.000  C
  C200     1.0000 0.11590  0.01310  0.37420  Biso   1.000  C
  H121     1.0000 0.14390  0.05450  0.36600  Biso   1.000  H
  C201     1.0000 0.12950  0.93450  0.36280  Biso   1.000  C
  H122     1.0000 0.16900  0.92130  0.35100  Biso   1.000  H
  C202     1.0000 0.08370  0.87370  0.36910  Biso   1.000  C
  H123     1.0000 0.09080  0.82110  0.35700  Biso   1.000  H
  C203     1.0000 0.02750  0.88750  0.39240  Biso   1.000  C
  H124     1.0000 0.00040  0.84490  0.40020  Biso   1.000  H
  C204     1.0000 0.01440  0.96940  0.40350  Biso   1.000  C
  O49      1.0000 0.42090  0.16840  0.45739  Biso   1.000  O
  O50      1.0000 0.46173  0.20850  0.38708  Biso   1.000  O
  O51      1.0000 0.65912  0.86130  0.42878  Biso   1.000  O
  O52      1.0000 0.72659  0.91750  0.49997  Biso   1.000  O
  C205     1.0000 0.46500  0.16460  0.42940  Biso   1.000  C
  C206     1.0000 0.67320  0.91630  0.46349  Biso   1.000  C
  C207     1.0000 0.52120  0.10340  0.44350  Biso   1.000  C
  C208     1.0000 0.62270  0.98420  0.46119  Biso   1.000  C
  C209     1.0000 0.50980  0.02660  0.41450  Biso   1.000  C
  H125     1.0000 0.46950  0.01630  0.38990  Biso   1.000  H
  C210     1.0000 0.56100  0.96810  0.42430  Biso   1.000  C
  H126     1.0000 0.55450  0.91780  0.40630  Biso   1.000  H
  C211     1.0000 0.63350  0.06080  0.48740  Biso   1.000  C
  C212     1.0000 0.69340  0.08260  0.52270  Biso   1.000  C
  H127     1.0000 0.72930  0.04600  0.52860  Biso   1.000  H
  C213     1.0000 0.70030  0.15510  0.54810  Biso   1.000  C
  H128     1.0000 0.73940  0.16670  0.57390  Biso   1.000  H
  C214     1.0000 0.59030  0.19750  0.50100  Biso   1.000  C
  H129     1.0000 0.55630  0.23660  0.49290  Biso   1.000  H
  C215     1.0000 0.64730  0.21570  0.53580  Biso   1.000  C
  H130     1.0000 0.65320  0.26710  0.55230  Biso   1.000  H
  C216     1.0000 0.58070  0.12010  0.47640  Biso   1.000  C
  C217     1.0000 0.18810  0.00350  0.21500  Biso   1.000  C
  H131     1.0000 0.15310  0.01060  0.18450  Biso   1.000  H
  C218     1.0000 0.20150  0.06220  0.25820  Biso   1.000  C
  H132     1.0000 0.17010  0.10390  0.25750  Biso   1.000  H
  C219     1.0000 0.29780  0.99460  0.30460  Biso   1.000  C
  C220     1.0000 0.35140  0.98360  0.35070  Biso   1.000  C
  H133     1.0000 0.36010  0.02420  0.37770  Biso   1.000  H
  C221     1.0000 0.39170  0.91340  0.35660  Biso   1.000  C
  H134     1.0000 0.43030  0.91100  0.38440  Biso   1.000  H
  C222     1.0000 0.37410  0.84730  0.32120  Biso   1.000  C
  H135     1.0000 0.39620  0.79740  0.32900  Biso   1.000  H
  C223     1.0000 0.32370  0.85570  0.27440  Biso   1.000  C
  H136     1.0000 0.31520  0.81260  0.24930  Biso   1.000  H
  C224     1.0000 0.28480  0.92850  0.26370  Biso   1.000  C
  C225     1.0000 0.93890  0.07330  0.42660  Biso   1.000  C
  H137     1.0000 0.89660  0.08850  0.43220  Biso   1.000  H
  C226     1.0000 0.98410  0.13370  0.41570  Biso   1.000  C
  H138     1.0000 0.97060  0.18820  0.41280  Biso   1.000  H
  C227     1.0000 0.06730  0.02710  0.40640  Biso   1.000  C
  C228     1.0000 0.12910  0.00590  0.39510  Biso   1.000  C
  H139     1.0000 0.15830  0.04660  0.38820  Biso   1.000  H
  C229     1.0000 0.14740  0.92720  0.39400  Biso   1.000  C
  H140     1.0000 0.18840  0.91340  0.38520  Biso   1.000  H
  C230     1.0000 0.10360  0.86540  0.40620  Biso   1.000  C
  H141     1.0000 0.11600  0.81060  0.40650  Biso   1.000  H
  C231     1.0000 0.04430  0.88760  0.41720  Biso   1.000  C
  H142     1.0000 0.01540  0.84560  0.42290  Biso   1.000  H
  C232     1.0000 0.02110  0.96870  0.42110  Biso   1.000  C
  C233     1.0000 0.50700  0.02290  0.44700  Biso   1.000  C
  H143     1.0000 0.46280  0.00690  0.44630  Biso   1.000  H
  C234     1.0000 0.55770  0.96260  0.45180  Biso   1.000  C
  H144     1.0000 0.54590  0.90760  0.44840  Biso   1.000  H
  C235     1.0000 0.64130  0.06830  0.46970  Biso   1.000  C
  C236     1.0000 0.70740  0.09520  0.49110  Biso   1.000  C
  H145     1.0000 0.74290  0.05810  0.49550  Biso   1.000  H
  C237     1.0000 0.71990  0.17610  0.50580  Biso   1.000  C
  H146     1.0000 0.76360  0.19210  0.52180  Biso   1.000  H
  C238     1.0000 0.66910  0.23380  0.49710  Biso   1.000  C
  H147     1.0000 0.67840  0.28780  0.50790  Biso   1.000  H
  C239     1.0000 0.60700  0.21170  0.47350  Biso   1.000  C
  H148     1.0000 0.57360  0.25140  0.46490  Biso   1.000  H
  C240     1.0000 0.59060  0.12810  0.46110  Biso   1.000  C
  Co13     1.0000 0.86665  0.24624  0.90000  Biso   1.000  Co
  Co14     1.0000 0.69967  0.23345  0.89338  Biso   1.000  Co
  Co15     1.0000 0.81133  0.13063  0.98825  Biso   1.000  Co
  O53      1.0000 0.79213  0.23385  0.94584  Biso   1.000  O
  H149     1.0000 0.79430  0.27380  0.96820  Biso   1.000  H
  O54      1.0000 0.66493  0.65900  0.65907  Biso   1.000  O
  O55      1.0000 0.77443  0.64830  0.65893  Biso   1.000  O
  O56      1.0000 0.71210  0.32680  0.84220  Biso   1.000  O
  O57      1.0000 0.82302  0.34170  0.85208  Biso   1.000  O
  C241     1.0000 0.72220  0.63040  0.67600  Biso   1.000  C
  C242     1.0000 0.76390  0.36260  0.83421  Biso   1.000  C
  C243     1.0000 0.73070  0.56660  0.72040  Biso   1.000  C
  C244     1.0000 0.75140  0.43710  0.79730  Biso   1.000  C
  C245     1.0000 0.69940  0.49900  0.70880  Biso   1.000  C
  H150     1.0000 0.67110  0.49490  0.67410  Biso   1.000  H
  C246     1.0000 0.70320  0.42680  0.74400  Biso   1.000  C
  H151     1.0000 0.67820  0.37950  0.73420  Biso   1.000  H
  C247     1.0000 0.78140  0.51470  0.81380  Biso   1.000  C
  C248     1.0000 0.82300  0.52620  0.86610  Biso   1.000  C
  H152     1.0000 0.82940  0.48380  0.89180  Biso   1.000  H
  C249     1.0000 0.85370  0.59940  0.87900  Biso   1.000  C
  H153     1.0000 0.88210  0.60640  0.91330  Biso   1.000  H
  C250     1.0000 0.84360  0.66420  0.84160  Biso   1.000  C
  H154     1.0000 0.86300  0.71480  0.85240  Biso   1.000  H
  C251     1.0000 0.80630  0.65510  0.79030  Biso   1.000  C
  H155     1.0000 0.80200  0.69770  0.76480  Biso   1.000  H
  C252     1.0000 0.77420  0.58020  0.77620  Biso   1.000  C
  O58      1.0000 0.42009  0.64390  0.94838  Biso   1.000  O
  O59      1.0000 0.35538  0.54000  0.95770  Biso   1.000  O
  O60      1.0000 0.65287  0.32071  0.93808  Biso   1.000  O
  O61      1.0000 0.58587  0.27040  0.86544  Biso   1.000  O
  C253     1.0000 0.40810  0.56910  0.94544  Biso   1.000  C
  C254     1.0000 0.59590  0.32070  0.90306  Biso   1.000  C
  C255     1.0000 0.45710  0.50850  0.92898  Biso   1.000  C
  C256     1.0000 0.54620  0.38600  0.90946  Biso   1.000  C
  C257     1.0000 0.44620  0.42680  0.94030  Biso   1.000  C
  H156     1.0000 0.40850  0.41320  0.95460  Biso   1.000  H
  C258     1.0000 0.48950  0.36480  0.93100  Biso   1.000  C
  H157     1.0000 0.48120  0.31060  0.93890  Biso   1.000  H
  C259     1.0000 0.55830  0.46500  0.89900  Biso   1.000  C
  C260     1.0000 0.61590  0.48690  0.87420  Biso   1.000  C
  H158     1.0000 0.64390  0.44550  0.86600  Biso   1.000  H
  C261     1.0000 0.62950  0.56550  0.86280  Biso   1.000  C
  H159     1.0000 0.66900  0.57870  0.85100  Biso   1.000  H
  C262     1.0000 0.58370  0.62630  0.86910  Biso   1.000  C
  H160     1.0000 0.59080  0.67890  0.85700  Biso   1.000  H
  C263     1.0000 0.52750  0.61250  0.89240  Biso   1.000  C
  H161     1.0000 0.50040  0.65510  0.90020  Biso   1.000  H
  C264     1.0000 0.51440  0.53060  0.90350  Biso   1.000  C
  O62      1.0000 0.92090  0.33160  0.95739  Biso   1.000  O
  O63      1.0000 0.96173  0.29150  0.88708  Biso   1.000  O
  O64      1.0000 0.15912  0.63870  0.92878  Biso   1.000  O
  O65      1.0000 0.22659  0.58250  0.99997  Biso   1.000  O
  C265     1.0000 0.96500  0.33540  0.92940  Biso   1.000  C
  C266     1.0000 0.17320  0.58370  0.96349  Biso   1.000  C
  C267     1.0000 0.02120  0.39660  0.94350  Biso   1.000  C
  C268     1.0000 0.12270  0.51580  0.96119  Biso   1.000  C
  C269     1.0000 0.00980  0.47340  0.91450  Biso   1.000  C
  H162     1.0000 0.96950  0.48370  0.88990  Biso   1.000  H
  C270     1.0000 0.06100  0.53190  0.92430  Biso   1.000  C
  H163     1.0000 0.05450  0.58220  0.90630  Biso   1.000  H
  C271     1.0000 0.13350  0.43920  0.98740  Biso   1.000  C
  C272     1.0000 0.19340  0.41740  0.02270  Biso   1.000  C
  H164     1.0000 0.22930  0.45400  0.02860  Biso   1.000  H
  C273     1.0000 0.20030  0.34490  0.04810  Biso   1.000  C
  H165     1.0000 0.23940  0.33330  0.07390  Biso   1.000  H
  C274     1.0000 0.09030  0.30250  0.00100  Biso   1.000  C
  H166     1.0000 0.05630  0.26340  0.99290  Biso   1.000  H
  C275     1.0000 0.14730  0.28430  0.03580  Biso   1.000  C
  H167     1.0000 0.15320  0.23290  0.05230  Biso   1.000  H
  C276     1.0000 0.08070  0.37990  0.97640  Biso   1.000  C
  C277     1.0000 0.68810  0.49650  0.71500  Biso   1.000  C
  H168     1.0000 0.65310  0.48940  0.68450  Biso   1.000  H
  C278     1.0000 0.70150  0.43780  0.75820  Biso   1.000  C
  H169     1.0000 0.67010  0.39610  0.75750  Biso   1.000  H
  C279     1.0000 0.79780  0.50540  0.80460  Biso   1.000  C
  C280     1.0000 0.85140  0.51640  0.85070  Biso   1.000  C
  H170     1.0000 0.86010  0.47580  0.87770  Biso   1.000  H
  C281     1.0000 0.89170  0.58660  0.85660  Biso   1.000  C
  H171     1.0000 0.93030  0.58900  0.88440  Biso   1.000  H
  C282     1.0000 0.87410  0.65270  0.82120  Biso   1.000  C
  H172     1.0000 0.89620  0.70260  0.82900  Biso   1.000  H
  C283     1.0000 0.82370  0.64430  0.77440  Biso   1.000  C
  H173     1.0000 0.81520  0.68740  0.74930  Biso   1.000  H
  C284     1.0000 0.78480  0.57150  0.76370  Biso   1.000  C
  C285     1.0000 0.43890  0.42670  0.92660  Biso   1.000  C
  H174     1.0000 0.39660  0.41150  0.93220  Biso   1.000  H
  C286     1.0000 0.48410  0.36630  0.91570  Biso   1.000  C
  H175     1.0000 0.47060  0.31180  0.91280  Biso   1.000  H
  C287     1.0000 0.56730  0.47290  0.90640  Biso   1.000  C
  C288     1.0000 0.62910  0.49410  0.89510  Biso   1.000  C
  H176     1.0000 0.65830  0.45340  0.88820  Biso   1.000  H
  C289     1.0000 0.64740  0.57280  0.89400  Biso   1.000  C
  H177     1.0000 0.68840  0.58660  0.88520  Biso   1.000  H
  C290     1.0000 0.60360  0.63460  0.90620  Biso   1.000  C
  H178     1.0000 0.61600  0.68940  0.90650  Biso   1.000  H
  C291     1.0000 0.54430  0.61240  0.91720  Biso   1.000  C
  H179     1.0000 0.51540  0.65440  0.92290  Biso   1.000  H
  C292     1.0000 0.52110  0.53130  0.92110  Biso   1.000  C
  C293     1.0000 0.00700  0.47710  0.94700  Biso   1.000  C
  H180     1.0000 0.96280  0.49310  0.94630  Biso   1.000  H
  C294     1.0000 0.05770  0.53740  0.95180  Biso   1.000  C
  H181     1.0000 0.04590  0.59240  0.94840  Biso   1.000  H
  C295     1.0000 0.14130  0.43170  0.96970  Biso   1.000  C
  C296     1.0000 0.20740  0.40480  0.99110  Biso   1.000  C
  H182     1.0000 0.24290  0.44190  0.99550  Biso   1.000  H
  C297     1.0000 0.21990  0.32390  0.00580  Biso   1.000  C
  H183     1.0000 0.26360  0.30790  0.02180  Biso   1.000  H
  C298     1.0000 0.16910  0.26620  0.99710  Biso   1.000  C
  H184     1.0000 0.17840  0.21220  0.00790  Biso   1.000  H
  C299     1.0000 0.10700  0.28830  0.97350  Biso   1.000  C
  H185     1.0000 0.07360  0.24860  0.96490  Biso   1.000  H
  C300     1.0000 0.09060  0.37190  0.96110  Biso   1.000  C
  Co16     1.0000 0.36665  0.74624  0.90000  Biso   1.000  Co
  Co17     1.0000 0.19967  0.73345  0.89338  Biso   1.000  Co
  Co18     1.0000 0.31133  0.63063  0.98825  Biso   1.000  Co
  O66      1.0000 0.29213  0.73385  0.94584  Biso   1.000  O
  H186     1.0000 0.29430  0.77380  0.96820  Biso   1.000  H
  O67      1.0000 0.16493  0.15900  0.65907  Biso   1.000  O
  O68      1.0000 0.27443  0.14830  0.65893  Biso   1.000  O
  O69      1.0000 0.21210  0.82680  0.84220  Biso   1.000  O
  O70      1.0000 0.32302  0.84170  0.85208  Biso   1.000  O
  C301     1.0000 0.22220  0.13040  0.67600  Biso   1.000  C
  C302     1.0000 0.26390  0.86260  0.83421  Biso   1.000  C
  C303     1.0000 0.23070  0.06660  0.72040  Biso   1.000  C
  C304     1.0000 0.25140  0.93710  0.79730  Biso   1.000  C
  C305     1.0000 0.19940  0.99900  0.70880  Biso   1.000  C
  H187     1.0000 0.17110  0.99490  0.67410  Biso   1.000  H
  C306     1.0000 0.20320  0.92680  0.74400  Biso   1.000  C
  H188     1.0000 0.17820  0.87950  0.73420  Biso   1.000  H
  C307     1.0000 0.28140  0.01470  0.81380  Biso   1.000  C
  C308     1.0000 0.32300  0.02620  0.86610  Biso   1.000  C
  H189     1.0000 0.32940  0.98380  0.89180  Biso   1.000  H
  C309     1.0000 0.35370  0.09940  0.87900  Biso   1.000  C
  H190     1.0000 0.38210  0.10640  0.91330  Biso   1.000  H
  C310     1.0000 0.34360  0.16420  0.84160  Biso   1.000  C
  H191     1.0000 0.36300  0.21480  0.85240  Biso   1.000  H
  C311     1.0000 0.30630  0.15510  0.79030  Biso   1.000  C
  H192     1.0000 0.30200  0.19770  0.76480  Biso   1.000  H
  C312     1.0000 0.27420  0.08020  0.77620  Biso   1.000  C
  O71      1.0000 0.92009  0.14390  0.94838  Biso   1.000  O
  O72      1.0000 0.85538  0.04000  0.95770  Biso   1.000  O
  O73      1.0000 0.15287  0.82071  0.93808  Biso   1.000  O
  O74      1.0000 0.08587  0.77040  0.86544  Biso   1.000  O
  C313     1.0000 0.90810  0.06910  0.94544  Biso   1.000  C
  C314     1.0000 0.09590  0.82070  0.90306  Biso   1.000  C
  C315     1.0000 0.95710  0.00850  0.92898  Biso   1.000  C
  C316     1.0000 0.04620  0.88600  0.90946  Biso   1.000  C
  C317     1.0000 0.94620  0.92680  0.94030  Biso   1.000  C
  H193     1.0000 0.90850  0.91320  0.95460  Biso   1.000  H
  C318     1.0000 0.98950  0.86480  0.93100  Biso   1.000  C
  H194     1.0000 0.98120  0.81060  0.93890  Biso   1.000  H
  C319     1.0000 0.05830  0.96500  0.89900  Biso   1.000  C
  C320     1.0000 0.11590  0.98690  0.87420  Biso   1.000  C
  H195     1.0000 0.14390  0.94550  0.86600  Biso   1.000  H
  C321     1.0000 0.12950  0.06550  0.86280  Biso   1.000  C
  H196     1.0000 0.16900  0.07870  0.85100  Biso   1.000  H
  C322     1.0000 0.08370  0.12630  0.86910  Biso   1.000  C
  H197     1.0000 0.09080  0.17890  0.85700  Biso   1.000  H
  C323     1.0000 0.02750  0.11250  0.89240  Biso   1.000  C
  H198     1.0000 0.00040  0.15510  0.90020  Biso   1.000  H
  C324     1.0000 0.01440  0.03060  0.90350  Biso   1.000  C
  O75      1.0000 0.42090  0.83160  0.95739  Biso   1.000  O
  O76      1.0000 0.46173  0.79150  0.88708  Biso   1.000  O
  O77      1.0000 0.65912  0.13870  0.92878  Biso   1.000  O
  O78      1.0000 0.72659  0.08250  0.99997  Biso   1.000  O
  C325     1.0000 0.46500  0.83540  0.92940  Biso   1.000  C
  C326     1.0000 0.67320  0.08370  0.96349  Biso   1.000  C
  C327     1.0000 0.52120  0.89660  0.94350  Biso   1.000  C
  C328     1.0000 0.62270  0.01580  0.96119  Biso   1.000  C
  C329     1.0000 0.50980  0.97340  0.91450  Biso   1.000  C
  H199     1.0000 0.46950  0.98370  0.88990  Biso   1.000  H
  C330     1.0000 0.56100  0.03190  0.92430  Biso   1.000  C
  H200     1.0000 0.55450  0.08220  0.90630  Biso   1.000  H
  C331     1.0000 0.63350  0.93920  0.98740  Biso   1.000  C
  C332     1.0000 0.69340  0.91740  0.02270  Biso   1.000  C
  H201     1.0000 0.72930  0.95400  0.02860  Biso   1.000  H
  C333     1.0000 0.70030  0.84490  0.04810  Biso   1.000  C
  H202     1.0000 0.73940  0.83330  0.07390  Biso   1.000  H
  C334     1.0000 0.59030  0.80250  0.00100  Biso   1.000  C
  H203     1.0000 0.55630  0.76340  0.99290  Biso   1.000  H
  C335     1.0000 0.64730  0.78430  0.03580  Biso   1.000  C
  H204     1.0000 0.65320  0.73290  0.05230  Biso   1.000  H
  C336     1.0000 0.58070  0.87990  0.97640  Biso   1.000  C
  C337     1.0000 0.18810  0.99650  0.71500  Biso   1.000  C
  H205     1.0000 0.15310  0.98940  0.68450  Biso   1.000  H
  C338     1.0000 0.20150  0.93780  0.75820  Biso   1.000  C
  H206     1.0000 0.17010  0.89610  0.75750  Biso   1.000  H
  C339     1.0000 0.29780  0.00540  0.80460  Biso   1.000  C
  C340     1.0000 0.35140  0.01640  0.85070  Biso   1.000  C
  H207     1.0000 0.36010  0.97580  0.87770  Biso   1.000  H
  C341     1.0000 0.39170  0.08660  0.85660  Biso   1.000  C
  H208     1.0000 0.43030  0.08900  0.88440  Biso   1.000  H
  C342     1.0000 0.37410  0.15270  0.82120  Biso   1.000  C
  H209     1.0000 0.39620  0.20260  0.82900  Biso   1.000  H
  C343     1.0000 0.32370  0.14430  0.77440  Biso   1.000  C
  H210     1.0000 0.31520  0.18740  0.74930  Biso   1.000  H
  C344     1.0000 0.28480  0.07150  0.76370  Biso   1.000  C
  C345     1.0000 0.93890  0.92670  0.92660  Biso   1.000  C
  H211     1.0000 0.89660  0.91150  0.93220  Biso   1.000  H
  C346     1.0000 0.98410  0.86630  0.91570  Biso   1.000  C
  H212     1.0000 0.97060  0.81180  0.91280  Biso   1.000  H
  C347     1.0000 0.06730  0.97290  0.90640  Biso   1.000  C
  C348     1.0000 0.12910  0.99410  0.89510  Biso   1.000  C
  H213     1.0000 0.15830  0.95340  0.88820  Biso   1.000  H
  C349     1.0000 0.14740  0.07280  0.89400  Biso   1.000  C
  H214     1.0000 0.18840  0.08660  0.88520  Biso   1.000  H
  C350     1.0000 0.10360  0.13460  0.90620  Biso   1.000  C
  H215     1.0000 0.11600  0.18940  0.90650  Biso   1.000  H
  C351     1.0000 0.04430  0.11240  0.91720  Biso   1.000  C
  H216     1.0000 0.01540  0.15440  0.92290  Biso   1.000  H
  C352     1.0000 0.02110  0.03130  0.92110  Biso   1.000  C
  C353     1.0000 0.50700  0.97710  0.94700  Biso   1.000  C
  H217     1.0000 0.46280  0.99310  0.94630  Biso   1.000  H
  C354     1.0000 0.55770  0.03740  0.95180  Biso   1.000  C
  H218     1.0000 0.54590  0.09240  0.94840  Biso   1.000  H
  C355     1.0000 0.64130  0.93170  0.96970  Biso   1.000  C
  C356     1.0000 0.70740  0.90480  0.99110  Biso   1.000  C
  H219     1.0000 0.74290  0.94190  0.99550  Biso   1.000  H
  C357     1.0000 0.71990  0.82390  0.00580  Biso   1.000  C
  H220     1.0000 0.76360  0.80790  0.02180  Biso   1.000  H
  C358     1.0000 0.66910  0.76620  0.99710  Biso   1.000  C
  H221     1.0000 0.67840  0.71220  0.00790  Biso   1.000  H
  C359     1.0000 0.60700  0.78830  0.97350  Biso   1.000  C
  H222     1.0000 0.57360  0.74860  0.96490  Biso   1.000  H
  C360     1.0000 0.59060  0.87190  0.96110  Biso   1.000  C
  Co19     1.0000 0.13335  0.24624  0.60000  Biso   1.000  Co
  Co20     1.0000 0.30033  0.23345  0.60662  Biso   1.000  Co
  Co21     1.0000 0.18867  0.13063  0.51175  Biso   1.000  Co
  O79      1.0000 0.20787  0.23385  0.55416  Biso   1.000  O
  H223     1.0000 0.20570  0.27380  0.53180  Biso   1.000  H
  O80      1.0000 0.33507  0.65900  0.84093  Biso   1.000  O
  O81      1.0000 0.22557  0.64830  0.84107  Biso   1.000  O
  O82      1.0000 0.28790  0.32680  0.65780  Biso   1.000  O
  O83      1.0000 0.17698  0.34170  0.64792  Biso   1.000  O
  C361     1.0000 0.27780  0.63040  0.82400  Biso   1.000  C
  C362     1.0000 0.23610  0.36260  0.66579  Biso   1.000  C
  C363     1.0000 0.26930  0.56660  0.77960  Biso   1.000  C
  C364     1.0000 0.24860  0.43710  0.70270  Biso   1.000  C
  C365     1.0000 0.30060  0.49900  0.79120  Biso   1.000  C
  H224     1.0000 0.32890  0.49490  0.82590  Biso   1.000  H
  C366     1.0000 0.29680  0.42680  0.75600  Biso   1.000  C
  H225     1.0000 0.32180  0.37950  0.76580  Biso   1.000  H
  C367     1.0000 0.21860  0.51470  0.68620  Biso   1.000  C
  C368     1.0000 0.17700  0.52620  0.63390  Biso   1.000  C
  H226     1.0000 0.17060  0.48380  0.60820  Biso   1.000  H
  C369     1.0000 0.14630  0.59940  0.62100  Biso   1.000  C
  H227     1.0000 0.11790  0.60640  0.58670  Biso   1.000  H
  C370     1.0000 0.15640  0.66420  0.65840  Biso   1.000  C
  H228     1.0000 0.13700  0.71480  0.64760  Biso   1.000  H
  C371     1.0000 0.19370  0.65510  0.70970  Biso   1.000  C
  H229     1.0000 0.19800  0.69770  0.73520  Biso   1.000  H
  C372     1.0000 0.22580  0.58020  0.72380  Biso   1.000  C
  O84      1.0000 0.57991  0.64390  0.55162  Biso   1.000  O
  O85      1.0000 0.64462  0.54000  0.54230  Biso   1.000  O
  O86      1.0000 0.34713  0.32071  0.56192  Biso   1.000  O
  O87      1.0000 0.41413  0.27040  0.63456  Biso   1.000  O
  C373     1.0000 0.59190  0.56910  0.55456  Biso   1.000  C
  C374     1.0000 0.40410  0.32070  0.59694  Biso   1.000  C
  C375     1.0000 0.54290  0.50850  0.57102  Biso   1.000  C
  C376     1.0000 0.45380  0.38600  0.59054  Biso   1.000  C
  C377     1.0000 0.55380  0.42680  0.55970  Biso   1.000  C
  H230     1.0000 0.59150  0.41320  0.54540  Biso   1.000  H
  C378     1.0000 0.51050  0.36480  0.56900  Biso   1.000  C
  H231     1.0000 0.51880  0.31060  0.56110  Biso   1.000  H
  C379     1.0000 0.44170  0.46500  0.60100  Biso   1.000  C
  C380     1.0000 0.38410  0.48690  0.62580  Biso   1.000  C
  H232     1.0000 0.35610  0.44550  0.63400  Biso   1.000  H
  C381     1.0000 0.37050  0.56550  0.63720  Biso   1.000  C
  H233     1.0000 0.33100  0.57870  0.64900  Biso   1.000  H
  C382     1.0000 0.41630  0.62630  0.63090  Biso   1.000  C
  H234     1.0000 0.40920  0.67890  0.64300  Biso   1.000  H
  C383     1.0000 0.47250  0.61250  0.60760  Biso   1.000  C
  H235     1.0000 0.49960  0.65510  0.59980  Biso   1.000  H
  C384     1.0000 0.48560  0.53060  0.59650  Biso   1.000  C
  O88      1.0000 0.07910  0.33160  0.54261  Biso   1.000  O
  O89      1.0000 0.03827  0.29150  0.61292  Biso   1.000  O
  O90      1.0000 0.84088  0.63870  0.57122  Biso   1.000  O
  O91      1.0000 0.77341  0.58250  0.50003  Biso   1.000  O
  C385     1.0000 0.03500  0.33540  0.57060  Biso   1.000  C
  C386     1.0000 0.82680  0.58370  0.53651  Biso   1.000  C
  C387     1.0000 0.97880  0.39660  0.55650  Biso   1.000  C
  C388     1.0000 0.87730  0.51580  0.53881  Biso   1.000  C
  C389     1.0000 0.99020  0.47340  0.58550  Biso   1.000  C
  H236     1.0000 0.03050  0.48370  0.61010  Biso   1.000  H
  C390     1.0000 0.93900  0.53190  0.57570  Biso   1.000  C
  H237     1.0000 0.94550  0.58220  0.59370  Biso   1.000  H
  C391     1.0000 0.86650  0.43920  0.51260  Biso   1.000  C
  C392     1.0000 0.80660  0.41740  0.47730  Biso   1.000  C
  H238     1.0000 0.77070  0.45400  0.47140  Biso   1.000  H
  C393     1.0000 0.79970  0.34490  0.45190  Biso   1.000  C
  H239     1.0000 0.76060  0.33330  0.42610  Biso   1.000  H
  C394     1.0000 0.90970  0.30250  0.49900  Biso   1.000  C
  H240     1.0000 0.94370  0.26340  0.50710  Biso   1.000  H
  C395     1.0000 0.85270  0.28430  0.46420  Biso   1.000  C
  H241     1.0000 0.84680  0.23290  0.44770  Biso   1.000  H
  C396     1.0000 0.91930  0.37990  0.52360  Biso   1.000  C
  C397     1.0000 0.31190  0.49650  0.78500  Biso   1.000  C
  H242     1.0000 0.34690  0.48940  0.81550  Biso   1.000  H
  C398     1.0000 0.29850  0.43780  0.74180  Biso   1.000  C
  H243     1.0000 0.32990  0.39610  0.74250  Biso   1.000  H
  C399     1.0000 0.20220  0.50540  0.69540  Biso   1.000  C
  C400     1.0000 0.14860  0.51640  0.64930  Biso   1.000  C
  H244     1.0000 0.13990  0.47580  0.62230  Biso   1.000  H
  C401     1.0000 0.10830  0.58660  0.64340  Biso   1.000  C
  H245     1.0000 0.06970  0.58900  0.61560  Biso   1.000  H
  C402     1.0000 0.12590  0.65270  0.67880  Biso   1.000  C
  H246     1.0000 0.10380  0.70260  0.67100  Biso   1.000  H
  C403     1.0000 0.17630  0.64430  0.72560  Biso   1.000  C
  H247     1.0000 0.18480  0.68740  0.75070  Biso   1.000  H
  C404     1.0000 0.21520  0.57150  0.73630  Biso   1.000  C
  C405     1.0000 0.56110  0.42670  0.57340  Biso   1.000  C
  H248     1.0000 0.60340  0.41150  0.56780  Biso   1.000  H
  C406     1.0000 0.51590  0.36630  0.58430  Biso   1.000  C
  H249     1.0000 0.52940  0.31180  0.58720  Biso   1.000  H
  C407     1.0000 0.43270  0.47290  0.59360  Biso   1.000  C
  C408     1.0000 0.37090  0.49410  0.60490  Biso   1.000  C
  H250     1.0000 0.34170  0.45340  0.61180  Biso   1.000  H
  C409     1.0000 0.35260  0.57280  0.60600  Biso   1.000  C
  H251     1.0000 0.31160  0.58660  0.61480  Biso   1.000  H
  C410     1.0000 0.39640  0.63460  0.59380  Biso   1.000  C
  H252     1.0000 0.38400  0.68940  0.59350  Biso   1.000  H
  C411     1.0000 0.45570  0.61240  0.58280  Biso   1.000  C
  H253     1.0000 0.48460  0.65440  0.57710  Biso   1.000  H
  C412     1.0000 0.47890  0.53130  0.57890  Biso   1.000  C
  C413     1.0000 0.99300  0.47710  0.55300  Biso   1.000  C
  H254     1.0000 0.03720  0.49310  0.55370  Biso   1.000  H
  C414     1.0000 0.94230  0.53740  0.54820  Biso   1.000  C
  H255     1.0000 0.95410  0.59240  0.55160  Biso   1.000  H
  C415     1.0000 0.85870  0.43170  0.53030  Biso   1.000  C
  C416     1.0000 0.79260  0.40480  0.50890  Biso   1.000  C
  H256     1.0000 0.75710  0.44190  0.50450  Biso   1.000  H
  C417     1.0000 0.78010  0.32390  0.49420  Biso   1.000  C
  H257     1.0000 0.73640  0.30790  0.47820  Biso   1.000  H
  C418     1.0000 0.83090  0.26620  0.50290  Biso   1.000  C
  H258     1.0000 0.82160  0.21220  0.49210  Biso   1.000  H
  C419     1.0000 0.89300  0.28830  0.52650  Biso   1.000  C
  H259     1.0000 0.92640  0.24860  0.53510  Biso   1.000  H
  C420     1.0000 0.90940  0.37190  0.53890  Biso   1.000  C
  Co22     1.0000 0.63335  0.74624  0.60000  Biso   1.000  Co
  Co23     1.0000 0.80033  0.73345  0.60662  Biso   1.000  Co
  Co24     1.0000 0.68867  0.63063  0.51175  Biso   1.000  Co
  O92      1.0000 0.70787  0.73385  0.55416  Biso   1.000  O
  H260     1.0000 0.70570  0.77380  0.53180  Biso   1.000  H
  O93      1.0000 0.83507  0.15900  0.84093  Biso   1.000  O
  O94      1.0000 0.72557  0.14830  0.84107  Biso   1.000  O
  O95      1.0000 0.78790  0.82680  0.65780  Biso   1.000  O
  O96      1.0000 0.67698  0.84170  0.64792  Biso   1.000  O
  C421     1.0000 0.77780  0.13040  0.82400  Biso   1.000  C
  C422     1.0000 0.73610  0.86260  0.66579  Biso   1.000  C
  C423     1.0000 0.76930  0.06660  0.77960  Biso   1.000  C
  C424     1.0000 0.74860  0.93710  0.70270  Biso   1.000  C
  C425     1.0000 0.80060  0.99900  0.79120  Biso   1.000  C
  H261     1.0000 0.82890  0.99490  0.82590  Biso   1.000  H
  C426     1.0000 0.79680  0.92680  0.75600  Biso   1.000  C
  H262     1.0000 0.82180  0.87950  0.76580  Biso   1.000  H
  C427     1.0000 0.71860  0.01470  0.68620  Biso   1.000  C
  C428     1.0000 0.67700  0.02620  0.63390  Biso   1.000  C
  H263     1.0000 0.67060  0.98380  0.60820  Biso   1.000  H
  C429     1.0000 0.64630  0.09940  0.62100  Biso   1.000  C
  H264     1.0000 0.61790  0.10640  0.58670  Biso   1.000  H
  C430     1.0000 0.65640  0.16420  0.65840  Biso   1.000  C
  H265     1.0000 0.63700  0.21480  0.64760  Biso   1.000  H
  C431     1.0000 0.69370  0.15510  0.70970  Biso   1.000  C
  H266     1.0000 0.69800  0.19770  0.73520  Biso   1.000  H
  C432     1.0000 0.72580  0.08020  0.72380  Biso   1.000  C
  O97      1.0000 0.07991  0.14390  0.55162  Biso   1.000  O
  O98      1.0000 0.14462  0.04000  0.54230  Biso   1.000  O
  O99      1.0000 0.84713  0.82071  0.56192  Biso   1.000  O
  O100     1.0000 0.91413  0.77040  0.63456  Biso   1.000  O
  C433     1.0000 0.09190  0.06910  0.55456  Biso   1.000  C
  C434     1.0000 0.90410  0.82070  0.59694  Biso   1.000  C
  C435     1.0000 0.04290  0.00850  0.57102  Biso   1.000  C
  C436     1.0000 0.95380  0.88600  0.59054  Biso   1.000  C
  C437     1.0000 0.05380  0.92680  0.55970  Biso   1.000  C
  H267     1.0000 0.09150  0.91320  0.54540  Biso   1.000  H
  C438     1.0000 0.01050  0.86480  0.56900  Biso   1.000  C
  H268     1.0000 0.01880  0.81060  0.56110  Biso   1.000  H
  C439     1.0000 0.94170  0.96500  0.60100  Biso   1.000  C
  C440     1.0000 0.88410  0.98690  0.62580  Biso   1.000  C
  H269     1.0000 0.85610  0.94550  0.63400  Biso   1.000  H
  C441     1.0000 0.87050  0.06550  0.63720  Biso   1.000  C
  H270     1.0000 0.83100  0.07870  0.64900  Biso   1.000  H
  C442     1.0000 0.91630  0.12630  0.63090  Biso   1.000  C
  H271     1.0000 0.90920  0.17890  0.64300  Biso   1.000  H
  C443     1.0000 0.97250  0.11250  0.60760  Biso   1.000  C
  H272     1.0000 0.99960  0.15510  0.59980  Biso   1.000  H
  C444     1.0000 0.98560  0.03060  0.59650  Biso   1.000  C
  O101     1.0000 0.57910  0.83160  0.54261  Biso   1.000  O
  O102     1.0000 0.53827  0.79150  0.61292  Biso   1.000  O
  O103     1.0000 0.34088  0.13870  0.57122  Biso   1.000  O
  O104     1.0000 0.27341  0.08250  0.50003  Biso   1.000  O
  C445     1.0000 0.53500  0.83540  0.57060  Biso   1.000  C
  C446     1.0000 0.32680  0.08370  0.53651  Biso   1.000  C
  C447     1.0000 0.47880  0.89660  0.55650  Biso   1.000  C
  C448     1.0000 0.37730  0.01580  0.53881  Biso   1.000  C
  C449     1.0000 0.49020  0.97340  0.58550  Biso   1.000  C
  H273     1.0000 0.53050  0.98370  0.61010  Biso   1.000  H
  C450     1.0000 0.43900  0.03190  0.57570  Biso   1.000  C
  H274     1.0000 0.44550  0.08220  0.59370  Biso   1.000  H
  C451     1.0000 0.36650  0.93920  0.51260  Biso   1.000  C
  C452     1.0000 0.30660  0.91740  0.47730  Biso   1.000  C
  H275     1.0000 0.27070  0.95400  0.47140  Biso   1.000  H
  C453     1.0000 0.29970  0.84490  0.45190  Biso   1.000  C
  H276     1.0000 0.26060  0.83330  0.42610  Biso   1.000  H
  C454     1.0000 0.40970  0.80250  0.49900  Biso   1.000  C
  H277     1.0000 0.44370  0.76340  0.50710  Biso   1.000  H
  C455     1.0000 0.35270  0.78430  0.46420  Biso   1.000  C
  H278     1.0000 0.34680  0.73290  0.44770  Biso   1.000  H
  C456     1.0000 0.41930  0.87990  0.52360  Biso   1.000  C
  C457     1.0000 0.81190  0.99650  0.78500  Biso   1.000  C
  H279     1.0000 0.84690  0.98940  0.81550  Biso   1.000  H
  C458     1.0000 0.79850  0.93780  0.74180  Biso   1.000  C
  H280     1.0000 0.82990  0.89610  0.74250  Biso   1.000  H
  C459     1.0000 0.70220  0.00540  0.69540  Biso   1.000  C
  C460     1.0000 0.64860  0.01640  0.64930  Biso   1.000  C
  H281     1.0000 0.63990  0.97580  0.62230  Biso   1.000  H
  C461     1.0000 0.60830  0.08660  0.64340  Biso   1.000  C
  H282     1.0000 0.56970  0.08900  0.61560  Biso   1.000  H
  C462     1.0000 0.62590  0.15270  0.67880  Biso   1.000  C
  H283     1.0000 0.60380  0.20260  0.67100  Biso   1.000  H
  C463     1.0000 0.67630  0.14430  0.72560  Biso   1.000  C
  H284     1.0000 0.68480  0.18740  0.75070  Biso   1.000  H
  C464     1.0000 0.71520  0.07150  0.73630  Biso   1.000  C
  C465     1.0000 0.06110  0.92670  0.57340  Biso   1.000  C
  H285     1.0000 0.10340  0.91150  0.56780  Biso   1.000  H
  C466     1.0000 0.01590  0.86630  0.58430  Biso   1.000  C
  H286     1.0000 0.02940  0.81180  0.58720  Biso   1.000  H
  C467     1.0000 0.93270  0.97290  0.59360  Biso   1.000  C
  C468     1.0000 0.87090  0.99410  0.60490  Biso   1.000  C
  H287     1.0000 0.84170  0.95340  0.61180  Biso   1.000  H
  C469     1.0000 0.85260  0.07280  0.60600  Biso   1.000  C
  H288     1.0000 0.81160  0.08660  0.61480  Biso   1.000  H
  C470     1.0000 0.89640  0.13460  0.59380  Biso   1.000  C
  H289     1.0000 0.88400  0.18940  0.59350  Biso   1.000  H
  C471     1.0000 0.95570  0.11240  0.58280  Biso   1.000  C
  H290     1.0000 0.98460  0.15440  0.57710  Biso   1.000  H
  C472     1.0000 0.97890  0.03130  0.57890  Biso   1.000  C
  C473     1.0000 0.49300  0.97710  0.55300  Biso   1.000  C
  H291     1.0000 0.53720  0.99310  0.55370  Biso   1.000  H
  C474     1.0000 0.44230  0.03740  0.54820  Biso   1.000  C
  H292     1.0000 0.45410  0.09240  0.55160  Biso   1.000  H
  C475     1.0000 0.35870  0.93170  0.53030  Biso   1.000  C
  C476     1.0000 0.29260  0.90480  0.50890  Biso   1.000  C
  H293     1.0000 0.25710  0.94190  0.50450  Biso   1.000  H
  C477     1.0000 0.28010  0.82390  0.49420  Biso   1.000  C
  H294     1.0000 0.23640  0.80790  0.47820  Biso   1.000  H
  C478     1.0000 0.33090  0.76620  0.50290  Biso   1.000  C
  H295     1.0000 0.32160  0.71220  0.49210  Biso   1.000  H
  C479     1.0000 0.39300  0.78830  0.52650  Biso   1.000  C
  H296     1.0000 0.42640  0.74860  0.53510  Biso   1.000  H
  C480     1.0000 0.40940  0.87190  0.53890  Biso   1.000  C
