data_image0
_cell_length_a       18.4039
_cell_length_b       18.4039
_cell_length_c       46.9176
_cell_angle_alpha    90
_cell_angle_beta     90
_cell_angle_gamma    120

_symmetry_space_group_name_H-M    "P 1"
_symmetry_int_tables_number       1

loop_
  _symmetry_equiv_pos_as_xyz
  'x, y, z'

loop_
  _atom_site_label
  _atom_site_occupancy
  _atom_site_fract_x
  _atom_site_fract_y
  _atom_site_fract_z
  _atom_site_thermal_displace_type
  _atom_site_B_iso_or_equiv
  _atom_site_type_symbol
  O1       1.0000 0.55680  0.70425  0.83159  Biso   1.000  O
  O2       1.0000 0.63890  0.74600  0.87041  Biso   1.000  O
  C1       1.0000 0.57490  0.69420  0.85620  Biso   1.000  C
  C2       1.0000 0.51710  0.61380  0.87079  Biso   1.000  C
  C3       1.0000 0.52990  0.59970  0.89859  Biso   1.000  C
  H1       1.0000 0.57840  0.63880  0.90800  Biso   1.000  H
  C4       1.0000 0.56970  0.52500  0.01110  Biso   1.000  C
  C5       1.0000 0.57680  0.52100  0.04050  Biso   1.000  C
  H2       1.0000 0.61990  0.51370  0.04920  Biso   1.000  H
  C6       1.0000 0.51160  0.51000  0.05820  Biso   1.000  C
  C7       1.0000 0.43690  0.49550  0.04640  Biso   1.000  C
  C8       1.0000 0.42990  0.49940  0.01680  Biso   1.000  C
  C9       1.0000 0.37260  0.48400  0.06440  Biso   1.000  C
  H3       1.0000 0.37960  0.48340  0.08470  Biso   1.000  H
  C10      1.0000 0.29750  0.46790  0.05290  Biso   1.000  C
  C11      1.0000 0.28520  0.46300  0.02370  Biso   1.000  C
  C12      1.0000 0.35290  0.48300  0.00600  Biso   1.000  C
  H4       1.0000 0.33680  0.46800  0.98650  Biso   1.000  H
  H5       1.0000 0.57710  0.44900  0.05070  Biso   1.000  H
  C13      1.0000 0.39100  0.51000  0.06590  Biso   1.000  C
  H6       1.0000 0.39670  0.51700  0.08620  Biso   1.000  H
  C14      1.0000 0.32700  0.51800  0.05500  Biso   1.000  C
  H7       1.0000 0.29720  0.53980  0.06530  Biso   1.000  H
  C15      1.0000 0.30900  0.51300  0.02640  Biso   1.000  C
  H8       1.0000 0.27700  0.53120  0.01560  Biso   1.000  H
  C16      1.0000 0.36300  0.50800  0.00690  Biso   1.000  C
  H9       1.0000 0.35260  0.49560  0.98680  Biso   1.000  H
  H10      1.0000 0.26070  0.47650  0.06520  Biso   1.000  H
  H11      1.0000 0.24270  0.47210  0.01520  Biso   1.000  H
  H12      1.0000 0.61420  0.53100  0.99890  Biso   1.000  H
  O3       1.0000 0.22347  0.03758  0.16492  Biso   1.000  O
  O4       1.0000 0.30557  0.07933  0.20374  Biso   1.000  O
  C17      1.0000 0.24157  0.02753  0.18953  Biso   1.000  C
  C18      1.0000 0.18377  0.94713  0.20412  Biso   1.000  C
  C19      1.0000 0.19657  0.93303  0.23192  Biso   1.000  C
  H13      1.0000 0.24507  0.97213  0.24133  Biso   1.000  H
  C20      1.0000 0.23637  0.85833  0.34443  Biso   1.000  C
  C21      1.0000 0.24347  0.85433  0.37383  Biso   1.000  C
  H14      1.0000 0.28657  0.84703  0.38253  Biso   1.000  H
  C22      1.0000 0.17827  0.84333  0.39153  Biso   1.000  C
  C23      1.0000 0.10357  0.82883  0.37973  Biso   1.000  C
  C24      1.0000 0.09657  0.83273  0.35013  Biso   1.000  C
  C25      1.0000 0.03927  0.81733  0.39773  Biso   1.000  C
  H15      1.0000 0.04627  0.81673  0.41803  Biso   1.000  H
  C26      1.0000 0.96417  0.80123  0.38623  Biso   1.000  C
  C27      1.0000 0.95187  0.79633  0.35703  Biso   1.000  C
  C28      1.0000 0.01957  0.81633  0.33933  Biso   1.000  C
  H16      1.0000 0.00347  0.80133  0.31983  Biso   1.000  H
  H17      1.0000 0.24377  0.78233  0.38403  Biso   1.000  H
  C29      1.0000 0.05767  0.84333  0.39923  Biso   1.000  C
  H18      1.0000 0.06337  0.85033  0.41953  Biso   1.000  H
  C30      1.0000 0.99367  0.85133  0.38833  Biso   1.000  C
  H19      1.0000 0.96387  0.87313  0.39863  Biso   1.000  H
  C31      1.0000 0.97567  0.84633  0.35973  Biso   1.000  C
  H20      1.0000 0.94367  0.86453  0.34893  Biso   1.000  H
  C32      1.0000 0.02967  0.84133  0.34023  Biso   1.000  C
  H21      1.0000 0.01927  0.82893  0.32013  Biso   1.000  H
  H22      1.0000 0.92737  0.80983  0.39853  Biso   1.000  H
  H23      1.0000 0.90937  0.80543  0.34853  Biso   1.000  H
  H24      1.0000 0.28087  0.86433  0.33223  Biso   1.000  H
  O5       1.0000 0.89013  0.37092  0.49826  Biso   1.000  O
  O6       1.0000 0.97223  0.41267  0.53708  Biso   1.000  O
  C33      1.0000 0.90823  0.36087  0.52287  Biso   1.000  C
  C34      1.0000 0.85043  0.28047  0.53746  Biso   1.000  C
  C35      1.0000 0.86323  0.26637  0.56526  Biso   1.000  C
  H25      1.0000 0.91173  0.30547  0.57467  Biso   1.000  H
  C36      1.0000 0.90303  0.19167  0.67777  Biso   1.000  C
  C37      1.0000 0.91013  0.18767  0.70717  Biso   1.000  C
  H26      1.0000 0.95323  0.18037  0.71587  Biso   1.000  H
  C38      1.0000 0.84493  0.17667  0.72487  Biso   1.000  C
  C39      1.0000 0.77023  0.16217  0.71307  Biso   1.000  C
  C40      1.0000 0.76323  0.16607  0.68347  Biso   1.000  C
  C41      1.0000 0.70593  0.15067  0.73107  Biso   1.000  C
  H27      1.0000 0.71293  0.15007  0.75137  Biso   1.000  H
  C42      1.0000 0.63083  0.13457  0.71957  Biso   1.000  C
  C43      1.0000 0.61853  0.12967  0.69037  Biso   1.000  C
  C44      1.0000 0.68623  0.14967  0.67267  Biso   1.000  C
  H28      1.0000 0.67013  0.13467  0.65317  Biso   1.000  H
  H29      1.0000 0.91043  0.11567  0.71737  Biso   1.000  H
  C45      1.0000 0.72433  0.17667  0.73257  Biso   1.000  C
  H30      1.0000 0.73003  0.18367  0.75287  Biso   1.000  H
  C46      1.0000 0.66033  0.18467  0.72167  Biso   1.000  C
  H31      1.0000 0.63053  0.20647  0.73197  Biso   1.000  H
  C47      1.0000 0.64233  0.17967  0.69307  Biso   1.000  C
  H32      1.0000 0.61033  0.19787  0.68227  Biso   1.000  H
  C48      1.0000 0.69633  0.17467  0.67357  Biso   1.000  C
  H33      1.0000 0.68593  0.16227  0.65347  Biso   1.000  H
  H34      1.0000 0.59403  0.14317  0.73187  Biso   1.000  H
  H35      1.0000 0.57603  0.13877  0.68187  Biso   1.000  H
  H36      1.0000 0.94753  0.19767  0.66557  Biso   1.000  H
  O7       1.0000 0.29575  0.85255  0.83159  Biso   1.000  O
  O8       1.0000 0.25400  0.89290  0.87041  Biso   1.000  O
  C49      1.0000 0.30580  0.88070  0.85620  Biso   1.000  C
  C50      1.0000 0.38620  0.90330  0.87079  Biso   1.000  C
  C51      1.0000 0.40030  0.93020  0.89859  Biso   1.000  C
  H37      1.0000 0.36120  0.93960  0.90800  Biso   1.000  H
  C52      1.0000 0.47500  0.04470  0.01110  Biso   1.000  C
  C53      1.0000 0.47900  0.05580  0.04050  Biso   1.000  C
  H38      1.0000 0.48630  0.10620  0.04920  Biso   1.000  H
  C54      1.0000 0.49000  0.00160  0.05820  Biso   1.000  C
  C55      1.0000 0.50450  0.94140  0.04640  Biso   1.000  C
  C56      1.0000 0.50060  0.93050  0.01680  Biso   1.000  C
  C57      1.0000 0.51600  0.88860  0.06440  Biso   1.000  C
  H39      1.0000 0.51660  0.89620  0.08470  Biso   1.000  H
  C58      1.0000 0.53210  0.82960  0.05290  Biso   1.000  C
  C59      1.0000 0.53700  0.82220  0.02370  Biso   1.000  C
  C60      1.0000 0.51700  0.86990  0.00600  Biso   1.000  C
  H40      1.0000 0.53200  0.86880  0.98650  Biso   1.000  H
  H41      1.0000 0.55100  0.12810  0.05070  Biso   1.000  H
  C61      1.0000 0.49000  0.88100  0.06590  Biso   1.000  C
  H42      1.0000 0.48300  0.87970  0.08620  Biso   1.000  H
  C62      1.0000 0.48200  0.80900  0.05500  Biso   1.000  C
  H43      1.0000 0.46020  0.75740  0.06530  Biso   1.000  H
  C63      1.0000 0.48700  0.79600  0.02640  Biso   1.000  C
  H44      1.0000 0.46880  0.74580  0.01560  Biso   1.000  H
  C64      1.0000 0.49200  0.85500  0.00690  Biso   1.000  C
  H45      1.0000 0.50440  0.85700  0.98680  Biso   1.000  H
  H46      1.0000 0.52350  0.78420  0.06520  Biso   1.000  H
  H47      1.0000 0.52790  0.77060  0.01520  Biso   1.000  H
  H48      1.0000 0.46900  0.08320  0.99890  Biso   1.000  H
  O9       1.0000 0.96242  0.18588  0.16492  Biso   1.000  O
  O10      1.0000 0.92067  0.22623  0.20374  Biso   1.000  O
  C65      1.0000 0.97247  0.21403  0.18953  Biso   1.000  C
  C66      1.0000 0.05287  0.23663  0.20412  Biso   1.000  C
  C67      1.0000 0.06697  0.26353  0.23192  Biso   1.000  C
  H49      1.0000 0.02787  0.27293  0.24133  Biso   1.000  H
  C68      1.0000 0.14167  0.37803  0.34443  Biso   1.000  C
  C69      1.0000 0.14567  0.38913  0.37383  Biso   1.000  C
  H50      1.0000 0.15297  0.43953  0.38253  Biso   1.000  H
  C70      1.0000 0.15667  0.33493  0.39153  Biso   1.000  C
  C71      1.0000 0.17117  0.27473  0.37973  Biso   1.000  C
  C72      1.0000 0.16727  0.26383  0.35013  Biso   1.000  C
  C73      1.0000 0.18267  0.22193  0.39773  Biso   1.000  C
  H51      1.0000 0.18327  0.22953  0.41803  Biso   1.000  H
  C74      1.0000 0.19877  0.16293  0.38623  Biso   1.000  C
  C75      1.0000 0.20367  0.15553  0.35703  Biso   1.000  C
  C76      1.0000 0.18367  0.20323  0.33933  Biso   1.000  C
  H52      1.0000 0.19867  0.20213  0.31983  Biso   1.000  H
  H53      1.0000 0.21767  0.46143  0.38403  Biso   1.000  H
  C77      1.0000 0.15667  0.21433  0.39923  Biso   1.000  C
  H54      1.0000 0.14967  0.21303  0.41953  Biso   1.000  H
  C78      1.0000 0.14867  0.14233  0.38833  Biso   1.000  C
  H55      1.0000 0.12687  0.09073  0.39863  Biso   1.000  H
  C79      1.0000 0.15367  0.12933  0.35973  Biso   1.000  C
  H56      1.0000 0.13547  0.07913  0.34893  Biso   1.000  H
  C80      1.0000 0.15867  0.18833  0.34023  Biso   1.000  C
  H57      1.0000 0.17107  0.19033  0.32013  Biso   1.000  H
  H58      1.0000 0.19017  0.11753  0.39853  Biso   1.000  H
  H59      1.0000 0.19457  0.10393  0.34853  Biso   1.000  H
  H60      1.0000 0.13567  0.41653  0.33223  Biso   1.000  H
  O11      1.0000 0.62908  0.51922  0.49826  Biso   1.000  O
  O12      1.0000 0.58733  0.55957  0.53708  Biso   1.000  O
  C81      1.0000 0.63913  0.54737  0.52287  Biso   1.000  C
  C82      1.0000 0.71953  0.56997  0.53746  Biso   1.000  C
  C83      1.0000 0.73363  0.59687  0.56526  Biso   1.000  C
  H61      1.0000 0.69453  0.60627  0.57467  Biso   1.000  H
  C84      1.0000 0.80833  0.71137  0.67777  Biso   1.000  C
  C85      1.0000 0.81233  0.72247  0.70717  Biso   1.000  C
  H62      1.0000 0.81963  0.77287  0.71587  Biso   1.000  H
  C86      1.0000 0.82333  0.66827  0.72487  Biso   1.000  C
  C87      1.0000 0.83783  0.60807  0.71307  Biso   1.000  C
  C88      1.0000 0.83393  0.59717  0.68347  Biso   1.000  C
  C89      1.0000 0.84933  0.55527  0.73107  Biso   1.000  C
  H63      1.0000 0.84993  0.56287  0.75137  Biso   1.000  H
  C90      1.0000 0.86543  0.49627  0.71957  Biso   1.000  C
  C91      1.0000 0.87033  0.48887  0.69037  Biso   1.000  C
  C92      1.0000 0.85033  0.53657  0.67267  Biso   1.000  C
  H64      1.0000 0.86533  0.53547  0.65317  Biso   1.000  H
  H65      1.0000 0.88433  0.79477  0.71737  Biso   1.000  H
  C93      1.0000 0.82333  0.54767  0.73257  Biso   1.000  C
  H66      1.0000 0.81633  0.54637  0.75287  Biso   1.000  H
  C94      1.0000 0.81533  0.47567  0.72167  Biso   1.000  C
  H67      1.0000 0.79353  0.42407  0.73197  Biso   1.000  H
  C95      1.0000 0.82033  0.46267  0.69307  Biso   1.000  C
  H68      1.0000 0.80213  0.41247  0.68227  Biso   1.000  H
  C96      1.0000 0.82533  0.52167  0.67357  Biso   1.000  C
  H69      1.0000 0.83773  0.52367  0.65347  Biso   1.000  H
  H70      1.0000 0.85683  0.45087  0.73187  Biso   1.000  H
  H71      1.0000 0.86123  0.43727  0.68187  Biso   1.000  H
  H72      1.0000 0.80233  0.74987  0.66557  Biso   1.000  H
  O13      1.0000 0.14745  0.44320  0.83159  Biso   1.000  O
  O14      1.0000 0.10710  0.36110  0.87041  Biso   1.000  O
  C97      1.0000 0.11930  0.42510  0.85620  Biso   1.000  C
  C98      1.0000 0.09670  0.48290  0.87079  Biso   1.000  C
  C99      1.0000 0.06980  0.47010  0.89859  Biso   1.000  C
  H73      1.0000 0.06040  0.42160  0.90800  Biso   1.000  H
  C100     1.0000 0.95530  0.43030  0.01110  Biso   1.000  C
  C101     1.0000 0.94420  0.42320  0.04050  Biso   1.000  C
  H74      1.0000 0.89380  0.38010  0.04920  Biso   1.000  H
  C102     1.0000 0.99840  0.48840  0.05820  Biso   1.000  C
  C103     1.0000 0.05860  0.56310  0.04640  Biso   1.000  C
  C104     1.0000 0.06950  0.57010  0.01680  Biso   1.000  C
  C105     1.0000 0.11140  0.62740  0.06440  Biso   1.000  C
  H75      1.0000 0.10380  0.62040  0.08470  Biso   1.000  H
  C106     1.0000 0.17040  0.70250  0.05290  Biso   1.000  C
  C107     1.0000 0.17780  0.71480  0.02370  Biso   1.000  C
  C108     1.0000 0.13010  0.64710  0.00600  Biso   1.000  C
  H76      1.0000 0.13120  0.66320  0.98650  Biso   1.000  H
  H77      1.0000 0.87190  0.42290  0.05070  Biso   1.000  H
  C109     1.0000 0.11900  0.60900  0.06590  Biso   1.000  C
  H78      1.0000 0.12030  0.60330  0.08620  Biso   1.000  H
  C110     1.0000 0.19100  0.67300  0.05500  Biso   1.000  C
  H79      1.0000 0.24260  0.70280  0.06530  Biso   1.000  H
  C111     1.0000 0.20400  0.69100  0.02640  Biso   1.000  C
  H80      1.0000 0.25420  0.72300  0.01560  Biso   1.000  H
  C112     1.0000 0.14500  0.63700  0.00690  Biso   1.000  C
  H81      1.0000 0.14300  0.64740  0.98680  Biso   1.000  H
  H82      1.0000 0.21580  0.73930  0.06520  Biso   1.000  H
  H83      1.0000 0.22940  0.75730  0.01520  Biso   1.000  H
  H84      1.0000 0.91680  0.38580  0.99890  Biso   1.000  H
  O15      1.0000 0.81412  0.77653  0.16492  Biso   1.000  O
  O16      1.0000 0.77377  0.69443  0.20374  Biso   1.000  O
  C113     1.0000 0.78597  0.75843  0.18953  Biso   1.000  C
  C114     1.0000 0.76337  0.81623  0.20412  Biso   1.000  C
  C115     1.0000 0.73647  0.80343  0.23192  Biso   1.000  C
  H85      1.0000 0.72707  0.75493  0.24133  Biso   1.000  H
  C116     1.0000 0.62197  0.76363  0.34443  Biso   1.000  C
  C117     1.0000 0.61087  0.75653  0.37383  Biso   1.000  C
  H86      1.0000 0.56047  0.71343  0.38253  Biso   1.000  H
  C118     1.0000 0.66507  0.82173  0.39153  Biso   1.000  C
  C119     1.0000 0.72527  0.89643  0.37973  Biso   1.000  C
  C120     1.0000 0.73617  0.90343  0.35013  Biso   1.000  C
  C121     1.0000 0.77807  0.96073  0.39773  Biso   1.000  C
  H87      1.0000 0.77047  0.95373  0.41803  Biso   1.000  H
  C122     1.0000 0.83707  0.03583  0.38623  Biso   1.000  C
  C123     1.0000 0.84447  0.04813  0.35703  Biso   1.000  C
  C124     1.0000 0.79677  0.98043  0.33933  Biso   1.000  C
  H88      1.0000 0.79787  0.99653  0.31983  Biso   1.000  H
  H89      1.0000 0.53857  0.75623  0.38403  Biso   1.000  H
  C125     1.0000 0.78567  0.94233  0.39923  Biso   1.000  C
  H90      1.0000 0.78697  0.93663  0.41953  Biso   1.000  H
  C126     1.0000 0.85767  0.00633  0.38833  Biso   1.000  C
  H91      1.0000 0.90927  0.03613  0.39863  Biso   1.000  H
  C127     1.0000 0.87067  0.02433  0.35973  Biso   1.000  C
  H92      1.0000 0.92087  0.05633  0.34893  Biso   1.000  H
  C128     1.0000 0.81167  0.97033  0.34023  Biso   1.000  C
  H93      1.0000 0.80967  0.98073  0.32013  Biso   1.000  H
  H94      1.0000 0.88247  0.07263  0.39853  Biso   1.000  H
  H95      1.0000 0.89607  0.09063  0.34853  Biso   1.000  H
  H96      1.0000 0.58347  0.71913  0.33223  Biso   1.000  H
  O17      1.0000 0.48078  0.10987  0.49826  Biso   1.000  O
  O18      1.0000 0.44043  0.02777  0.53708  Biso   1.000  O
  C129     1.0000 0.45263  0.09177  0.52287  Biso   1.000  C
  C130     1.0000 0.43003  0.14957  0.53746  Biso   1.000  C
  C131     1.0000 0.40313  0.13677  0.56526  Biso   1.000  C
  H97      1.0000 0.39373  0.08827  0.57467  Biso   1.000  H
  C132     1.0000 0.28863  0.09697  0.67777  Biso   1.000  C
  C133     1.0000 0.27753  0.08987  0.70717  Biso   1.000  C
  H98      1.0000 0.22713  0.04677  0.71587  Biso   1.000  H
  C134     1.0000 0.33173  0.15507  0.72487  Biso   1.000  C
  C135     1.0000 0.39193  0.22977  0.71307  Biso   1.000  C
  C136     1.0000 0.40283  0.23677  0.68347  Biso   1.000  C
  C137     1.0000 0.44473  0.29407  0.73107  Biso   1.000  C
  H99      1.0000 0.43713  0.28707  0.75137  Biso   1.000  H
  C138     1.0000 0.50373  0.36917  0.71957  Biso   1.000  C
  C139     1.0000 0.51113  0.38147  0.69037  Biso   1.000  C
  C140     1.0000 0.46343  0.31377  0.67267  Biso   1.000  C
  H100     1.0000 0.46453  0.32987  0.65317  Biso   1.000  H
  H101     1.0000 0.20523  0.08957  0.71737  Biso   1.000  H
  C141     1.0000 0.45233  0.27567  0.73257  Biso   1.000  C
  H102     1.0000 0.45363  0.26997  0.75287  Biso   1.000  H
  C142     1.0000 0.52433  0.33967  0.72167  Biso   1.000  C
  H103     1.0000 0.57593  0.36947  0.73197  Biso   1.000  H
  C143     1.0000 0.53733  0.35767  0.69307  Biso   1.000  C
  H104     1.0000 0.58753  0.38967  0.68227  Biso   1.000  H
  C144     1.0000 0.47833  0.30367  0.67357  Biso   1.000  C
  H105     1.0000 0.47633  0.31407  0.65347  Biso   1.000  H
  H106     1.0000 0.54913  0.40597  0.73187  Biso   1.000  H
  H107     1.0000 0.56273  0.42397  0.68187  Biso   1.000  H
  H108     1.0000 0.25013  0.05247  0.66557  Biso   1.000  H
  O19      1.0000 0.70425  0.55680  0.16841  Biso   1.000  O
  O20      1.0000 0.74600  0.63890  0.12959  Biso   1.000  O
  C145     1.0000 0.69420  0.57490  0.14380  Biso   1.000  C
  C146     1.0000 0.61380  0.51710  0.12921  Biso   1.000  C
  C147     1.0000 0.59970  0.52990  0.10141  Biso   1.000  C
  H109     1.0000 0.63880  0.57840  0.09200  Biso   1.000  H
  C148     1.0000 0.52500  0.56970  0.98890  Biso   1.000  C
  C149     1.0000 0.52100  0.57680  0.95950  Biso   1.000  C
  H110     1.0000 0.51370  0.61990  0.95080  Biso   1.000  H
  C150     1.0000 0.51000  0.51160  0.94180  Biso   1.000  C
  C151     1.0000 0.49550  0.43690  0.95360  Biso   1.000  C
  C152     1.0000 0.49940  0.42990  0.98320  Biso   1.000  C
  C153     1.0000 0.48400  0.37260  0.93560  Biso   1.000  C
  H111     1.0000 0.48340  0.37960  0.91530  Biso   1.000  H
  C154     1.0000 0.46790  0.29750  0.94710  Biso   1.000  C
  C155     1.0000 0.46300  0.28520  0.97630  Biso   1.000  C
  C156     1.0000 0.48300  0.35290  0.99400  Biso   1.000  C
  H112     1.0000 0.46800  0.33680  0.01350  Biso   1.000  H
  H113     1.0000 0.44900  0.57710  0.94930  Biso   1.000  H
  C157     1.0000 0.51000  0.39100  0.93410  Biso   1.000  C
  H114     1.0000 0.51700  0.39670  0.91380  Biso   1.000  H
  C158     1.0000 0.51800  0.32700  0.94500  Biso   1.000  C
  H115     1.0000 0.53980  0.29720  0.93470  Biso   1.000  H
  C159     1.0000 0.51300  0.30900  0.97360  Biso   1.000  C
  H116     1.0000 0.53120  0.27700  0.98440  Biso   1.000  H
  C160     1.0000 0.50800  0.36300  0.99310  Biso   1.000  C
  H117     1.0000 0.49560  0.35260  0.01320  Biso   1.000  H
  H118     1.0000 0.47650  0.26070  0.93480  Biso   1.000  H
  H119     1.0000 0.47210  0.24270  0.98480  Biso   1.000  H
  H120     1.0000 0.53100  0.61420  0.00110  Biso   1.000  H
  O21      1.0000 0.37092  0.89013  0.50174  Biso   1.000  O
  O22      1.0000 0.41267  0.97223  0.46292  Biso   1.000  O
  C161     1.0000 0.36087  0.90823  0.47713  Biso   1.000  C
  C162     1.0000 0.28047  0.85043  0.46254  Biso   1.000  C
  C163     1.0000 0.26637  0.86323  0.43474  Biso   1.000  C
  H121     1.0000 0.30547  0.91173  0.42533  Biso   1.000  H
  C164     1.0000 0.19167  0.90303  0.32223  Biso   1.000  C
  C165     1.0000 0.18767  0.91013  0.29283  Biso   1.000  C
  H122     1.0000 0.18037  0.95323  0.28413  Biso   1.000  H
  C166     1.0000 0.17667  0.84493  0.27513  Biso   1.000  C
  C167     1.0000 0.16217  0.77023  0.28693  Biso   1.000  C
  C168     1.0000 0.16607  0.76323  0.31653  Biso   1.000  C
  C169     1.0000 0.15067  0.70593  0.26893  Biso   1.000  C
  H123     1.0000 0.15007  0.71293  0.24863  Biso   1.000  H
  C170     1.0000 0.13457  0.63083  0.28043  Biso   1.000  C
  C171     1.0000 0.12967  0.61853  0.30963  Biso   1.000  C
  C172     1.0000 0.14967  0.68623  0.32733  Biso   1.000  C
  H124     1.0000 0.13467  0.67013  0.34683  Biso   1.000  H
  H125     1.0000 0.11567  0.91043  0.28263  Biso   1.000  H
  C173     1.0000 0.17667  0.72433  0.26743  Biso   1.000  C
  H126     1.0000 0.18367  0.73003  0.24713  Biso   1.000  H
  C174     1.0000 0.18467  0.66033  0.27833  Biso   1.000  C
  H127     1.0000 0.20647  0.63053  0.26803  Biso   1.000  H
  C175     1.0000 0.17967  0.64233  0.30693  Biso   1.000  C
  H128     1.0000 0.19787  0.61033  0.31773  Biso   1.000  H
  C176     1.0000 0.17467  0.69633  0.32643  Biso   1.000  C
  H129     1.0000 0.16227  0.68593  0.34653  Biso   1.000  H
  H130     1.0000 0.14317  0.59403  0.26813  Biso   1.000  H
  H131     1.0000 0.13877  0.57603  0.31813  Biso   1.000  H
  H132     1.0000 0.19767  0.94753  0.33443  Biso   1.000  H
  O23      1.0000 0.03758  0.22347  0.83508  Biso   1.000  O
  O24      1.0000 0.07933  0.30557  0.79626  Biso   1.000  O
  C177     1.0000 0.02753  0.24157  0.81047  Biso   1.000  C
  C178     1.0000 0.94713  0.18377  0.79588  Biso   1.000  C
  C179     1.0000 0.93303  0.19657  0.76808  Biso   1.000  C
  H133     1.0000 0.97213  0.24507  0.75867  Biso   1.000  H
  C180     1.0000 0.85833  0.23637  0.65557  Biso   1.000  C
  C181     1.0000 0.85433  0.24347  0.62617  Biso   1.000  C
  H134     1.0000 0.84703  0.28657  0.61747  Biso   1.000  H
  C182     1.0000 0.84333  0.17827  0.60847  Biso   1.000  C
  C183     1.0000 0.82883  0.10357  0.62027  Biso   1.000  C
  C184     1.0000 0.83273  0.09657  0.64987  Biso   1.000  C
  C185     1.0000 0.81733  0.03927  0.60227  Biso   1.000  C
  H135     1.0000 0.81673  0.04627  0.58197  Biso   1.000  H
  C186     1.0000 0.80123  0.96417  0.61377  Biso   1.000  C
  C187     1.0000 0.79633  0.95187  0.64297  Biso   1.000  C
  C188     1.0000 0.81633  0.01957  0.66067  Biso   1.000  C
  H136     1.0000 0.80133  0.00347  0.68017  Biso   1.000  H
  H137     1.0000 0.78233  0.24377  0.61597  Biso   1.000  H
  C189     1.0000 0.84333  0.05767  0.60077  Biso   1.000  C
  H138     1.0000 0.85033  0.06337  0.58047  Biso   1.000  H
  C190     1.0000 0.85133  0.99367  0.61167  Biso   1.000  C
  H139     1.0000 0.87313  0.96387  0.60137  Biso   1.000  H
  C191     1.0000 0.84633  0.97567  0.64027  Biso   1.000  C
  H140     1.0000 0.86453  0.94367  0.65107  Biso   1.000  H
  C192     1.0000 0.84133  0.02967  0.65977  Biso   1.000  C
  H141     1.0000 0.82893  0.01927  0.67987  Biso   1.000  H
  H142     1.0000 0.80983  0.92737  0.60147  Biso   1.000  H
  H143     1.0000 0.80543  0.90937  0.65147  Biso   1.000  H
  H144     1.0000 0.86433  0.28087  0.66777  Biso   1.000  H
  O25      1.0000 0.85255  0.29575  0.16841  Biso   1.000  O
  O26      1.0000 0.89290  0.25400  0.12959  Biso   1.000  O
  C193     1.0000 0.88070  0.30580  0.14380  Biso   1.000  C
  C194     1.0000 0.90330  0.38620  0.12921  Biso   1.000  C
  C195     1.0000 0.93020  0.40030  0.10141  Biso   1.000  C
  H145     1.0000 0.93960  0.36120  0.09200  Biso   1.000  H
  C196     1.0000 0.04470  0.47500  0.98890  Biso   1.000  C
  C197     1.0000 0.05580  0.47900  0.95950  Biso   1.000  C
  H146     1.0000 0.10620  0.48630  0.95080  Biso   1.000  H
  C198     1.0000 0.00160  0.49000  0.94180  Biso   1.000  C
  C199     1.0000 0.94140  0.50450  0.95360  Biso   1.000  C
  C200     1.0000 0.93050  0.50060  0.98320  Biso   1.000  C
  C201     1.0000 0.88860  0.51600  0.93560  Biso   1.000  C
  H147     1.0000 0.89620  0.51660  0.91530  Biso   1.000  H
  C202     1.0000 0.82960  0.53210  0.94710  Biso   1.000  C
  C203     1.0000 0.82220  0.53700  0.97630  Biso   1.000  C
  C204     1.0000 0.86990  0.51700  0.99400  Biso   1.000  C
  H148     1.0000 0.86880  0.53200  0.01350  Biso   1.000  H
  H149     1.0000 0.12810  0.55100  0.94930  Biso   1.000  H
  C205     1.0000 0.88100  0.49000  0.93410  Biso   1.000  C
  H150     1.0000 0.87970  0.48300  0.91380  Biso   1.000  H
  C206     1.0000 0.80900  0.48200  0.94500  Biso   1.000  C
  H151     1.0000 0.75740  0.46020  0.93470  Biso   1.000  H
  C207     1.0000 0.79600  0.48700  0.97360  Biso   1.000  C
  H152     1.0000 0.74580  0.46880  0.98440  Biso   1.000  H
  C208     1.0000 0.85500  0.49200  0.99310  Biso   1.000  C
  H153     1.0000 0.85700  0.50440  0.01320  Biso   1.000  H
  H154     1.0000 0.78420  0.52350  0.93480  Biso   1.000  H
  H155     1.0000 0.77060  0.52790  0.98480  Biso   1.000  H
  H156     1.0000 0.08320  0.46900  0.00110  Biso   1.000  H
  O27      1.0000 0.51922  0.62908  0.50174  Biso   1.000  O
  O28      1.0000 0.55957  0.58733  0.46292  Biso   1.000  O
  C209     1.0000 0.54737  0.63913  0.47713  Biso   1.000  C
  C210     1.0000 0.56997  0.71953  0.46254  Biso   1.000  C
  C211     1.0000 0.59687  0.73363  0.43474  Biso   1.000  C
  H157     1.0000 0.60627  0.69453  0.42533  Biso   1.000  H
  C212     1.0000 0.71137  0.80833  0.32223  Biso   1.000  C
  C213     1.0000 0.72247  0.81233  0.29283  Biso   1.000  C
  H158     1.0000 0.77287  0.81963  0.28413  Biso   1.000  H
  C214     1.0000 0.66827  0.82333  0.27513  Biso   1.000  C
  C215     1.0000 0.60807  0.83783  0.28693  Biso   1.000  C
  C216     1.0000 0.59717  0.83393  0.31653  Biso   1.000  C
  C217     1.0000 0.55527  0.84933  0.26893  Biso   1.000  C
  H159     1.0000 0.56287  0.84993  0.24863  Biso   1.000  H
  C218     1.0000 0.49627  0.86543  0.28043  Biso   1.000  C
  C219     1.0000 0.48887  0.87033  0.30963  Biso   1.000  C
  C220     1.0000 0.53657  0.85033  0.32733  Biso   1.000  C
  H160     1.0000 0.53547  0.86533  0.34683  Biso   1.000  H
  H161     1.0000 0.79477  0.88433  0.28263  Biso   1.000  H
  C221     1.0000 0.54767  0.82333  0.26743  Biso   1.000  C
  H162     1.0000 0.54637  0.81633  0.24713  Biso   1.000  H
  C222     1.0000 0.47567  0.81533  0.27833  Biso   1.000  C
  H163     1.0000 0.42407  0.79353  0.26803  Biso   1.000  H
  C223     1.0000 0.46267  0.82033  0.30693  Biso   1.000  C
  H164     1.0000 0.41247  0.80213  0.31773  Biso   1.000  H
  C224     1.0000 0.52167  0.82533  0.32643  Biso   1.000  C
  H165     1.0000 0.52367  0.83773  0.34653  Biso   1.000  H
  H166     1.0000 0.45087  0.85683  0.26813  Biso   1.000  H
  H167     1.0000 0.43727  0.86123  0.31813  Biso   1.000  H
  H168     1.0000 0.74987  0.80233  0.33443  Biso   1.000  H
  O29      1.0000 0.18588  0.96242  0.83508  Biso   1.000  O
  O30      1.0000 0.22623  0.92067  0.79626  Biso   1.000  O
  C225     1.0000 0.21403  0.97247  0.81047  Biso   1.000  C
  C226     1.0000 0.23663  0.05287  0.79588  Biso   1.000  C
  C227     1.0000 0.26353  0.06697  0.76808  Biso   1.000  C
  H169     1.0000 0.27293  0.02787  0.75867  Biso   1.000  H
  C228     1.0000 0.37803  0.14167  0.65557  Biso   1.000  C
  C229     1.0000 0.38913  0.14567  0.62617  Biso   1.000  C
  H170     1.0000 0.43953  0.15297  0.61747  Biso   1.000  H
  C230     1.0000 0.33493  0.15667  0.60847  Biso   1.000  C
  C231     1.0000 0.27473  0.17117  0.62027  Biso   1.000  C
  C232     1.0000 0.26383  0.16727  0.64987  Biso   1.000  C
  C233     1.0000 0.22193  0.18267  0.60227  Biso   1.000  C
  H171     1.0000 0.22953  0.18327  0.58197  Biso   1.000  H
  C234     1.0000 0.16293  0.19877  0.61377  Biso   1.000  C
  C235     1.0000 0.15553  0.20367  0.64297  Biso   1.000  C
  C236     1.0000 0.20323  0.18367  0.66067  Biso   1.000  C
  H172     1.0000 0.20213  0.19867  0.68017  Biso   1.000  H
  H173     1.0000 0.46143  0.21767  0.61597  Biso   1.000  H
  C237     1.0000 0.21433  0.15667  0.60077  Biso   1.000  C
  H174     1.0000 0.21303  0.14967  0.58047  Biso   1.000  H
  C238     1.0000 0.14233  0.14867  0.61167  Biso   1.000  C
  H175     1.0000 0.09073  0.12687  0.60137  Biso   1.000  H
  C239     1.0000 0.12933  0.15367  0.64027  Biso   1.000  C
  H176     1.0000 0.07913  0.13547  0.65107  Biso   1.000  H
  C240     1.0000 0.18833  0.15867  0.65977  Biso   1.000  C
  H177     1.0000 0.19033  0.17107  0.67987  Biso   1.000  H
  H178     1.0000 0.11753  0.19017  0.60147  Biso   1.000  H
  H179     1.0000 0.10393  0.19457  0.65147  Biso   1.000  H
  H180     1.0000 0.41653  0.13567  0.66777  Biso   1.000  H
  O31      1.0000 0.44320  0.14745  0.16841  Biso   1.000  O
  O32      1.0000 0.36110  0.10710  0.12959  Biso   1.000  O
  C241     1.0000 0.42510  0.11930  0.14380  Biso   1.000  C
  C242     1.0000 0.48290  0.09670  0.12921  Biso   1.000  C
  C243     1.0000 0.47010  0.06980  0.10141  Biso   1.000  C
  H181     1.0000 0.42160  0.06040  0.09200  Biso   1.000  H
  C244     1.0000 0.43030  0.95530  0.98890  Biso   1.000  C
  C245     1.0000 0.42320  0.94420  0.95950  Biso   1.000  C
  H182     1.0000 0.38010  0.89380  0.95080  Biso   1.000  H
  C246     1.0000 0.48840  0.99840  0.94180  Biso   1.000  C
  C247     1.0000 0.56310  0.05860  0.95360  Biso   1.000  C
  C248     1.0000 0.57010  0.06950  0.98320  Biso   1.000  C
  C249     1.0000 0.62740  0.11140  0.93560  Biso   1.000  C
  H183     1.0000 0.62040  0.10380  0.91530  Biso   1.000  H
  C250     1.0000 0.70250  0.17040  0.94710  Biso   1.000  C
  C251     1.0000 0.71480  0.17780  0.97630  Biso   1.000  C
  C252     1.0000 0.64710  0.13010  0.99400  Biso   1.000  C
  H184     1.0000 0.66320  0.13120  0.01350  Biso   1.000  H
  H185     1.0000 0.42290  0.87190  0.94930  Biso   1.000  H
  C253     1.0000 0.60900  0.11900  0.93410  Biso   1.000  C
  H186     1.0000 0.60330  0.12030  0.91380  Biso   1.000  H
  C254     1.0000 0.67300  0.19100  0.94500  Biso   1.000  C
  H187     1.0000 0.70280  0.24260  0.93470  Biso   1.000  H
  C255     1.0000 0.69100  0.20400  0.97360  Biso   1.000  C
  H188     1.0000 0.72300  0.25420  0.98440  Biso   1.000  H
  C256     1.0000 0.63700  0.14500  0.99310  Biso   1.000  C
  H189     1.0000 0.64740  0.14300  0.01320  Biso   1.000  H
  H190     1.0000 0.73930  0.21580  0.93480  Biso   1.000  H
  H191     1.0000 0.75730  0.22940  0.98480  Biso   1.000  H
  H192     1.0000 0.38580  0.91680  0.00110  Biso   1.000  H
  O33      1.0000 0.10987  0.48078  0.50174  Biso   1.000  O
  O34      1.0000 0.02777  0.44043  0.46292  Biso   1.000  O
  C257     1.0000 0.09177  0.45263  0.47713  Biso   1.000  C
  C258     1.0000 0.14957  0.43003  0.46254  Biso   1.000  C
  C259     1.0000 0.13677  0.40313  0.43474  Biso   1.000  C
  H193     1.0000 0.08827  0.39373  0.42533  Biso   1.000  H
  C260     1.0000 0.09697  0.28863  0.32223  Biso   1.000  C
  C261     1.0000 0.08987  0.27753  0.29283  Biso   1.000  C
  H194     1.0000 0.04677  0.22713  0.28413  Biso   1.000  H
  C262     1.0000 0.15507  0.33173  0.27513  Biso   1.000  C
  C263     1.0000 0.22977  0.39193  0.28693  Biso   1.000  C
  C264     1.0000 0.23677  0.40283  0.31653  Biso   1.000  C
  C265     1.0000 0.29407  0.44473  0.26893  Biso   1.000  C
  H195     1.0000 0.28707  0.43713  0.24863  Biso   1.000  H
  C266     1.0000 0.36917  0.50373  0.28043  Biso   1.000  C
  C267     1.0000 0.38147  0.51113  0.30963  Biso   1.000  C
  C268     1.0000 0.31377  0.46343  0.32733  Biso   1.000  C
  H196     1.0000 0.32987  0.46453  0.34683  Biso   1.000  H
  H197     1.0000 0.08957  0.20523  0.28263  Biso   1.000  H
  C269     1.0000 0.27567  0.45233  0.26743  Biso   1.000  C
  H198     1.0000 0.26997  0.45363  0.24713  Biso   1.000  H
  C270     1.0000 0.33967  0.52433  0.27833  Biso   1.000  C
  H199     1.0000 0.36947  0.57593  0.26803  Biso   1.000  H
  C271     1.0000 0.35767  0.53733  0.30693  Biso   1.000  C
  H200     1.0000 0.38967  0.58753  0.31773  Biso   1.000  H
  C272     1.0000 0.30367  0.47833  0.32643  Biso   1.000  C
  H201     1.0000 0.31407  0.47633  0.34653  Biso   1.000  H
  H202     1.0000 0.40597  0.54913  0.26813  Biso   1.000  H
  H203     1.0000 0.42397  0.56273  0.31813  Biso   1.000  H
  H204     1.0000 0.05247  0.25013  0.33443  Biso   1.000  H
  O35      1.0000 0.77653  0.81412  0.83508  Biso   1.000  O
  O36      1.0000 0.69443  0.77377  0.79626  Biso   1.000  O
  C273     1.0000 0.75843  0.78597  0.81047  Biso   1.000  C
  C274     1.0000 0.81623  0.76337  0.79588  Biso   1.000  C
  C275     1.0000 0.80343  0.73647  0.76808  Biso   1.000  C
  H205     1.0000 0.75493  0.72707  0.75867  Biso   1.000  H
  C276     1.0000 0.76363  0.62197  0.65557  Biso   1.000  C
  C277     1.0000 0.75653  0.61087  0.62617  Biso   1.000  C
  H206     1.0000 0.71343  0.56047  0.61747  Biso   1.000  H
  C278     1.0000 0.82173  0.66507  0.60847  Biso   1.000  C
  C279     1.0000 0.89643  0.72527  0.62027  Biso   1.000  C
  C280     1.0000 0.90343  0.73617  0.64987  Biso   1.000  C
  C281     1.0000 0.96073  0.77807  0.60227  Biso   1.000  C
  H207     1.0000 0.95373  0.77047  0.58197  Biso   1.000  H
  C282     1.0000 0.03583  0.83707  0.61377  Biso   1.000  C
  C283     1.0000 0.04813  0.84447  0.64297  Biso   1.000  C
  C284     1.0000 0.98043  0.79677  0.66067  Biso   1.000  C
  H208     1.0000 0.99653  0.79787  0.68017  Biso   1.000  H
  H209     1.0000 0.75623  0.53857  0.61597  Biso   1.000  H
  C285     1.0000 0.94233  0.78567  0.60077  Biso   1.000  C
  H210     1.0000 0.93663  0.78697  0.58047  Biso   1.000  H
  C286     1.0000 0.00633  0.85767  0.61167  Biso   1.000  C
  H211     1.0000 0.03613  0.90927  0.60137  Biso   1.000  H
  C287     1.0000 0.02433  0.87067  0.64027  Biso   1.000  C
  H212     1.0000 0.05633  0.92087  0.65107  Biso   1.000  H
  C288     1.0000 0.97033  0.81167  0.65977  Biso   1.000  C
  H213     1.0000 0.98073  0.80967  0.67987  Biso   1.000  H
  H214     1.0000 0.07263  0.88247  0.60147  Biso   1.000  H
  H215     1.0000 0.09063  0.89607  0.65147  Biso   1.000  H
  H216     1.0000 0.71913  0.58347  0.66777  Biso   1.000  H
  O37      1.0000 0.44320  0.29575  0.16841  Biso   1.000  O
  O38      1.0000 0.36110  0.25400  0.12959  Biso   1.000  O
  C289     1.0000 0.42510  0.30580  0.14380  Biso   1.000  C
  C290     1.0000 0.48290  0.38620  0.12921  Biso   1.000  C
  C291     1.0000 0.47010  0.40030  0.10141  Biso   1.000  C
  H217     1.0000 0.42160  0.36120  0.09200  Biso   1.000  H
  C292     1.0000 0.43030  0.47500  0.98890  Biso   1.000  C
  C293     1.0000 0.42320  0.47900  0.95950  Biso   1.000  C
  H218     1.0000 0.38010  0.48630  0.95080  Biso   1.000  H
  C294     1.0000 0.48840  0.49000  0.94180  Biso   1.000  C
  C295     1.0000 0.56310  0.50450  0.95360  Biso   1.000  C
  C296     1.0000 0.57010  0.50060  0.98320  Biso   1.000  C
  C297     1.0000 0.62740  0.51600  0.93560  Biso   1.000  C
  H219     1.0000 0.62040  0.51660  0.91530  Biso   1.000  H
  C298     1.0000 0.70250  0.53210  0.94710  Biso   1.000  C
  C299     1.0000 0.71480  0.53700  0.97630  Biso   1.000  C
  C300     1.0000 0.64710  0.51700  0.99400  Biso   1.000  C
  H220     1.0000 0.66320  0.53200  0.01350  Biso   1.000  H
  H221     1.0000 0.42290  0.55100  0.94930  Biso   1.000  H
  C301     1.0000 0.60900  0.49000  0.93410  Biso   1.000  C
  H222     1.0000 0.60330  0.48300  0.91380  Biso   1.000  H
  C302     1.0000 0.67300  0.48200  0.94500  Biso   1.000  C
  H223     1.0000 0.70280  0.46020  0.93470  Biso   1.000  H
  C303     1.0000 0.69100  0.48700  0.97360  Biso   1.000  C
  H224     1.0000 0.72300  0.46880  0.98440  Biso   1.000  H
  C304     1.0000 0.63700  0.49200  0.99310  Biso   1.000  C
  H225     1.0000 0.64740  0.50440  0.01320  Biso   1.000  H
  H226     1.0000 0.73930  0.52350  0.93480  Biso   1.000  H
  H227     1.0000 0.75730  0.52790  0.98480  Biso   1.000  H
  H228     1.0000 0.38580  0.46900  0.00110  Biso   1.000  H
  O39      1.0000 0.10987  0.62908  0.50174  Biso   1.000  O
  O40      1.0000 0.02777  0.58733  0.46292  Biso   1.000  O
  C305     1.0000 0.09177  0.63913  0.47713  Biso   1.000  C
  C306     1.0000 0.14957  0.71953  0.46254  Biso   1.000  C
  C307     1.0000 0.13677  0.73363  0.43474  Biso   1.000  C
  H229     1.0000 0.08827  0.69453  0.42533  Biso   1.000  H
  C308     1.0000 0.09697  0.80833  0.32223  Biso   1.000  C
  C309     1.0000 0.08987  0.81233  0.29283  Biso   1.000  C
  H230     1.0000 0.04677  0.81963  0.28413  Biso   1.000  H
  C310     1.0000 0.15507  0.82333  0.27513  Biso   1.000  C
  C311     1.0000 0.22977  0.83783  0.28693  Biso   1.000  C
  C312     1.0000 0.23677  0.83393  0.31653  Biso   1.000  C
  C313     1.0000 0.29407  0.84933  0.26893  Biso   1.000  C
  H231     1.0000 0.28707  0.84993  0.24863  Biso   1.000  H
  C314     1.0000 0.36917  0.86543  0.28043  Biso   1.000  C
  C315     1.0000 0.38147  0.87033  0.30963  Biso   1.000  C
  C316     1.0000 0.31377  0.85033  0.32733  Biso   1.000  C
  H232     1.0000 0.32987  0.86533  0.34683  Biso   1.000  H
  H233     1.0000 0.08957  0.88433  0.28263  Biso   1.000  H
  C317     1.0000 0.27567  0.82333  0.26743  Biso   1.000  C
  H234     1.0000 0.26997  0.81633  0.24713  Biso   1.000  H
  C318     1.0000 0.33967  0.81533  0.27833  Biso   1.000  C
  H235     1.0000 0.36947  0.79353  0.26803  Biso   1.000  H
  C319     1.0000 0.35767  0.82033  0.30693  Biso   1.000  C
  H236     1.0000 0.38967  0.80213  0.31773  Biso   1.000  H
  C320     1.0000 0.30367  0.82533  0.32643  Biso   1.000  C
  H237     1.0000 0.31407  0.83773  0.34653  Biso   1.000  H
  H238     1.0000 0.40597  0.85683  0.26813  Biso   1.000  H
  H239     1.0000 0.42397  0.86123  0.31813  Biso   1.000  H
  H240     1.0000 0.05247  0.80233  0.33443  Biso   1.000  H
  O41      1.0000 0.77653  0.96242  0.83508  Biso   1.000  O
  O42      1.0000 0.69443  0.92067  0.79626  Biso   1.000  O
  C321     1.0000 0.75843  0.97247  0.81047  Biso   1.000  C
  C322     1.0000 0.81623  0.05287  0.79588  Biso   1.000  C
  C323     1.0000 0.80343  0.06697  0.76808  Biso   1.000  C
  H241     1.0000 0.75493  0.02787  0.75867  Biso   1.000  H
  C324     1.0000 0.76363  0.14167  0.65557  Biso   1.000  C
  C325     1.0000 0.75653  0.14567  0.62617  Biso   1.000  C
  H242     1.0000 0.71343  0.15297  0.61747  Biso   1.000  H
  C326     1.0000 0.82173  0.15667  0.60847  Biso   1.000  C
  C327     1.0000 0.89643  0.17117  0.62027  Biso   1.000  C
  C328     1.0000 0.90343  0.16727  0.64987  Biso   1.000  C
  C329     1.0000 0.96073  0.18267  0.60227  Biso   1.000  C
  H243     1.0000 0.95373  0.18327  0.58197  Biso   1.000  H
  C330     1.0000 0.03583  0.19877  0.61377  Biso   1.000  C
  C331     1.0000 0.04813  0.20367  0.64297  Biso   1.000  C
  C332     1.0000 0.98043  0.18367  0.66067  Biso   1.000  C
  H244     1.0000 0.99653  0.19867  0.68017  Biso   1.000  H
  H245     1.0000 0.75623  0.21767  0.61597  Biso   1.000  H
  C333     1.0000 0.94233  0.15667  0.60077  Biso   1.000  C
  H246     1.0000 0.93663  0.14967  0.58047  Biso   1.000  H
  C334     1.0000 0.00633  0.14867  0.61167  Biso   1.000  C
  H247     1.0000 0.03613  0.12687  0.60137  Biso   1.000  H
  C335     1.0000 0.02433  0.15367  0.64027  Biso   1.000  C
  H248     1.0000 0.05633  0.13547  0.65107  Biso   1.000  H
  C336     1.0000 0.97033  0.15867  0.65977  Biso   1.000  C
  H249     1.0000 0.98073  0.17107  0.67987  Biso   1.000  H
  H250     1.0000 0.07263  0.19017  0.60147  Biso   1.000  H
  H251     1.0000 0.09063  0.19457  0.65147  Biso   1.000  H
  H252     1.0000 0.71913  0.13567  0.66777  Biso   1.000  H
  O43      1.0000 0.70425  0.14745  0.16841  Biso   1.000  O
  O44      1.0000 0.74600  0.10710  0.12959  Biso   1.000  O
  C337     1.0000 0.69420  0.11930  0.14380  Biso   1.000  C
  C338     1.0000 0.61380  0.09670  0.12921  Biso   1.000  C
  C339     1.0000 0.59970  0.06980  0.10141  Biso   1.000  C
  H253     1.0000 0.63880  0.06040  0.09200  Biso   1.000  H
  C340     1.0000 0.52500  0.95530  0.98890  Biso   1.000  C
  C341     1.0000 0.52100  0.94420  0.95950  Biso   1.000  C
  H254     1.0000 0.51370  0.89380  0.95080  Biso   1.000  H
  C342     1.0000 0.51000  0.99840  0.94180  Biso   1.000  C
  C343     1.0000 0.49550  0.05860  0.95360  Biso   1.000  C
  C344     1.0000 0.49940  0.06950  0.98320  Biso   1.000  C
  C345     1.0000 0.48400  0.11140  0.93560  Biso   1.000  C
  H255     1.0000 0.48340  0.10380  0.91530  Biso   1.000  H
  C346     1.0000 0.46790  0.17040  0.94710  Biso   1.000  C
  C347     1.0000 0.46300  0.17780  0.97630  Biso   1.000  C
  C348     1.0000 0.48300  0.13010  0.99400  Biso   1.000  C
  H256     1.0000 0.46800  0.13120  0.01350  Biso   1.000  H
  H257     1.0000 0.44900  0.87190  0.94930  Biso   1.000  H
  C349     1.0000 0.51000  0.11900  0.93410  Biso   1.000  C
  H258     1.0000 0.51700  0.12030  0.91380  Biso   1.000  H
  C350     1.0000 0.51800  0.19100  0.94500  Biso   1.000  C
  H259     1.0000 0.53980  0.24260  0.93470  Biso   1.000  H
  C351     1.0000 0.51300  0.20400  0.97360  Biso   1.000  C
  H260     1.0000 0.53120  0.25420  0.98440  Biso   1.000  H
  C352     1.0000 0.50800  0.14500  0.99310  Biso   1.000  C
  H261     1.0000 0.49560  0.14300  0.01320  Biso   1.000  H
  H262     1.0000 0.47650  0.21580  0.93480  Biso   1.000  H
  H263     1.0000 0.47210  0.22940  0.98480  Biso   1.000  H
  H264     1.0000 0.53100  0.91680  0.00110  Biso   1.000  H
  O45      1.0000 0.37092  0.48078  0.50174  Biso   1.000  O
  O46      1.0000 0.41267  0.44043  0.46292  Biso   1.000  O
  C353     1.0000 0.36087  0.45263  0.47713  Biso   1.000  C
  C354     1.0000 0.28047  0.43003  0.46254  Biso   1.000  C
  C355     1.0000 0.26637  0.40313  0.43474  Biso   1.000  C
  H265     1.0000 0.30547  0.39373  0.42533  Biso   1.000  H
  C356     1.0000 0.19167  0.28863  0.32223  Biso   1.000  C
  C357     1.0000 0.18767  0.27753  0.29283  Biso   1.000  C
  H266     1.0000 0.18037  0.22713  0.28413  Biso   1.000  H
  C358     1.0000 0.17667  0.33173  0.27513  Biso   1.000  C
  C359     1.0000 0.16217  0.39193  0.28693  Biso   1.000  C
  C360     1.0000 0.16607  0.40283  0.31653  Biso   1.000  C
  C361     1.0000 0.15067  0.44473  0.26893  Biso   1.000  C
  H267     1.0000 0.15007  0.43713  0.24863  Biso   1.000  H
  C362     1.0000 0.13457  0.50373  0.28043  Biso   1.000  C
  C363     1.0000 0.12967  0.51113  0.30963  Biso   1.000  C
  C364     1.0000 0.14967  0.46343  0.32733  Biso   1.000  C
  H268     1.0000 0.13467  0.46453  0.34683  Biso   1.000  H
  H269     1.0000 0.11567  0.20523  0.28263  Biso   1.000  H
  C365     1.0000 0.17667  0.45233  0.26743  Biso   1.000  C
  H270     1.0000 0.18367  0.45363  0.24713  Biso   1.000  H
  C366     1.0000 0.18467  0.52433  0.27833  Biso   1.000  C
  H271     1.0000 0.20647  0.57593  0.26803  Biso   1.000  H
  C367     1.0000 0.17967  0.53733  0.30693  Biso   1.000  C
  H272     1.0000 0.19787  0.58753  0.31773  Biso   1.000  H
  C368     1.0000 0.17467  0.47833  0.32643  Biso   1.000  C
  H273     1.0000 0.16227  0.47633  0.34653  Biso   1.000  H
  H274     1.0000 0.14317  0.54913  0.26813  Biso   1.000  H
  H275     1.0000 0.13877  0.56273  0.31813  Biso   1.000  H
  H276     1.0000 0.19767  0.25013  0.33443  Biso   1.000  H
  O47      1.0000 0.03758  0.81412  0.83508  Biso   1.000  O
  O48      1.0000 0.07933  0.77377  0.79626  Biso   1.000  O
  C369     1.0000 0.02753  0.78597  0.81047  Biso   1.000  C
  C370     1.0000 0.94713  0.76337  0.79588  Biso   1.000  C
  C371     1.0000 0.93303  0.73647  0.76808  Biso   1.000  C
  H277     1.0000 0.97213  0.72707  0.75867  Biso   1.000  H
  C372     1.0000 0.85833  0.62197  0.65557  Biso   1.000  C
  C373     1.0000 0.85433  0.61087  0.62617  Biso   1.000  C
  H278     1.0000 0.84703  0.56047  0.61747  Biso   1.000  H
  C374     1.0000 0.84333  0.66507  0.60847  Biso   1.000  C
  C375     1.0000 0.82883  0.72527  0.62027  Biso   1.000  C
  C376     1.0000 0.83273  0.73617  0.64987  Biso   1.000  C
  C377     1.0000 0.81733  0.77807  0.60227  Biso   1.000  C
  H279     1.0000 0.81673  0.77047  0.58197  Biso   1.000  H
  C378     1.0000 0.80123  0.83707  0.61377  Biso   1.000  C
  C379     1.0000 0.79633  0.84447  0.64297  Biso   1.000  C
  C380     1.0000 0.81633  0.79677  0.66067  Biso   1.000  C
  H280     1.0000 0.80133  0.79787  0.68017  Biso   1.000  H
  H281     1.0000 0.78233  0.53857  0.61597  Biso   1.000  H
  C381     1.0000 0.84333  0.78567  0.60077  Biso   1.000  C
  H282     1.0000 0.85033  0.78697  0.58047  Biso   1.000  H
  C382     1.0000 0.85133  0.85767  0.61167  Biso   1.000  C
  H283     1.0000 0.87313  0.90927  0.60137  Biso   1.000  H
  C383     1.0000 0.84633  0.87067  0.64027  Biso   1.000  C
  H284     1.0000 0.86453  0.92087  0.65107  Biso   1.000  H
  C384     1.0000 0.84133  0.81167  0.65977  Biso   1.000  C
  H285     1.0000 0.82893  0.80967  0.67987  Biso   1.000  H
  H286     1.0000 0.80983  0.88247  0.60147  Biso   1.000  H
  H287     1.0000 0.80543  0.89607  0.65147  Biso   1.000  H
  H288     1.0000 0.86433  0.58347  0.66777  Biso   1.000  H
  O49      1.0000 0.85255  0.55680  0.16841  Biso   1.000  O
  O50      1.0000 0.89290  0.63890  0.12959  Biso   1.000  O
  C385     1.0000 0.88070  0.57490  0.14380  Biso   1.000  C
  C386     1.0000 0.90330  0.51710  0.12921  Biso   1.000  C
  C387     1.0000 0.93020  0.52990  0.10141  Biso   1.000  C
  H289     1.0000 0.93960  0.57840  0.09200  Biso   1.000  H
  C388     1.0000 0.04470  0.56970  0.98890  Biso   1.000  C
  C389     1.0000 0.05580  0.57680  0.95950  Biso   1.000  C
  H290     1.0000 0.10620  0.61990  0.95080  Biso   1.000  H
  C390     1.0000 0.00160  0.51160  0.94180  Biso   1.000  C
  C391     1.0000 0.94140  0.43690  0.95360  Biso   1.000  C
  C392     1.0000 0.93050  0.42990  0.98320  Biso   1.000  C
  C393     1.0000 0.88860  0.37260  0.93560  Biso   1.000  C
  H291     1.0000 0.89620  0.37960  0.91530  Biso   1.000  H
  C394     1.0000 0.82960  0.29750  0.94710  Biso   1.000  C
  C395     1.0000 0.82220  0.28520  0.97630  Biso   1.000  C
  C396     1.0000 0.86990  0.35290  0.99400  Biso   1.000  C
  H292     1.0000 0.86880  0.33680  0.01350  Biso   1.000  H
  H293     1.0000 0.12810  0.57710  0.94930  Biso   1.000  H
  C397     1.0000 0.88100  0.39100  0.93410  Biso   1.000  C
  H294     1.0000 0.87970  0.39670  0.91380  Biso   1.000  H
  C398     1.0000 0.80900  0.32700  0.94500  Biso   1.000  C
  H295     1.0000 0.75740  0.29720  0.93470  Biso   1.000  H
  C399     1.0000 0.79600  0.30900  0.97360  Biso   1.000  C
  H296     1.0000 0.74580  0.27700  0.98440  Biso   1.000  H
  C400     1.0000 0.85500  0.36300  0.99310  Biso   1.000  C
  H297     1.0000 0.85700  0.35260  0.01320  Biso   1.000  H
  H298     1.0000 0.78420  0.26070  0.93480  Biso   1.000  H
  H299     1.0000 0.77060  0.24270  0.98480  Biso   1.000  H
  H300     1.0000 0.08320  0.61420  0.00110  Biso   1.000  H
  O51      1.0000 0.51922  0.89013  0.50174  Biso   1.000  O
  O52      1.0000 0.55957  0.97223  0.46292  Biso   1.000  O
  C401     1.0000 0.54737  0.90823  0.47713  Biso   1.000  C
  C402     1.0000 0.56997  0.85043  0.46254  Biso   1.000  C
  C403     1.0000 0.59687  0.86323  0.43474  Biso   1.000  C
  H301     1.0000 0.60627  0.91173  0.42533  Biso   1.000  H
  C404     1.0000 0.71137  0.90303  0.32223  Biso   1.000  C
  C405     1.0000 0.72247  0.91013  0.29283  Biso   1.000  C
  H302     1.0000 0.77287  0.95323  0.28413  Biso   1.000  H
  C406     1.0000 0.66827  0.84493  0.27513  Biso   1.000  C
  C407     1.0000 0.60807  0.77023  0.28693  Biso   1.000  C
  C408     1.0000 0.59717  0.76323  0.31653  Biso   1.000  C
  C409     1.0000 0.55527  0.70593  0.26893  Biso   1.000  C
  H303     1.0000 0.56287  0.71293  0.24863  Biso   1.000  H
  C410     1.0000 0.49627  0.63083  0.28043  Biso   1.000  C
  C411     1.0000 0.48887  0.61853  0.30963  Biso   1.000  C
  C412     1.0000 0.53657  0.68623  0.32733  Biso   1.000  C
  H304     1.0000 0.53547  0.67013  0.34683  Biso   1.000  H
  H305     1.0000 0.79477  0.91043  0.28263  Biso   1.000  H
  C413     1.0000 0.54767  0.72433  0.26743  Biso   1.000  C
  H306     1.0000 0.54637  0.73003  0.24713  Biso   1.000  H
  C414     1.0000 0.47567  0.66033  0.27833  Biso   1.000  C
  H307     1.0000 0.42407  0.63053  0.26803  Biso   1.000  H
  C415     1.0000 0.46267  0.64233  0.30693  Biso   1.000  C
  H308     1.0000 0.41247  0.61033  0.31773  Biso   1.000  H
  C416     1.0000 0.52167  0.69633  0.32643  Biso   1.000  C
  H309     1.0000 0.52367  0.68593  0.34653  Biso   1.000  H
  H310     1.0000 0.45087  0.59403  0.26813  Biso   1.000  H
  H311     1.0000 0.43727  0.57603  0.31813  Biso   1.000  H
  H312     1.0000 0.74987  0.94753  0.33443  Biso   1.000  H
  O53      1.0000 0.18588  0.22347  0.83508  Biso   1.000  O
  O54      1.0000 0.22623  0.30557  0.79626  Biso   1.000  O
  C417     1.0000 0.21403  0.24157  0.81047  Biso   1.000  C
  C418     1.0000 0.23663  0.18377  0.79588  Biso   1.000  C
  C419     1.0000 0.26353  0.19657  0.76808  Biso   1.000  C
  H313     1.0000 0.27293  0.24507  0.75867  Biso   1.000  H
  C420     1.0000 0.37803  0.23637  0.65557  Biso   1.000  C
  C421     1.0000 0.38913  0.24347  0.62617  Biso   1.000  C
  H314     1.0000 0.43953  0.28657  0.61747  Biso   1.000  H
  C422     1.0000 0.33493  0.17827  0.60847  Biso   1.000  C
  C423     1.0000 0.27473  0.10357  0.62027  Biso   1.000  C
  C424     1.0000 0.26383  0.09657  0.64987  Biso   1.000  C
  C425     1.0000 0.22193  0.03927  0.60227  Biso   1.000  C
  H315     1.0000 0.22953  0.04627  0.58197  Biso   1.000  H
  C426     1.0000 0.16293  0.96417  0.61377  Biso   1.000  C
  C427     1.0000 0.15553  0.95187  0.64297  Biso   1.000  C
  C428     1.0000 0.20323  0.01957  0.66067  Biso   1.000  C
  H316     1.0000 0.20213  0.00347  0.68017  Biso   1.000  H
  H317     1.0000 0.46143  0.24377  0.61597  Biso   1.000  H
  C429     1.0000 0.21433  0.05767  0.60077  Biso   1.000  C
  H318     1.0000 0.21303  0.06337  0.58047  Biso   1.000  H
  C430     1.0000 0.14233  0.99367  0.61167  Biso   1.000  C
  H319     1.0000 0.09073  0.96387  0.60137  Biso   1.000  H
  C431     1.0000 0.12933  0.97567  0.64027  Biso   1.000  C
  H320     1.0000 0.07913  0.94367  0.65107  Biso   1.000  H
  C432     1.0000 0.18833  0.02967  0.65977  Biso   1.000  C
  H321     1.0000 0.19033  0.01927  0.67987  Biso   1.000  H
  H322     1.0000 0.11753  0.92737  0.60147  Biso   1.000  H
  H323     1.0000 0.10393  0.90937  0.65147  Biso   1.000  H
  H324     1.0000 0.41653  0.28087  0.66777  Biso   1.000  H
  O55      1.0000 0.29575  0.44320  0.83159  Biso   1.000  O
  O56      1.0000 0.25400  0.36110  0.87041  Biso   1.000  O
  C433     1.0000 0.30580  0.42510  0.85620  Biso   1.000  C
  C434     1.0000 0.38620  0.48290  0.87079  Biso   1.000  C
  C435     1.0000 0.40030  0.47010  0.89859  Biso   1.000  C
  H325     1.0000 0.36120  0.42160  0.90800  Biso   1.000  H
  C436     1.0000 0.47500  0.43030  0.01110  Biso   1.000  C
  C437     1.0000 0.47900  0.42320  0.04050  Biso   1.000  C
  H326     1.0000 0.48630  0.38010  0.04920  Biso   1.000  H
  C438     1.0000 0.49000  0.48840  0.05820  Biso   1.000  C
  C439     1.0000 0.50450  0.56310  0.04640  Biso   1.000  C
  C440     1.0000 0.50060  0.57010  0.01680  Biso   1.000  C
  C441     1.0000 0.51600  0.62740  0.06440  Biso   1.000  C
  H327     1.0000 0.51660  0.62040  0.08470  Biso   1.000  H
  C442     1.0000 0.53210  0.70250  0.05290  Biso   1.000  C
  C443     1.0000 0.53700  0.71480  0.02370  Biso   1.000  C
  C444     1.0000 0.51700  0.64710  0.00600  Biso   1.000  C
  H328     1.0000 0.53200  0.66320  0.98650  Biso   1.000  H
  H329     1.0000 0.55100  0.42290  0.05070  Biso   1.000  H
  C445     1.0000 0.49000  0.60900  0.06590  Biso   1.000  C
  H330     1.0000 0.48300  0.60330  0.08620  Biso   1.000  H
  C446     1.0000 0.48200  0.67300  0.05500  Biso   1.000  C
  H331     1.0000 0.46020  0.70280  0.06530  Biso   1.000  H
  C447     1.0000 0.48700  0.69100  0.02640  Biso   1.000  C
  H332     1.0000 0.46880  0.72300  0.01560  Biso   1.000  H
  C448     1.0000 0.49200  0.63700  0.00690  Biso   1.000  C
  H333     1.0000 0.50440  0.64740  0.98680  Biso   1.000  H
  H334     1.0000 0.52350  0.73930  0.06520  Biso   1.000  H
  H335     1.0000 0.52790  0.75730  0.01520  Biso   1.000  H
  H336     1.0000 0.46900  0.38580  0.99890  Biso   1.000  H
  O57      1.0000 0.96242  0.77653  0.16492  Biso   1.000  O
  O58      1.0000 0.92067  0.69443  0.20374  Biso   1.000  O
  C449     1.0000 0.97247  0.75843  0.18953  Biso   1.000  C
  C450     1.0000 0.05287  0.81623  0.20412  Biso   1.000  C
  C451     1.0000 0.06697  0.80343  0.23192  Biso   1.000  C
  H337     1.0000 0.02787  0.75493  0.24133  Biso   1.000  H
  C452     1.0000 0.14167  0.76363  0.34443  Biso   1.000  C
  C453     1.0000 0.14567  0.75653  0.37383  Biso   1.000  C
  H338     1.0000 0.15297  0.71343  0.38253  Biso   1.000  H
  C454     1.0000 0.15667  0.82173  0.39153  Biso   1.000  C
  C455     1.0000 0.17117  0.89643  0.37973  Biso   1.000  C
  C456     1.0000 0.16727  0.90343  0.35013  Biso   1.000  C
  C457     1.0000 0.18267  0.96073  0.39773  Biso   1.000  C
  H339     1.0000 0.18327  0.95373  0.41803  Biso   1.000  H
  C458     1.0000 0.19877  0.03583  0.38623  Biso   1.000  C
  C459     1.0000 0.20367  0.04813  0.35703  Biso   1.000  C
  C460     1.0000 0.18367  0.98043  0.33933  Biso   1.000  C
  H340     1.0000 0.19867  0.99653  0.31983  Biso   1.000  H
  H341     1.0000 0.21767  0.75623  0.38403  Biso   1.000  H
  C461     1.0000 0.15667  0.94233  0.39923  Biso   1.000  C
  H342     1.0000 0.14967  0.93663  0.41953  Biso   1.000  H
  C462     1.0000 0.14867  0.00633  0.38833  Biso   1.000  C
  H343     1.0000 0.12687  0.03613  0.39863  Biso   1.000  H
  C463     1.0000 0.15367  0.02433  0.35973  Biso   1.000  C
  H344     1.0000 0.13547  0.05633  0.34893  Biso   1.000  H
  C464     1.0000 0.15867  0.97033  0.34023  Biso   1.000  C
  H345     1.0000 0.17107  0.98073  0.32013  Biso   1.000  H
  H346     1.0000 0.19017  0.07263  0.39853  Biso   1.000  H
  H347     1.0000 0.19457  0.09063  0.34853  Biso   1.000  H
  H348     1.0000 0.13567  0.71913  0.33223  Biso   1.000  H
  O59      1.0000 0.62908  0.10987  0.49826  Biso   1.000  O
  O60      1.0000 0.58733  0.02777  0.53708  Biso   1.000  O
  C465     1.0000 0.63913  0.09177  0.52287  Biso   1.000  C
  C466     1.0000 0.71953  0.14957  0.53746  Biso   1.000  C
  C467     1.0000 0.73363  0.13677  0.56526  Biso   1.000  C
  H349     1.0000 0.69453  0.08827  0.57467  Biso   1.000  H
  C468     1.0000 0.80833  0.09697  0.67777  Biso   1.000  C
  C469     1.0000 0.81233  0.08987  0.70717  Biso   1.000  C
  H350     1.0000 0.81963  0.04677  0.71587  Biso   1.000  H
  C470     1.0000 0.82333  0.15507  0.72487  Biso   1.000  C
  C471     1.0000 0.83783  0.22977  0.71307  Biso   1.000  C
  C472     1.0000 0.83393  0.23677  0.68347  Biso   1.000  C
  C473     1.0000 0.84933  0.29407  0.73107  Biso   1.000  C
  H351     1.0000 0.84993  0.28707  0.75137  Biso   1.000  H
  C474     1.0000 0.86543  0.36917  0.71957  Biso   1.000  C
  C475     1.0000 0.87033  0.38147  0.69037  Biso   1.000  C
  C476     1.0000 0.85033  0.31377  0.67267  Biso   1.000  C
  H352     1.0000 0.86533  0.32987  0.65317  Biso   1.000  H
  H353     1.0000 0.88433  0.08957  0.71737  Biso   1.000  H
  C477     1.0000 0.82333  0.27567  0.73257  Biso   1.000  C
  H354     1.0000 0.81633  0.26997  0.75287  Biso   1.000  H
  C478     1.0000 0.81533  0.33967  0.72167  Biso   1.000  C
  H355     1.0000 0.79353  0.36947  0.73197  Biso   1.000  H
  C479     1.0000 0.82033  0.35767  0.69307  Biso   1.000  C
  H356     1.0000 0.80213  0.38967  0.68227  Biso   1.000  H
  C480     1.0000 0.82533  0.30367  0.67357  Biso   1.000  C
  H357     1.0000 0.83773  0.31407  0.65347  Biso   1.000  H
  H358     1.0000 0.85683  0.40597  0.73187  Biso   1.000  H
  H359     1.0000 0.86123  0.42397  0.68187  Biso   1.000  H
  H360     1.0000 0.80233  0.05247  0.66557  Biso   1.000  H
  O61      1.0000 0.14745  0.70425  0.83159  Biso   1.000  O
  O62      1.0000 0.10710  0.74600  0.87041  Biso   1.000  O
  C481     1.0000 0.11930  0.69420  0.85620  Biso   1.000  C
  C482     1.0000 0.09670  0.61380  0.87079  Biso   1.000  C
  C483     1.0000 0.06980  0.59970  0.89859  Biso   1.000  C
  H361     1.0000 0.06040  0.63880  0.90800  Biso   1.000  H
  C484     1.0000 0.95530  0.52500  0.01110  Biso   1.000  C
  C485     1.0000 0.94420  0.52100  0.04050  Biso   1.000  C
  H362     1.0000 0.89380  0.51370  0.04920  Biso   1.000  H
  C486     1.0000 0.99840  0.51000  0.05820  Biso   1.000  C
  C487     1.0000 0.05860  0.49550  0.04640  Biso   1.000  C
  C488     1.0000 0.06950  0.49940  0.01680  Biso   1.000  C
  C489     1.0000 0.11140  0.48400  0.06440  Biso   1.000  C
  H363     1.0000 0.10380  0.48340  0.08470  Biso   1.000  H
  C490     1.0000 0.17040  0.46790  0.05290  Biso   1.000  C
  C491     1.0000 0.17780  0.46300  0.02370  Biso   1.000  C
  C492     1.0000 0.13010  0.48300  0.00600  Biso   1.000  C
  H364     1.0000 0.13120  0.46800  0.98650  Biso   1.000  H
  H365     1.0000 0.87190  0.44900  0.05070  Biso   1.000  H
  C493     1.0000 0.11900  0.51000  0.06590  Biso   1.000  C
  H366     1.0000 0.12030  0.51700  0.08620  Biso   1.000  H
  C494     1.0000 0.19100  0.51800  0.05500  Biso   1.000  C
  H367     1.0000 0.24260  0.53980  0.06530  Biso   1.000  H
  C495     1.0000 0.20400  0.51300  0.02640  Biso   1.000  C
  H368     1.0000 0.25420  0.53120  0.01560  Biso   1.000  H
  C496     1.0000 0.14500  0.50800  0.00690  Biso   1.000  C
  H369     1.0000 0.14300  0.49560  0.98680  Biso   1.000  H
  H370     1.0000 0.21580  0.47650  0.06520  Biso   1.000  H
  H371     1.0000 0.22940  0.47210  0.01520  Biso   1.000  H
  H372     1.0000 0.91680  0.53100  0.99890  Biso   1.000  H
  O63      1.0000 0.81412  0.03758  0.16492  Biso   1.000  O
  O64      1.0000 0.77377  0.07933  0.20374  Biso   1.000  O
  C497     1.0000 0.78597  0.02753  0.18953  Biso   1.000  C
  C498     1.0000 0.76337  0.94713  0.20412  Biso   1.000  C
  C499     1.0000 0.73647  0.93303  0.23192  Biso   1.000  C
  H373     1.0000 0.72707  0.97213  0.24133  Biso   1.000  H
  C500     1.0000 0.62197  0.85833  0.34443  Biso   1.000  C
  C501     1.0000 0.61087  0.85433  0.37383  Biso   1.000  C
  H374     1.0000 0.56047  0.84703  0.38253  Biso   1.000  H
  C502     1.0000 0.66507  0.84333  0.39153  Biso   1.000  C
  C503     1.0000 0.72527  0.82883  0.37973  Biso   1.000  C
  C504     1.0000 0.73617  0.83273  0.35013  Biso   1.000  C
  C505     1.0000 0.77807  0.81733  0.39773  Biso   1.000  C
  H375     1.0000 0.77047  0.81673  0.41803  Biso   1.000  H
  C506     1.0000 0.83707  0.80123  0.38623  Biso   1.000  C
  C507     1.0000 0.84447  0.79633  0.35703  Biso   1.000  C
  C508     1.0000 0.79677  0.81633  0.33933  Biso   1.000  C
  H376     1.0000 0.79787  0.80133  0.31983  Biso   1.000  H
  H377     1.0000 0.53857  0.78233  0.38403  Biso   1.000  H
  C509     1.0000 0.78567  0.84333  0.39923  Biso   1.000  C
  H378     1.0000 0.78697  0.85033  0.41953  Biso   1.000  H
  C510     1.0000 0.85767  0.85133  0.38833  Biso   1.000  C
  H379     1.0000 0.90927  0.87313  0.39863  Biso   1.000  H
  C511     1.0000 0.87067  0.84633  0.35973  Biso   1.000  C
  H380     1.0000 0.92087  0.86453  0.34893  Biso   1.000  H
  C512     1.0000 0.81167  0.84133  0.34023  Biso   1.000  C
  H381     1.0000 0.80967  0.82893  0.32013  Biso   1.000  H
  H382     1.0000 0.88247  0.80983  0.39853  Biso   1.000  H
  H383     1.0000 0.89607  0.80543  0.34853  Biso   1.000  H
  H384     1.0000 0.58347  0.86433  0.33223  Biso   1.000  H
  O65      1.0000 0.48078  0.37092  0.49826  Biso   1.000  O
  O66      1.0000 0.44043  0.41267  0.53708  Biso   1.000  O
  C513     1.0000 0.45263  0.36087  0.52287  Biso   1.000  C
  C514     1.0000 0.43003  0.28047  0.53746  Biso   1.000  C
  C515     1.0000 0.40313  0.26637  0.56526  Biso   1.000  C
  H385     1.0000 0.39373  0.30547  0.57467  Biso   1.000  H
  C516     1.0000 0.28863  0.19167  0.67777  Biso   1.000  C
  C517     1.0000 0.27753  0.18767  0.70717  Biso   1.000  C
  H386     1.0000 0.22713  0.18037  0.71587  Biso   1.000  H
  C518     1.0000 0.33173  0.17667  0.72487  Biso   1.000  C
  C519     1.0000 0.39193  0.16217  0.71307  Biso   1.000  C
  C520     1.0000 0.40283  0.16607  0.68347  Biso   1.000  C
  C521     1.0000 0.44473  0.15067  0.73107  Biso   1.000  C
  H387     1.0000 0.43713  0.15007  0.75137  Biso   1.000  H
  C522     1.0000 0.50373  0.13457  0.71957  Biso   1.000  C
  C523     1.0000 0.51113  0.12967  0.69037  Biso   1.000  C
  C524     1.0000 0.46343  0.14967  0.67267  Biso   1.000  C
  H388     1.0000 0.46453  0.13467  0.65317  Biso   1.000  H
  H389     1.0000 0.20523  0.11567  0.71737  Biso   1.000  H
  C525     1.0000 0.45233  0.17667  0.73257  Biso   1.000  C
  H390     1.0000 0.45363  0.18367  0.75287  Biso   1.000  H
  C526     1.0000 0.52433  0.18467  0.72167  Biso   1.000  C
  H391     1.0000 0.57593  0.20647  0.73197  Biso   1.000  H
  C527     1.0000 0.53733  0.17967  0.69307  Biso   1.000  C
  H392     1.0000 0.58753  0.19787  0.68227  Biso   1.000  H
  C528     1.0000 0.47833  0.17467  0.67357  Biso   1.000  C
  H393     1.0000 0.47633  0.16227  0.65347  Biso   1.000  H
  H394     1.0000 0.54913  0.14317  0.73187  Biso   1.000  H
  H395     1.0000 0.56273  0.13877  0.68187  Biso   1.000  H
  H396     1.0000 0.25013  0.19767  0.66557  Biso   1.000  H
  O67      1.0000 0.55680  0.85255  0.83159  Biso   1.000  O
  O68      1.0000 0.63890  0.89290  0.87041  Biso   1.000  O
  C529     1.0000 0.57490  0.88070  0.85620  Biso   1.000  C
  C530     1.0000 0.51710  0.90330  0.87079  Biso   1.000  C
  C531     1.0000 0.52990  0.93020  0.89859  Biso   1.000  C
  H397     1.0000 0.57840  0.93960  0.90800  Biso   1.000  H
  C532     1.0000 0.56970  0.04470  0.01110  Biso   1.000  C
  C533     1.0000 0.57680  0.05580  0.04050  Biso   1.000  C
  H398     1.0000 0.61990  0.10620  0.04920  Biso   1.000  H
  C534     1.0000 0.51160  0.00160  0.05820  Biso   1.000  C
  C535     1.0000 0.43690  0.94140  0.04640  Biso   1.000  C
  C536     1.0000 0.42990  0.93050  0.01680  Biso   1.000  C
  C537     1.0000 0.37260  0.88860  0.06440  Biso   1.000  C
  H399     1.0000 0.37960  0.89620  0.08470  Biso   1.000  H
  C538     1.0000 0.29750  0.82960  0.05290  Biso   1.000  C
  C539     1.0000 0.28520  0.82220  0.02370  Biso   1.000  C
  C540     1.0000 0.35290  0.86990  0.00600  Biso   1.000  C
  H400     1.0000 0.33680  0.86880  0.98650  Biso   1.000  H
  H401     1.0000 0.57710  0.12810  0.05070  Biso   1.000  H
  C541     1.0000 0.39100  0.88100  0.06590  Biso   1.000  C
  H402     1.0000 0.39670  0.87970  0.08620  Biso   1.000  H
  C542     1.0000 0.32700  0.80900  0.05500  Biso   1.000  C
  H403     1.0000 0.29720  0.75740  0.06530  Biso   1.000  H
  C543     1.0000 0.30900  0.79600  0.02640  Biso   1.000  C
  H404     1.0000 0.27700  0.74580  0.01560  Biso   1.000  H
  C544     1.0000 0.36300  0.85500  0.00690  Biso   1.000  C
  H405     1.0000 0.35260  0.85700  0.98680  Biso   1.000  H
  H406     1.0000 0.26070  0.78420  0.06520  Biso   1.000  H
  H407     1.0000 0.24270  0.77060  0.01520  Biso   1.000  H
  H408     1.0000 0.61420  0.08320  0.99890  Biso   1.000  H
  O69      1.0000 0.22347  0.18588  0.16492  Biso   1.000  O
  O70      1.0000 0.30557  0.22623  0.20374  Biso   1.000  O
  C545     1.0000 0.24157  0.21403  0.18953  Biso   1.000  C
  C546     1.0000 0.18377  0.23663  0.20412  Biso   1.000  C
  C547     1.0000 0.19657  0.26353  0.23192  Biso   1.000  C
  H409     1.0000 0.24507  0.27293  0.24133  Biso   1.000  H
  C548     1.0000 0.23637  0.37803  0.34443  Biso   1.000  C
  C549     1.0000 0.24347  0.38913  0.37383  Biso   1.000  C
  H410     1.0000 0.28657  0.43953  0.38253  Biso   1.000  H
  C550     1.0000 0.17827  0.33493  0.39153  Biso   1.000  C
  C551     1.0000 0.10357  0.27473  0.37973  Biso   1.000  C
  C552     1.0000 0.09657  0.26383  0.35013  Biso   1.000  C
  C553     1.0000 0.03927  0.22193  0.39773  Biso   1.000  C
  H411     1.0000 0.04627  0.22953  0.41803  Biso   1.000  H
  C554     1.0000 0.96417  0.16293  0.38623  Biso   1.000  C
  C555     1.0000 0.95187  0.15553  0.35703  Biso   1.000  C
  C556     1.0000 0.01957  0.20323  0.33933  Biso   1.000  C
  H412     1.0000 0.00347  0.20213  0.31983  Biso   1.000  H
  H413     1.0000 0.24377  0.46143  0.38403  Biso   1.000  H
  C557     1.0000 0.05767  0.21433  0.39923  Biso   1.000  C
  H414     1.0000 0.06337  0.21303  0.41953  Biso   1.000  H
  C558     1.0000 0.99367  0.14233  0.38833  Biso   1.000  C
  H415     1.0000 0.96387  0.09073  0.39863  Biso   1.000  H
  C559     1.0000 0.97567  0.12933  0.35973  Biso   1.000  C
  H416     1.0000 0.94367  0.07913  0.34893  Biso   1.000  H
  C560     1.0000 0.02967  0.18833  0.34023  Biso   1.000  C
  H417     1.0000 0.01927  0.19033  0.32013  Biso   1.000  H
  H418     1.0000 0.92737  0.11753  0.39853  Biso   1.000  H
  H419     1.0000 0.90937  0.10393  0.34853  Biso   1.000  H
  H420     1.0000 0.28087  0.41653  0.33223  Biso   1.000  H
  O71      1.0000 0.89013  0.51922  0.49826  Biso   1.000  O
  O72      1.0000 0.97223  0.55957  0.53708  Biso   1.000  O
  C561     1.0000 0.90823  0.54737  0.52287  Biso   1.000  C
  C562     1.0000 0.85043  0.56997  0.53746  Biso   1.000  C
  C563     1.0000 0.86323  0.59687  0.56526  Biso   1.000  C
  H421     1.0000 0.91173  0.60627  0.57467  Biso   1.000  H
  C564     1.0000 0.90303  0.71137  0.67777  Biso   1.000  C
  C565     1.0000 0.91013  0.72247  0.70717  Biso   1.000  C
  H422     1.0000 0.95323  0.77287  0.71587  Biso   1.000  H
  C566     1.0000 0.84493  0.66827  0.72487  Biso   1.000  C
  C567     1.0000 0.77023  0.60807  0.71307  Biso   1.000  C
  C568     1.0000 0.76323  0.59717  0.68347  Biso   1.000  C
  C569     1.0000 0.70593  0.55527  0.73107  Biso   1.000  C
  H423     1.0000 0.71293  0.56287  0.75137  Biso   1.000  H
  C570     1.0000 0.63083  0.49627  0.71957  Biso   1.000  C
  C571     1.0000 0.61853  0.48887  0.69037  Biso   1.000  C
  C572     1.0000 0.68623  0.53657  0.67267  Biso   1.000  C
  H424     1.0000 0.67013  0.53547  0.65317  Biso   1.000  H
  H425     1.0000 0.91043  0.79477  0.71737  Biso   1.000  H
  C573     1.0000 0.72433  0.54767  0.73257  Biso   1.000  C
  H426     1.0000 0.73003  0.54637  0.75287  Biso   1.000  H
  C574     1.0000 0.66033  0.47567  0.72167  Biso   1.000  C
  H427     1.0000 0.63053  0.42407  0.73197  Biso   1.000  H
  C575     1.0000 0.64233  0.46267  0.69307  Biso   1.000  C
  H428     1.0000 0.61033  0.41247  0.68227  Biso   1.000  H
  C576     1.0000 0.69633  0.52167  0.67357  Biso   1.000  C
  H429     1.0000 0.68593  0.52367  0.65347  Biso   1.000  H
  H430     1.0000 0.59403  0.45087  0.73187  Biso   1.000  H
  H431     1.0000 0.57603  0.43727  0.68187  Biso   1.000  H
  H432     1.0000 0.94753  0.74987  0.66557  Biso   1.000  H
  Cu1      1.0000 0.61753  0.80876  0.81046  Biso   1.000  Cu
  Cu2      1.0000 0.28420  0.14210  0.14379  Biso   1.000  Cu
  Cu3      1.0000 0.95086  0.47543  0.47712  Biso   1.000  Cu
  Cu4      1.0000 0.19124  0.80876  0.81046  Biso   1.000  Cu
  Cu5      1.0000 0.85790  0.14210  0.14379  Biso   1.000  Cu
  Cu6      1.0000 0.52457  0.47543  0.47712  Biso   1.000  Cu
  Cu7      1.0000 0.19123  0.38247  0.81046  Biso   1.000  Cu
  Cu8      1.0000 0.85790  0.71580  0.14379  Biso   1.000  Cu
  Cu9      1.0000 0.52457  0.04914  0.47712  Biso   1.000  Cu
  Cu10     1.0000 0.80876  0.61753  0.18954  Biso   1.000  Cu
  Cu11     1.0000 0.47543  0.95086  0.52288  Biso   1.000  Cu
  Cu12     1.0000 0.14210  0.28420  0.85621  Biso   1.000  Cu
  Cu13     1.0000 0.80877  0.19124  0.18954  Biso   1.000  Cu
  Cu14     1.0000 0.47543  0.52457  0.52288  Biso   1.000  Cu
  Cu15     1.0000 0.14210  0.85790  0.85621  Biso   1.000  Cu
  Cu16     1.0000 0.38247  0.19123  0.18954  Biso   1.000  Cu
  Cu17     1.0000 0.04914  0.52457  0.52288  Biso   1.000  Cu
  Cu18     1.0000 0.71580  0.85790  0.85621  Biso   1.000  Cu
  C577     1.0000 0.44440  0.55560  0.85685  Biso   1.000  C
  H433     1.0000 0.43470  0.56530  0.83820  Biso   1.000  H
  C578     1.0000 0.47190  0.52810  0.91283  Biso   1.000  C
  C579     1.0000 0.47970  0.52030  0.94340  Biso   1.000  C
  C580     1.0000 0.48850  0.51150  0.96800  Biso   1.000  C
  C581     1.0000 0.53760  0.46240  0.01140  Biso   1.000  C
  H434     1.0000 0.56610  0.43390  0.00120  Biso   1.000  H
  C582     1.0000 0.54170  0.45830  0.04110  Biso   1.000  C
  C583     1.0000 0.50550  0.49450  0.05760  Biso   1.000  C
  C584     1.0000 0.11107  0.88893  0.19018  Biso   1.000  C
  H435     1.0000 0.10137  0.89863  0.17153  Biso   1.000  H
  C585     1.0000 0.13857  0.86143  0.24616  Biso   1.000  C
  C586     1.0000 0.14637  0.85363  0.27673  Biso   1.000  C
  C587     1.0000 0.15517  0.84483  0.30133  Biso   1.000  C
  C588     1.0000 0.20427  0.79573  0.34473  Biso   1.000  C
  H436     1.0000 0.23277  0.76723  0.33453  Biso   1.000  H
  C589     1.0000 0.20837  0.79163  0.37443  Biso   1.000  C
  C590     1.0000 0.17217  0.82783  0.39093  Biso   1.000  C
  C591     1.0000 0.77773  0.22227  0.52352  Biso   1.000  C
  H437     1.0000 0.76803  0.23197  0.50487  Biso   1.000  H
  C592     1.0000 0.80523  0.19477  0.57950  Biso   1.000  C
  C593     1.0000 0.81303  0.18697  0.61007  Biso   1.000  C
  C594     1.0000 0.82183  0.17817  0.63467  Biso   1.000  C
  C595     1.0000 0.87093  0.12907  0.67807  Biso   1.000  C
  H438     1.0000 0.89943  0.10057  0.66787  Biso   1.000  H
  C596     1.0000 0.87503  0.12497  0.70777  Biso   1.000  C
  C597     1.0000 0.83883  0.16117  0.72427  Biso   1.000  C
  C598     1.0000 0.44440  0.88880  0.85685  Biso   1.000  C
  H439     1.0000 0.43470  0.86940  0.83820  Biso   1.000  H
  C599     1.0000 0.47190  0.94380  0.91283  Biso   1.000  C
  C600     1.0000 0.47970  0.95940  0.94340  Biso   1.000  C
  C601     1.0000 0.48850  0.97700  0.96800  Biso   1.000  C
  C602     1.0000 0.53760  0.07520  0.01140  Biso   1.000  C
  H440     1.0000 0.56610  0.13220  0.00120  Biso   1.000  H
  C603     1.0000 0.54170  0.08340  0.04110  Biso   1.000  C
  C604     1.0000 0.50550  0.01100  0.05760  Biso   1.000  C
  C605     1.0000 0.11107  0.22213  0.19018  Biso   1.000  C
  H441     1.0000 0.10137  0.20273  0.17153  Biso   1.000  H
  C606     1.0000 0.13857  0.27713  0.24616  Biso   1.000  C
  C607     1.0000 0.14637  0.29273  0.27673  Biso   1.000  C
  C608     1.0000 0.15517  0.31033  0.30133  Biso   1.000  C
  C609     1.0000 0.20427  0.40853  0.34473  Biso   1.000  C
  H442     1.0000 0.23277  0.46553  0.33453  Biso   1.000  H
  C610     1.0000 0.20837  0.41673  0.37443  Biso   1.000  C
  C611     1.0000 0.17217  0.34433  0.39093  Biso   1.000  C
  C612     1.0000 0.77773  0.55547  0.52352  Biso   1.000  C
  H443     1.0000 0.76803  0.53607  0.50487  Biso   1.000  H
  C613     1.0000 0.80523  0.61047  0.57950  Biso   1.000  C
  C614     1.0000 0.81303  0.62607  0.61007  Biso   1.000  C
  C615     1.0000 0.82183  0.64367  0.63467  Biso   1.000  C
  C616     1.0000 0.87093  0.74187  0.67807  Biso   1.000  C
  H444     1.0000 0.89943  0.79887  0.66787  Biso   1.000  H
  C617     1.0000 0.87503  0.75007  0.70777  Biso   1.000  C
  C618     1.0000 0.83883  0.67767  0.72427  Biso   1.000  C
  C619     1.0000 0.11120  0.55560  0.85685  Biso   1.000  C
  H445     1.0000 0.13060  0.56530  0.83820  Biso   1.000  H
  C620     1.0000 0.05620  0.52810  0.91283  Biso   1.000  C
  C621     1.0000 0.04060  0.52030  0.94340  Biso   1.000  C
  C622     1.0000 0.02300  0.51150  0.96800  Biso   1.000  C
  C623     1.0000 0.92480  0.46240  0.01140  Biso   1.000  C
  H446     1.0000 0.86780  0.43390  0.00120  Biso   1.000  H
  C624     1.0000 0.91660  0.45830  0.04110  Biso   1.000  C
  C625     1.0000 0.98900  0.49450  0.05760  Biso   1.000  C
  C626     1.0000 0.77787  0.88893  0.19018  Biso   1.000  C
  H447     1.0000 0.79727  0.89863  0.17153  Biso   1.000  H
  C627     1.0000 0.72287  0.86143  0.24616  Biso   1.000  C
  C628     1.0000 0.70727  0.85363  0.27673  Biso   1.000  C
  C629     1.0000 0.68967  0.84483  0.30133  Biso   1.000  C
  C630     1.0000 0.59147  0.79573  0.34473  Biso   1.000  C
  H448     1.0000 0.53447  0.76723  0.33453  Biso   1.000  H
  C631     1.0000 0.58327  0.79163  0.37443  Biso   1.000  C
  C632     1.0000 0.65567  0.82783  0.39093  Biso   1.000  C
  C633     1.0000 0.44453  0.22227  0.52352  Biso   1.000  C
  H449     1.0000 0.46393  0.23197  0.50487  Biso   1.000  H
  C634     1.0000 0.38953  0.19477  0.57950  Biso   1.000  C
  C635     1.0000 0.37393  0.18697  0.61007  Biso   1.000  C
  C636     1.0000 0.35633  0.17817  0.63467  Biso   1.000  C
  C637     1.0000 0.25813  0.12907  0.67807  Biso   1.000  C
  H450     1.0000 0.20113  0.10057  0.66787  Biso   1.000  H
  C638     1.0000 0.24993  0.12497  0.70777  Biso   1.000  C
  C639     1.0000 0.32233  0.16117  0.72427  Biso   1.000  C
  C640     1.0000 0.55560  0.44440  0.14315  Biso   1.000  C
  H451     1.0000 0.56530  0.43470  0.16180  Biso   1.000  H
  C641     1.0000 0.52810  0.47190  0.08717  Biso   1.000  C
  C642     1.0000 0.52030  0.47970  0.05660  Biso   1.000  C
  C643     1.0000 0.51150  0.48850  0.03200  Biso   1.000  C
  C644     1.0000 0.46240  0.53760  0.98860  Biso   1.000  C
  H452     1.0000 0.43390  0.56610  0.99880  Biso   1.000  H
  C645     1.0000 0.45830  0.54170  0.95890  Biso   1.000  C
  C646     1.0000 0.49450  0.50550  0.94240  Biso   1.000  C
  C647     1.0000 0.22227  0.77773  0.47648  Biso   1.000  C
  H453     1.0000 0.23197  0.76803  0.49513  Biso   1.000  H
  C648     1.0000 0.19477  0.80523  0.42050  Biso   1.000  C
  C649     1.0000 0.18697  0.81303  0.38993  Biso   1.000  C
  C650     1.0000 0.17817  0.82183  0.36533  Biso   1.000  C
  C651     1.0000 0.12907  0.87093  0.32193  Biso   1.000  C
  H454     1.0000 0.10057  0.89943  0.33213  Biso   1.000  H
  C652     1.0000 0.12497  0.87503  0.29223  Biso   1.000  C
  C653     1.0000 0.16117  0.83883  0.27573  Biso   1.000  C
  C654     1.0000 0.88893  0.11107  0.80982  Biso   1.000  C
  H455     1.0000 0.89863  0.10137  0.82847  Biso   1.000  H
  C655     1.0000 0.86143  0.13857  0.75384  Biso   1.000  C
  C656     1.0000 0.85363  0.14637  0.72327  Biso   1.000  C
  C657     1.0000 0.84483  0.15517  0.69867  Biso   1.000  C
  C658     1.0000 0.79573  0.20427  0.65527  Biso   1.000  C
  H456     1.0000 0.76723  0.23277  0.66547  Biso   1.000  H
  C659     1.0000 0.79163  0.20837  0.62557  Biso   1.000  C
  C660     1.0000 0.82783  0.17217  0.60907  Biso   1.000  C
  C661     1.0000 0.88880  0.44440  0.14315  Biso   1.000  C
  H457     1.0000 0.86940  0.43470  0.16180  Biso   1.000  H
  C662     1.0000 0.94380  0.47190  0.08717  Biso   1.000  C
  C663     1.0000 0.95940  0.47970  0.05660  Biso   1.000  C
  C664     1.0000 0.97700  0.48850  0.03200  Biso   1.000  C
  C665     1.0000 0.07520  0.53760  0.98860  Biso   1.000  C
  H458     1.0000 0.13220  0.56610  0.99880  Biso   1.000  H
  C666     1.0000 0.08340  0.54170  0.95890  Biso   1.000  C
  C667     1.0000 0.01100  0.50550  0.94240  Biso   1.000  C
  C668     1.0000 0.55547  0.77773  0.47648  Biso   1.000  C
  H459     1.0000 0.53607  0.76803  0.49513  Biso   1.000  H
  C669     1.0000 0.61047  0.80523  0.42050  Biso   1.000  C
  C670     1.0000 0.62607  0.81303  0.38993  Biso   1.000  C
  C671     1.0000 0.64367  0.82183  0.36533  Biso   1.000  C
  C672     1.0000 0.74187  0.87093  0.32193  Biso   1.000  C
  H460     1.0000 0.79887  0.89943  0.33213  Biso   1.000  H
  C673     1.0000 0.75007  0.87503  0.29223  Biso   1.000  C
  C674     1.0000 0.67767  0.83883  0.27573  Biso   1.000  C
  C675     1.0000 0.22213  0.11107  0.80982  Biso   1.000  C
  H461     1.0000 0.20273  0.10137  0.82847  Biso   1.000  H
  C676     1.0000 0.27713  0.13857  0.75384  Biso   1.000  C
  C677     1.0000 0.29273  0.14637  0.72327  Biso   1.000  C
  C678     1.0000 0.31033  0.15517  0.69867  Biso   1.000  C
  C679     1.0000 0.40853  0.20427  0.65527  Biso   1.000  C
  H462     1.0000 0.46553  0.23277  0.66547  Biso   1.000  H
  C680     1.0000 0.41673  0.20837  0.62557  Biso   1.000  C
  C681     1.0000 0.34433  0.17217  0.60907  Biso   1.000  C
  C682     1.0000 0.55560  0.11120  0.14315  Biso   1.000  C
  H463     1.0000 0.56530  0.13060  0.16180  Biso   1.000  H
  C683     1.0000 0.52810  0.05620  0.08717  Biso   1.000  C
  C684     1.0000 0.52030  0.04060  0.05660  Biso   1.000  C
  C685     1.0000 0.51150  0.02300  0.03200  Biso   1.000  C
  C686     1.0000 0.46240  0.92480  0.98860  Biso   1.000  C
  H464     1.0000 0.43390  0.86780  0.99880  Biso   1.000  H
  C687     1.0000 0.45830  0.91660  0.95890  Biso   1.000  C
  C688     1.0000 0.49450  0.98900  0.94240  Biso   1.000  C
  C689     1.0000 0.22227  0.44453  0.47648  Biso   1.000  C
  H465     1.0000 0.23197  0.46393  0.49513  Biso   1.000  H
  C690     1.0000 0.19477  0.38953  0.42050  Biso   1.000  C
  C691     1.0000 0.18697  0.37393  0.38993  Biso   1.000  C
  C692     1.0000 0.17817  0.35633  0.36533  Biso   1.000  C
  C693     1.0000 0.12907  0.25813  0.32193  Biso   1.000  C
  H466     1.0000 0.10057  0.20113  0.33213  Biso   1.000  H
  C694     1.0000 0.12497  0.24993  0.29223  Biso   1.000  C
  C695     1.0000 0.16117  0.32233  0.27573  Biso   1.000  C
  C696     1.0000 0.88893  0.77787  0.80982  Biso   1.000  C
  H467     1.0000 0.89863  0.79727  0.82847  Biso   1.000  H
  C697     1.0000 0.86143  0.72287  0.75384  Biso   1.000  C
  C698     1.0000 0.85363  0.70727  0.72327  Biso   1.000  C
  C699     1.0000 0.84483  0.68967  0.69867  Biso   1.000  C
  C700     1.0000 0.79573  0.59147  0.65527  Biso   1.000  C
  H468     1.0000 0.76723  0.53447  0.66547  Biso   1.000  H
  C701     1.0000 0.79163  0.58327  0.62557  Biso   1.000  C
  C702     1.0000 0.82783  0.65567  0.60907  Biso   1.000  C
  C703     1.0000 0.48860  0.48860  0.00000  Biso   1.000  C
  C704     1.0000 0.15527  0.82193  0.33333  Biso   1.000  C
  C705     1.0000 0.82193  0.15527  0.66667  Biso   1.000  C
  C706     1.0000 0.51140  0.00000  0.00000  Biso   1.000  C
  C707     1.0000 0.17807  0.33333  0.33333  Biso   1.000  C
  C708     1.0000 0.84473  0.66667  0.66667  Biso   1.000  C
  C709     1.0000 0.00000  0.51140  0.00000  Biso   1.000  C
  C710     1.0000 0.66667  0.84473  0.33333  Biso   1.000  C
  C711     1.0000 0.33333  0.17807  0.66667  Biso   1.000  C
  C712     1.0000 0.51140  0.51140  0.00000  Biso   1.000  C
  C713     1.0000 0.17807  0.84473  0.33333  Biso   1.000  C
  C714     1.0000 0.84473  0.17807  0.66667  Biso   1.000  C
  C715     1.0000 0.48860  0.00000  0.00000  Biso   1.000  C
  C716     1.0000 0.15527  0.33333  0.33333  Biso   1.000  C
  C717     1.0000 0.82193  0.66667  0.66667  Biso   1.000  C
  C718     1.0000 0.00000  0.48860  0.00000  Biso   1.000  C
  C719     1.0000 0.66667  0.82193  0.33333  Biso   1.000  C
  C720     1.0000 0.33333  0.15527  0.66667  Biso   1.000  C
