data_image0
_cell_length_a       18.816
_cell_length_b       18.816
_cell_length_c       38.416
_cell_angle_alpha    90
_cell_angle_beta     90
_cell_angle_gamma    120

_symmetry_space_group_name_H-M    "P 1"
_symmetry_int_tables_number       1

loop_
  _symmetry_equiv_pos_as_xyz
  'x, y, z'

loop_
  _atom_site_label
  _atom_site_occupancy
  _atom_site_fract_x
  _atom_site_fract_y
  _atom_site_fract_z
  _atom_site_thermal_displace_type
  _atom_site_B_iso_or_equiv
  _atom_site_type_symbol
  O1       1.0000 0.55448  0.70325  0.32945  Biso   1.000  O
  C1       1.0000 0.57180  0.69350  0.35993  Biso   1.000  C
  O2       1.0000 0.63310  0.74190  0.37685  Biso   1.000  O
  C2       1.0000 0.50910  0.62240  0.37760  Biso   1.000  C
  C3       1.0000 0.52620  0.60850  0.41160  Biso   1.000  C
  H1       1.0000 0.57570  0.64420  0.42240  Biso   1.000  H
  C4       1.0000 0.45280  0.44050  0.48010  Biso   1.000  C
  C5       1.0000 0.42690  0.46110  0.48450  Biso   1.000  C
  C6       1.0000 0.37490  0.36050  0.47670  Biso   1.000  C
  O3       1.0000 0.31780  0.31240  0.45780  Biso   1.000  O
  C7       1.0000 0.38410  0.34610  0.51410  Biso   1.000  C
  O4       1.0000 0.28940  0.34280  0.46640  Biso   1.000  O
  C8       1.0000 0.53460  0.58880  0.40900  Biso   1.000  C
  H2       1.0000 0.58210  0.62610  0.42060  Biso   1.000  H
  C9       1.0000 0.52100  0.60840  0.37610  Biso   1.000  C
  O5       1.0000 0.22115  0.03658  0.66278  Biso   1.000  O
  C10      1.0000 0.23847  0.02683  0.69326  Biso   1.000  C
  O6       1.0000 0.29977  0.07523  0.71018  Biso   1.000  O
  C11      1.0000 0.17577  0.95573  0.71093  Biso   1.000  C
  C12      1.0000 0.19287  0.94183  0.74493  Biso   1.000  C
  H3       1.0000 0.24237  0.97753  0.75573  Biso   1.000  H
  C13      1.0000 0.11947  0.77383  0.81343  Biso   1.000  C
  C14      1.0000 0.09357  0.79443  0.81783  Biso   1.000  C
  C15      1.0000 0.04157  0.69383  0.81003  Biso   1.000  C
  O7       1.0000 0.98447  0.64573  0.79113  Biso   1.000  O
  C16      1.0000 0.05077  0.67943  0.84743  Biso   1.000  C
  O8       1.0000 0.95607  0.67613  0.79973  Biso   1.000  O
  C17      1.0000 0.20127  0.92213  0.74233  Biso   1.000  C
  H4       1.0000 0.24877  0.95943  0.75393  Biso   1.000  H
  C18      1.0000 0.18767  0.94173  0.70943  Biso   1.000  C
  O9       1.0000 0.88781  0.36992  0.99612  Biso   1.000  O
  C19      1.0000 0.90513  0.36017  0.02660  Biso   1.000  C
  O10      1.0000 0.96643  0.40857  0.04352  Biso   1.000  O
  C20      1.0000 0.84243  0.28907  0.04427  Biso   1.000  C
  C21      1.0000 0.85953  0.27517  0.07827  Biso   1.000  C
  H5       1.0000 0.90903  0.31087  0.08907  Biso   1.000  H
  C22      1.0000 0.78613  0.10717  0.14677  Biso   1.000  C
  C23      1.0000 0.76023  0.12777  0.15117  Biso   1.000  C
  C24      1.0000 0.70823  0.02717  0.14337  Biso   1.000  C
  O11      1.0000 0.65113  0.97907  0.12447  Biso   1.000  O
  C25      1.0000 0.71743  0.01277  0.18077  Biso   1.000  C
  O12      1.0000 0.62273  0.00947  0.13307  Biso   1.000  O
  C26      1.0000 0.86793  0.25547  0.07567  Biso   1.000  C
  H6       1.0000 0.91543  0.29277  0.08727  Biso   1.000  H
  C27      1.0000 0.85433  0.27507  0.04277  Biso   1.000  C
  O13      1.0000 0.29675  0.85123  0.32945  Biso   1.000  O
  C28      1.0000 0.30650  0.87830  0.35993  Biso   1.000  C
  O14      1.0000 0.25810  0.89120  0.37685  Biso   1.000  O
  C29      1.0000 0.37760  0.88670  0.37760  Biso   1.000  C
  C30      1.0000 0.39150  0.91770  0.41160  Biso   1.000  C
  H7       1.0000 0.35580  0.93150  0.42240  Biso   1.000  H
  C31      1.0000 0.55950  0.01230  0.48010  Biso   1.000  C
  C32      1.0000 0.53890  0.96580  0.48450  Biso   1.000  C
  C33      1.0000 0.63950  0.01440  0.47670  Biso   1.000  C
  O15      1.0000 0.68760  0.00540  0.45780  Biso   1.000  O
  C34      1.0000 0.65390  0.03800  0.51410  Biso   1.000  C
  O16      1.0000 0.65720  0.94660  0.46640  Biso   1.000  O
  C35      1.0000 0.41120  0.94580  0.40900  Biso   1.000  C
  H8       1.0000 0.37390  0.95600  0.42060  Biso   1.000  H
  C36      1.0000 0.39160  0.91260  0.37610  Biso   1.000  C
  O17      1.0000 0.96342  0.18456  0.66278  Biso   1.000  O
  C37      1.0000 0.97317  0.21163  0.69326  Biso   1.000  C
  O18      1.0000 0.92477  0.22453  0.71018  Biso   1.000  O
  C38      1.0000 0.04427  0.22003  0.71093  Biso   1.000  C
  C39      1.0000 0.05817  0.25103  0.74493  Biso   1.000  C
  H9       1.0000 0.02247  0.26483  0.75573  Biso   1.000  H
  C40      1.0000 0.22617  0.34563  0.81343  Biso   1.000  C
  C41      1.0000 0.20557  0.29913  0.81783  Biso   1.000  C
  C42      1.0000 0.30617  0.34773  0.81003  Biso   1.000  C
  O19      1.0000 0.35427  0.33873  0.79113  Biso   1.000  O
  C43      1.0000 0.32057  0.37133  0.84743  Biso   1.000  C
  O20      1.0000 0.32387  0.27993  0.79973  Biso   1.000  O
  C44      1.0000 0.07787  0.27913  0.74233  Biso   1.000  C
  H10      1.0000 0.04057  0.28933  0.75393  Biso   1.000  H
  C45      1.0000 0.05827  0.24593  0.70943  Biso   1.000  C
  O21      1.0000 0.63008  0.51790  0.99612  Biso   1.000  O
  C46      1.0000 0.63983  0.54497  0.02660  Biso   1.000  C
  O22      1.0000 0.59143  0.55787  0.04352  Biso   1.000  O
  C47      1.0000 0.71093  0.55337  0.04427  Biso   1.000  C
  C48      1.0000 0.72483  0.58437  0.07827  Biso   1.000  C
  H11      1.0000 0.68913  0.59817  0.08907  Biso   1.000  H
  C49      1.0000 0.89283  0.67897  0.14677  Biso   1.000  C
  C50      1.0000 0.87223  0.63247  0.15117  Biso   1.000  C
  C51      1.0000 0.97283  0.68107  0.14337  Biso   1.000  C
  O23      1.0000 0.02093  0.67207  0.12447  Biso   1.000  O
  C52      1.0000 0.98723  0.70467  0.18077  Biso   1.000  C
  O24      1.0000 0.99053  0.61327  0.13307  Biso   1.000  O
  C53      1.0000 0.74453  0.61247  0.07567  Biso   1.000  C
  H12      1.0000 0.70723  0.62267  0.08727  Biso   1.000  H
  C54      1.0000 0.72493  0.57927  0.04277  Biso   1.000  C
  O25      1.0000 0.14877  0.44552  0.32945  Biso   1.000  O
  C55      1.0000 0.12170  0.42820  0.35993  Biso   1.000  C
  O26      1.0000 0.10880  0.36690  0.37685  Biso   1.000  O
  C56      1.0000 0.11330  0.49090  0.37760  Biso   1.000  C
  C57      1.0000 0.08230  0.47380  0.41160  Biso   1.000  C
  H13      1.0000 0.06850  0.42430  0.42240  Biso   1.000  H
  C58      1.0000 0.98770  0.54720  0.48010  Biso   1.000  C
  C59      1.0000 0.03420  0.57310  0.48450  Biso   1.000  C
  C60      1.0000 0.98560  0.62510  0.47670  Biso   1.000  C
  O27      1.0000 0.99460  0.68220  0.45780  Biso   1.000  O
  C61      1.0000 0.96200  0.61590  0.51410  Biso   1.000  C
  O28      1.0000 0.05340  0.71060  0.46640  Biso   1.000  O
  C62      1.0000 0.05420  0.46540  0.40900  Biso   1.000  C
  H14      1.0000 0.04400  0.41790  0.42060  Biso   1.000  H
  C63      1.0000 0.08740  0.47900  0.37610  Biso   1.000  C
  O29      1.0000 0.81544  0.77885  0.66278  Biso   1.000  O
  C64      1.0000 0.78837  0.76153  0.69326  Biso   1.000  C
  O30      1.0000 0.77547  0.70023  0.71018  Biso   1.000  O
  C65      1.0000 0.77997  0.82423  0.71093  Biso   1.000  C
  C66      1.0000 0.74897  0.80713  0.74493  Biso   1.000  C
  H15      1.0000 0.73517  0.75763  0.75573  Biso   1.000  H
  C67      1.0000 0.65437  0.88053  0.81343  Biso   1.000  C
  C68      1.0000 0.70087  0.90643  0.81783  Biso   1.000  C
  C69      1.0000 0.65227  0.95843  0.81003  Biso   1.000  C
  O31      1.0000 0.66127  0.01553  0.79113  Biso   1.000  O
  C70      1.0000 0.62867  0.94923  0.84743  Biso   1.000  C
  O32      1.0000 0.72007  0.04393  0.79973  Biso   1.000  O
  C71      1.0000 0.72087  0.79873  0.74233  Biso   1.000  C
  H16      1.0000 0.71067  0.75123  0.75393  Biso   1.000  H
  C72      1.0000 0.75407  0.81233  0.70943  Biso   1.000  C
  O33      1.0000 0.48210  0.11219  0.99612  Biso   1.000  O
  C73      1.0000 0.45503  0.09487  0.02660  Biso   1.000  C
  O34      1.0000 0.44213  0.03357  0.04352  Biso   1.000  O
  C74      1.0000 0.44663  0.15757  0.04427  Biso   1.000  C
  C75      1.0000 0.41563  0.14047  0.07827  Biso   1.000  C
  H17      1.0000 0.40183  0.09097  0.08907  Biso   1.000  H
  C76      1.0000 0.32103  0.21387  0.14677  Biso   1.000  C
  C77      1.0000 0.36753  0.23977  0.15117  Biso   1.000  C
  C78      1.0000 0.31893  0.29177  0.14337  Biso   1.000  C
  O35      1.0000 0.32793  0.34887  0.12447  Biso   1.000  O
  C79      1.0000 0.29533  0.28257  0.18077  Biso   1.000  C
  O36      1.0000 0.38673  0.37727  0.13307  Biso   1.000  O
  C80      1.0000 0.38753  0.13207  0.07567  Biso   1.000  C
  H18      1.0000 0.37733  0.08457  0.08727  Biso   1.000  H
  C81      1.0000 0.42073  0.14567  0.04277  Biso   1.000  C
  O37      1.0000 0.70325  0.55448  0.67055  Biso   1.000  O
  C82      1.0000 0.69350  0.57180  0.64007  Biso   1.000  C
  O38      1.0000 0.74190  0.63310  0.62315  Biso   1.000  O
  C83      1.0000 0.62240  0.50910  0.62240  Biso   1.000  C
  C84      1.0000 0.60850  0.52620  0.58840  Biso   1.000  C
  H19      1.0000 0.64420  0.57570  0.57760  Biso   1.000  H
  C85      1.0000 0.44050  0.45280  0.51990  Biso   1.000  C
  C86      1.0000 0.46110  0.42690  0.51550  Biso   1.000  C
  C87      1.0000 0.36050  0.37490  0.52330  Biso   1.000  C
  O39      1.0000 0.31240  0.31780  0.54220  Biso   1.000  O
  C88      1.0000 0.34610  0.38410  0.48590  Biso   1.000  C
  O40      1.0000 0.34280  0.28940  0.53360  Biso   1.000  O
  C89      1.0000 0.58880  0.53460  0.59100  Biso   1.000  C
  H20      1.0000 0.62610  0.58210  0.57940  Biso   1.000  H
  C90      1.0000 0.60840  0.52100  0.62390  Biso   1.000  C
  O41      1.0000 0.36992  0.88781  0.00388  Biso   1.000  O
  C91      1.0000 0.36017  0.90513  0.97340  Biso   1.000  C
  O42      1.0000 0.40857  0.96643  0.95648  Biso   1.000  O
  C92      1.0000 0.28907  0.84243  0.95573  Biso   1.000  C
  C93      1.0000 0.27517  0.85953  0.92173  Biso   1.000  C
  H21      1.0000 0.31087  0.90903  0.91093  Biso   1.000  H
  C94      1.0000 0.10717  0.78613  0.85323  Biso   1.000  C
  C95      1.0000 0.12777  0.76023  0.84883  Biso   1.000  C
  C96      1.0000 0.02717  0.70823  0.85663  Biso   1.000  C
  O43      1.0000 0.97907  0.65113  0.87553  Biso   1.000  O
  C97      1.0000 0.01277  0.71743  0.81923  Biso   1.000  C
  O44      1.0000 0.00947  0.62273  0.86693  Biso   1.000  O
  C98      1.0000 0.25547  0.86793  0.92433  Biso   1.000  C
  H22      1.0000 0.29277  0.91543  0.91273  Biso   1.000  H
  C99      1.0000 0.27507  0.85433  0.95723  Biso   1.000  C
  O45      1.0000 0.03658  0.22115  0.33722  Biso   1.000  O
  C100     1.0000 0.02683  0.23847  0.30674  Biso   1.000  C
  O46      1.0000 0.07523  0.29977  0.28982  Biso   1.000  O
  C101     1.0000 0.95573  0.17577  0.28907  Biso   1.000  C
  C102     1.0000 0.94183  0.19287  0.25507  Biso   1.000  C
  H23      1.0000 0.97753  0.24237  0.24427  Biso   1.000  H
  C103     1.0000 0.77383  0.11947  0.18657  Biso   1.000  C
  C104     1.0000 0.79443  0.09357  0.18217  Biso   1.000  C
  C105     1.0000 0.69383  0.04157  0.18997  Biso   1.000  C
  O47      1.0000 0.64573  0.98447  0.20887  Biso   1.000  O
  C106     1.0000 0.67943  0.05077  0.15257  Biso   1.000  C
  O48      1.0000 0.67613  0.95607  0.20027  Biso   1.000  O
  C107     1.0000 0.92213  0.20127  0.25767  Biso   1.000  C
  H24      1.0000 0.95943  0.24877  0.24607  Biso   1.000  H
  C108     1.0000 0.94173  0.18767  0.29057  Biso   1.000  C
  O49      1.0000 0.85123  0.29675  0.67055  Biso   1.000  O
  C109     1.0000 0.87830  0.30650  0.64007  Biso   1.000  C
  O50      1.0000 0.89120  0.25810  0.62315  Biso   1.000  O
  C110     1.0000 0.88670  0.37760  0.62240  Biso   1.000  C
  C111     1.0000 0.91770  0.39150  0.58840  Biso   1.000  C
  H25      1.0000 0.93150  0.35580  0.57760  Biso   1.000  H
  C112     1.0000 0.01230  0.55950  0.51990  Biso   1.000  C
  C113     1.0000 0.96580  0.53890  0.51550  Biso   1.000  C
  C114     1.0000 0.01440  0.63950  0.52330  Biso   1.000  C
  O51      1.0000 0.00540  0.68760  0.54220  Biso   1.000  O
  C115     1.0000 0.03800  0.65390  0.48590  Biso   1.000  C
  O52      1.0000 0.94660  0.65720  0.53360  Biso   1.000  O
  C116     1.0000 0.94580  0.41120  0.59100  Biso   1.000  C
  H26      1.0000 0.95600  0.37390  0.57940  Biso   1.000  H
  C117     1.0000 0.91260  0.39160  0.62390  Biso   1.000  C
  O53      1.0000 0.51790  0.63008  0.00388  Biso   1.000  O
  C118     1.0000 0.54497  0.63983  0.97340  Biso   1.000  C
  O54      1.0000 0.55787  0.59143  0.95648  Biso   1.000  O
  C119     1.0000 0.55337  0.71093  0.95573  Biso   1.000  C
  C120     1.0000 0.58437  0.72483  0.92173  Biso   1.000  C
  H27      1.0000 0.59817  0.68913  0.91093  Biso   1.000  H
  C121     1.0000 0.67897  0.89283  0.85323  Biso   1.000  C
  C122     1.0000 0.63247  0.87223  0.84883  Biso   1.000  C
  C123     1.0000 0.68107  0.97283  0.85663  Biso   1.000  C
  O55      1.0000 0.67207  0.02093  0.87553  Biso   1.000  O
  C124     1.0000 0.70467  0.98723  0.81923  Biso   1.000  C
  O56      1.0000 0.61327  0.99053  0.86693  Biso   1.000  O
  C125     1.0000 0.61247  0.74453  0.92433  Biso   1.000  C
  H28      1.0000 0.62267  0.70723  0.91273  Biso   1.000  H
  C126     1.0000 0.57927  0.72493  0.95723  Biso   1.000  C
  O57      1.0000 0.18456  0.96342  0.33722  Biso   1.000  O
  C127     1.0000 0.21163  0.97317  0.30674  Biso   1.000  C
  O58      1.0000 0.22453  0.92477  0.28982  Biso   1.000  O
  C128     1.0000 0.22003  0.04427  0.28907  Biso   1.000  C
  C129     1.0000 0.25103  0.05817  0.25507  Biso   1.000  C
  H29      1.0000 0.26483  0.02247  0.24427  Biso   1.000  H
  C130     1.0000 0.34563  0.22617  0.18657  Biso   1.000  C
  C131     1.0000 0.29913  0.20557  0.18217  Biso   1.000  C
  C132     1.0000 0.34773  0.30617  0.18997  Biso   1.000  C
  O59      1.0000 0.33873  0.35427  0.20887  Biso   1.000  O
  C133     1.0000 0.37133  0.32057  0.15257  Biso   1.000  C
  O60      1.0000 0.27993  0.32387  0.20027  Biso   1.000  O
  C134     1.0000 0.27913  0.07787  0.25767  Biso   1.000  C
  H30      1.0000 0.28933  0.04057  0.24607  Biso   1.000  H
  C135     1.0000 0.24593  0.05827  0.29057  Biso   1.000  C
  O61      1.0000 0.44552  0.14877  0.67055  Biso   1.000  O
  C136     1.0000 0.42820  0.12170  0.64007  Biso   1.000  C
  O62      1.0000 0.36690  0.10880  0.62315  Biso   1.000  O
  C137     1.0000 0.49090  0.11330  0.62240  Biso   1.000  C
  C138     1.0000 0.47380  0.08230  0.58840  Biso   1.000  C
  H31      1.0000 0.42430  0.06850  0.57760  Biso   1.000  H
  C139     1.0000 0.54720  0.98770  0.51990  Biso   1.000  C
  C140     1.0000 0.57310  0.03420  0.51550  Biso   1.000  C
  C141     1.0000 0.62510  0.98560  0.52330  Biso   1.000  C
  O63      1.0000 0.68220  0.99460  0.54220  Biso   1.000  O
  C142     1.0000 0.61590  0.96200  0.48590  Biso   1.000  C
  O64      1.0000 0.71060  0.05340  0.53360  Biso   1.000  O
  C143     1.0000 0.46540  0.05420  0.59100  Biso   1.000  C
  H32      1.0000 0.41790  0.04400  0.57940  Biso   1.000  H
  C144     1.0000 0.47900  0.08740  0.62390  Biso   1.000  C
  O65      1.0000 0.11219  0.48210  0.00388  Biso   1.000  O
  C145     1.0000 0.09487  0.45503  0.97340  Biso   1.000  C
  O66      1.0000 0.03357  0.44213  0.95648  Biso   1.000  O
  C146     1.0000 0.15757  0.44663  0.95573  Biso   1.000  C
  C147     1.0000 0.14047  0.41563  0.92173  Biso   1.000  C
  H33      1.0000 0.09097  0.40183  0.91093  Biso   1.000  H
  C148     1.0000 0.21387  0.32103  0.85323  Biso   1.000  C
  C149     1.0000 0.23977  0.36753  0.84883  Biso   1.000  C
  C150     1.0000 0.29177  0.31893  0.85663  Biso   1.000  C
  O67      1.0000 0.34887  0.32793  0.87553  Biso   1.000  O
  C151     1.0000 0.28257  0.29533  0.81923  Biso   1.000  C
  O68      1.0000 0.37727  0.38673  0.86693  Biso   1.000  O
  C152     1.0000 0.13207  0.38753  0.92433  Biso   1.000  C
  H34      1.0000 0.08457  0.37733  0.91273  Biso   1.000  H
  C153     1.0000 0.14567  0.42073  0.95723  Biso   1.000  C
  O69      1.0000 0.77885  0.81544  0.33722  Biso   1.000  O
  C154     1.0000 0.76153  0.78837  0.30674  Biso   1.000  C
  O70      1.0000 0.70023  0.77547  0.28982  Biso   1.000  O
  C155     1.0000 0.82423  0.77997  0.28907  Biso   1.000  C
  C156     1.0000 0.80713  0.74897  0.25507  Biso   1.000  C
  H35      1.0000 0.75763  0.73517  0.24427  Biso   1.000  H
  C157     1.0000 0.88053  0.65437  0.18657  Biso   1.000  C
  C158     1.0000 0.90643  0.70087  0.18217  Biso   1.000  C
  C159     1.0000 0.95843  0.65227  0.18997  Biso   1.000  C
  O71      1.0000 0.01553  0.66127  0.20887  Biso   1.000  O
  C160     1.0000 0.94923  0.62867  0.15257  Biso   1.000  C
  O72      1.0000 0.04393  0.72007  0.20027  Biso   1.000  O
  C161     1.0000 0.79873  0.72087  0.25767  Biso   1.000  C
  H36      1.0000 0.75123  0.71067  0.24607  Biso   1.000  H
  C162     1.0000 0.81233  0.75407  0.29057  Biso   1.000  C
  O73      1.0000 0.44552  0.29675  0.67055  Biso   1.000  O
  C163     1.0000 0.42820  0.30650  0.64007  Biso   1.000  C
  O74      1.0000 0.36690  0.25810  0.62315  Biso   1.000  O
  C164     1.0000 0.49090  0.37760  0.62240  Biso   1.000  C
  C165     1.0000 0.47380  0.39150  0.58840  Biso   1.000  C
  H37      1.0000 0.42430  0.35580  0.57760  Biso   1.000  H
  C166     1.0000 0.54720  0.55950  0.51990  Biso   1.000  C
  C167     1.0000 0.57310  0.53890  0.51550  Biso   1.000  C
  C168     1.0000 0.62510  0.63950  0.52330  Biso   1.000  C
  O75      1.0000 0.68220  0.68760  0.54220  Biso   1.000  O
  C169     1.0000 0.61590  0.65390  0.48590  Biso   1.000  C
  O76      1.0000 0.71060  0.65720  0.53360  Biso   1.000  O
  C170     1.0000 0.46540  0.41120  0.59100  Biso   1.000  C
  H38      1.0000 0.41790  0.37390  0.57940  Biso   1.000  H
  C171     1.0000 0.47900  0.39160  0.62390  Biso   1.000  C
  O77      1.0000 0.11219  0.63008  0.00388  Biso   1.000  O
  C172     1.0000 0.09487  0.63983  0.97340  Biso   1.000  C
  O78      1.0000 0.03357  0.59143  0.95648  Biso   1.000  O
  C173     1.0000 0.15757  0.71093  0.95573  Biso   1.000  C
  C174     1.0000 0.14047  0.72483  0.92173  Biso   1.000  C
  H39      1.0000 0.09097  0.68913  0.91093  Biso   1.000  H
  C175     1.0000 0.21387  0.89283  0.85323  Biso   1.000  C
  C176     1.0000 0.23977  0.87223  0.84883  Biso   1.000  C
  C177     1.0000 0.29177  0.97283  0.85663  Biso   1.000  C
  O79      1.0000 0.34887  0.02093  0.87553  Biso   1.000  O
  C178     1.0000 0.28257  0.98723  0.81923  Biso   1.000  C
  O80      1.0000 0.37727  0.99053  0.86693  Biso   1.000  O
  C179     1.0000 0.13207  0.74453  0.92433  Biso   1.000  C
  H40      1.0000 0.08457  0.70723  0.91273  Biso   1.000  H
  C180     1.0000 0.14567  0.72493  0.95723  Biso   1.000  C
  O81      1.0000 0.77885  0.96342  0.33722  Biso   1.000  O
  C181     1.0000 0.76153  0.97317  0.30674  Biso   1.000  C
  O82      1.0000 0.70023  0.92477  0.28982  Biso   1.000  O
  C182     1.0000 0.82423  0.04427  0.28907  Biso   1.000  C
  C183     1.0000 0.80713  0.05817  0.25507  Biso   1.000  C
  H41      1.0000 0.75763  0.02247  0.24427  Biso   1.000  H
  C184     1.0000 0.88053  0.22617  0.18657  Biso   1.000  C
  C185     1.0000 0.90643  0.20557  0.18217  Biso   1.000  C
  C186     1.0000 0.95843  0.30617  0.18997  Biso   1.000  C
  O83      1.0000 0.01553  0.35427  0.20887  Biso   1.000  O
  C187     1.0000 0.94923  0.32057  0.15257  Biso   1.000  C
  O84      1.0000 0.04393  0.32387  0.20027  Biso   1.000  O
  C188     1.0000 0.79873  0.07787  0.25767  Biso   1.000  C
  H42      1.0000 0.75123  0.04057  0.24607  Biso   1.000  H
  C189     1.0000 0.81233  0.05827  0.29057  Biso   1.000  C
  O85      1.0000 0.70325  0.14877  0.67055  Biso   1.000  O
  C190     1.0000 0.69350  0.12170  0.64007  Biso   1.000  C
  O86      1.0000 0.74190  0.10880  0.62315  Biso   1.000  O
  C191     1.0000 0.62240  0.11330  0.62240  Biso   1.000  C
  C192     1.0000 0.60850  0.08230  0.58840  Biso   1.000  C
  H43      1.0000 0.64420  0.06850  0.57760  Biso   1.000  H
  C193     1.0000 0.44050  0.98770  0.51990  Biso   1.000  C
  C194     1.0000 0.46110  0.03420  0.51550  Biso   1.000  C
  C195     1.0000 0.36050  0.98560  0.52330  Biso   1.000  C
  O87      1.0000 0.31240  0.99460  0.54220  Biso   1.000  O
  C196     1.0000 0.34610  0.96200  0.48590  Biso   1.000  C
  O88      1.0000 0.34280  0.05340  0.53360  Biso   1.000  O
  C197     1.0000 0.58880  0.05420  0.59100  Biso   1.000  C
  H44      1.0000 0.62610  0.04400  0.57940  Biso   1.000  H
  C198     1.0000 0.60840  0.08740  0.62390  Biso   1.000  C
  O89      1.0000 0.36992  0.48210  0.00388  Biso   1.000  O
  C199     1.0000 0.36017  0.45503  0.97340  Biso   1.000  C
  O90      1.0000 0.40857  0.44213  0.95648  Biso   1.000  O
  C200     1.0000 0.28907  0.44663  0.95573  Biso   1.000  C
  C201     1.0000 0.27517  0.41563  0.92173  Biso   1.000  C
  H45      1.0000 0.31087  0.40183  0.91093  Biso   1.000  H
  C202     1.0000 0.10717  0.32103  0.85323  Biso   1.000  C
  C203     1.0000 0.12777  0.36753  0.84883  Biso   1.000  C
  C204     1.0000 0.02717  0.31893  0.85663  Biso   1.000  C
  O91      1.0000 0.97907  0.32793  0.87553  Biso   1.000  O
  C205     1.0000 0.01277  0.29533  0.81923  Biso   1.000  C
  O92      1.0000 0.00947  0.38673  0.86693  Biso   1.000  O
  C206     1.0000 0.25547  0.38753  0.92433  Biso   1.000  C
  H46      1.0000 0.29277  0.37733  0.91273  Biso   1.000  H
  C207     1.0000 0.27507  0.42073  0.95723  Biso   1.000  C
  O93      1.0000 0.03658  0.81544  0.33722  Biso   1.000  O
  C208     1.0000 0.02683  0.78837  0.30674  Biso   1.000  C
  O94      1.0000 0.07523  0.77547  0.28982  Biso   1.000  O
  C209     1.0000 0.95573  0.77997  0.28907  Biso   1.000  C
  C210     1.0000 0.94183  0.74897  0.25507  Biso   1.000  C
  H47      1.0000 0.97753  0.73517  0.24427  Biso   1.000  H
  C211     1.0000 0.77383  0.65437  0.18657  Biso   1.000  C
  C212     1.0000 0.79443  0.70087  0.18217  Biso   1.000  C
  C213     1.0000 0.69383  0.65227  0.18997  Biso   1.000  C
  O95      1.0000 0.64573  0.66127  0.20887  Biso   1.000  O
  C214     1.0000 0.67943  0.62867  0.15257  Biso   1.000  C
  O96      1.0000 0.67613  0.72007  0.20027  Biso   1.000  O
  C215     1.0000 0.92213  0.72087  0.25767  Biso   1.000  C
  H48      1.0000 0.95943  0.71067  0.24607  Biso   1.000  H
  C216     1.0000 0.94173  0.75407  0.29057  Biso   1.000  C
  O97      1.0000 0.85123  0.55448  0.67055  Biso   1.000  O
  C217     1.0000 0.87830  0.57180  0.64007  Biso   1.000  C
  O98      1.0000 0.89120  0.63310  0.62315  Biso   1.000  O
  C218     1.0000 0.88670  0.50910  0.62240  Biso   1.000  C
  C219     1.0000 0.91770  0.52620  0.58840  Biso   1.000  C
  H49      1.0000 0.93150  0.57570  0.57760  Biso   1.000  H
  C220     1.0000 0.01230  0.45280  0.51990  Biso   1.000  C
  C221     1.0000 0.96580  0.42690  0.51550  Biso   1.000  C
  C222     1.0000 0.01440  0.37490  0.52330  Biso   1.000  C
  O99      1.0000 0.00540  0.31780  0.54220  Biso   1.000  O
  C223     1.0000 0.03800  0.38410  0.48590  Biso   1.000  C
  O100     1.0000 0.94660  0.28940  0.53360  Biso   1.000  O
  C224     1.0000 0.94580  0.53460  0.59100  Biso   1.000  C
  H50      1.0000 0.95600  0.58210  0.57940  Biso   1.000  H
  C225     1.0000 0.91260  0.52100  0.62390  Biso   1.000  C
  O101     1.0000 0.51790  0.88781  0.00388  Biso   1.000  O
  C226     1.0000 0.54497  0.90513  0.97340  Biso   1.000  C
  O102     1.0000 0.55787  0.96643  0.95648  Biso   1.000  O
  C227     1.0000 0.55337  0.84243  0.95573  Biso   1.000  C
  C228     1.0000 0.58437  0.85953  0.92173  Biso   1.000  C
  H51      1.0000 0.59817  0.90903  0.91093  Biso   1.000  H
  C229     1.0000 0.67897  0.78613  0.85323  Biso   1.000  C
  C230     1.0000 0.63247  0.76023  0.84883  Biso   1.000  C
  C231     1.0000 0.68107  0.70823  0.85663  Biso   1.000  C
  O103     1.0000 0.67207  0.65113  0.87553  Biso   1.000  O
  C232     1.0000 0.70467  0.71743  0.81923  Biso   1.000  C
  O104     1.0000 0.61327  0.62273  0.86693  Biso   1.000  O
  C233     1.0000 0.61247  0.86793  0.92433  Biso   1.000  C
  H52      1.0000 0.62267  0.91543  0.91273  Biso   1.000  H
  C234     1.0000 0.57927  0.85433  0.95723  Biso   1.000  C
  O105     1.0000 0.18456  0.22115  0.33722  Biso   1.000  O
  C235     1.0000 0.21163  0.23847  0.30674  Biso   1.000  C
  O106     1.0000 0.22453  0.29977  0.28982  Biso   1.000  O
  C236     1.0000 0.22003  0.17577  0.28907  Biso   1.000  C
  C237     1.0000 0.25103  0.19287  0.25507  Biso   1.000  C
  H53      1.0000 0.26483  0.24237  0.24427  Biso   1.000  H
  C238     1.0000 0.34563  0.11947  0.18657  Biso   1.000  C
  C239     1.0000 0.29913  0.09357  0.18217  Biso   1.000  C
  C240     1.0000 0.34773  0.04157  0.18997  Biso   1.000  C
  O107     1.0000 0.33873  0.98447  0.20887  Biso   1.000  O
  C241     1.0000 0.37133  0.05077  0.15257  Biso   1.000  C
  O108     1.0000 0.27993  0.95607  0.20027  Biso   1.000  O
  C242     1.0000 0.27913  0.20127  0.25767  Biso   1.000  C
  H54      1.0000 0.28933  0.24877  0.24607  Biso   1.000  H
  C243     1.0000 0.24593  0.18767  0.29057  Biso   1.000  C
  O109     1.0000 0.29675  0.44552  0.32945  Biso   1.000  O
  C244     1.0000 0.30650  0.42820  0.35993  Biso   1.000  C
  O110     1.0000 0.25810  0.36690  0.37685  Biso   1.000  O
  C245     1.0000 0.37760  0.49090  0.37760  Biso   1.000  C
  C246     1.0000 0.39150  0.47380  0.41160  Biso   1.000  C
  H55      1.0000 0.35580  0.42430  0.42240  Biso   1.000  H
  C247     1.0000 0.55950  0.54720  0.48010  Biso   1.000  C
  C248     1.0000 0.53890  0.57310  0.48450  Biso   1.000  C
  C249     1.0000 0.63950  0.62510  0.47670  Biso   1.000  C
  O111     1.0000 0.68760  0.68220  0.45780  Biso   1.000  O
  C250     1.0000 0.65390  0.61590  0.51410  Biso   1.000  C
  O112     1.0000 0.65720  0.71060  0.46640  Biso   1.000  O
  C251     1.0000 0.41120  0.46540  0.40900  Biso   1.000  C
  H56      1.0000 0.37390  0.41790  0.42060  Biso   1.000  H
  C252     1.0000 0.39160  0.47900  0.37610  Biso   1.000  C
  O113     1.0000 0.96342  0.77885  0.66278  Biso   1.000  O
  C253     1.0000 0.97317  0.76153  0.69326  Biso   1.000  C
  O114     1.0000 0.92477  0.70023  0.71018  Biso   1.000  O
  C254     1.0000 0.04427  0.82423  0.71093  Biso   1.000  C
  C255     1.0000 0.05817  0.80713  0.74493  Biso   1.000  C
  H57      1.0000 0.02247  0.75763  0.75573  Biso   1.000  H
  C256     1.0000 0.22617  0.88053  0.81343  Biso   1.000  C
  C257     1.0000 0.20557  0.90643  0.81783  Biso   1.000  C
  C258     1.0000 0.30617  0.95843  0.81003  Biso   1.000  C
  O115     1.0000 0.35427  0.01553  0.79113  Biso   1.000  O
  C259     1.0000 0.32057  0.94923  0.84743  Biso   1.000  C
  O116     1.0000 0.32387  0.04393  0.79973  Biso   1.000  O
  C260     1.0000 0.07787  0.79873  0.74233  Biso   1.000  C
  H58      1.0000 0.04057  0.75123  0.75393  Biso   1.000  H
  C261     1.0000 0.05827  0.81233  0.70943  Biso   1.000  C
  O117     1.0000 0.63008  0.11219  0.99612  Biso   1.000  O
  C262     1.0000 0.63983  0.09487  0.02660  Biso   1.000  C
  O118     1.0000 0.59143  0.03357  0.04352  Biso   1.000  O
  C263     1.0000 0.71093  0.15757  0.04427  Biso   1.000  C
  C264     1.0000 0.72483  0.14047  0.07827  Biso   1.000  C
  H59      1.0000 0.68913  0.09097  0.08907  Biso   1.000  H
  C265     1.0000 0.89283  0.21387  0.14677  Biso   1.000  C
  C266     1.0000 0.87223  0.23977  0.15117  Biso   1.000  C
  C267     1.0000 0.97283  0.29177  0.14337  Biso   1.000  C
  O119     1.0000 0.02093  0.34887  0.12447  Biso   1.000  O
  C268     1.0000 0.98723  0.28257  0.18077  Biso   1.000  C
  O120     1.0000 0.99053  0.37727  0.13307  Biso   1.000  O
  C269     1.0000 0.74453  0.13207  0.07567  Biso   1.000  C
  H60      1.0000 0.70723  0.08457  0.08727  Biso   1.000  H
  C270     1.0000 0.72493  0.14567  0.04277  Biso   1.000  C
  O121     1.0000 0.14877  0.70325  0.32945  Biso   1.000  O
  C271     1.0000 0.12170  0.69350  0.35993  Biso   1.000  C
  O122     1.0000 0.10880  0.74190  0.37685  Biso   1.000  O
  C272     1.0000 0.11330  0.62240  0.37760  Biso   1.000  C
  C273     1.0000 0.08230  0.60850  0.41160  Biso   1.000  C
  H61      1.0000 0.06850  0.64420  0.42240  Biso   1.000  H
  C274     1.0000 0.98770  0.44050  0.48010  Biso   1.000  C
  C275     1.0000 0.03420  0.46110  0.48450  Biso   1.000  C
  C276     1.0000 0.98560  0.36050  0.47670  Biso   1.000  C
  O123     1.0000 0.99460  0.31240  0.45780  Biso   1.000  O
  C277     1.0000 0.96200  0.34610  0.51410  Biso   1.000  C
  O124     1.0000 0.05340  0.34280  0.46640  Biso   1.000  O
  C278     1.0000 0.05420  0.58880  0.40900  Biso   1.000  C
  H62      1.0000 0.04400  0.62610  0.42060  Biso   1.000  H
  C279     1.0000 0.08740  0.60840  0.37610  Biso   1.000  C
  O125     1.0000 0.81544  0.03658  0.66278  Biso   1.000  O
  C280     1.0000 0.78837  0.02683  0.69326  Biso   1.000  C
  O126     1.0000 0.77547  0.07523  0.71018  Biso   1.000  O
  C281     1.0000 0.77997  0.95573  0.71093  Biso   1.000  C
  C282     1.0000 0.74897  0.94183  0.74493  Biso   1.000  C
  H63      1.0000 0.73517  0.97753  0.75573  Biso   1.000  H
  C283     1.0000 0.65437  0.77383  0.81343  Biso   1.000  C
  C284     1.0000 0.70087  0.79443  0.81783  Biso   1.000  C
  C285     1.0000 0.65227  0.69383  0.81003  Biso   1.000  C
  O127     1.0000 0.66127  0.64573  0.79113  Biso   1.000  O
  C286     1.0000 0.62867  0.67943  0.84743  Biso   1.000  C
  O128     1.0000 0.72007  0.67613  0.79973  Biso   1.000  O
  C287     1.0000 0.72087  0.92213  0.74233  Biso   1.000  C
  H64      1.0000 0.71067  0.95943  0.75393  Biso   1.000  H
  C288     1.0000 0.75407  0.94173  0.70943  Biso   1.000  C
  O129     1.0000 0.48210  0.36992  0.99612  Biso   1.000  O
  C289     1.0000 0.45503  0.36017  0.02660  Biso   1.000  C
  O130     1.0000 0.44213  0.40857  0.04352  Biso   1.000  O
  C290     1.0000 0.44663  0.28907  0.04427  Biso   1.000  C
  C291     1.0000 0.41563  0.27517  0.07827  Biso   1.000  C
  H65      1.0000 0.40183  0.31087  0.08907  Biso   1.000  H
  C292     1.0000 0.32103  0.10717  0.14677  Biso   1.000  C
  C293     1.0000 0.36753  0.12777  0.15117  Biso   1.000  C
  C294     1.0000 0.31893  0.02717  0.14337  Biso   1.000  C
  O131     1.0000 0.32793  0.97907  0.12447  Biso   1.000  O
  C295     1.0000 0.29533  0.01277  0.18077  Biso   1.000  C
  O132     1.0000 0.38673  0.00947  0.13307  Biso   1.000  O
  C296     1.0000 0.38753  0.25547  0.07567  Biso   1.000  C
  H66      1.0000 0.37733  0.29277  0.08727  Biso   1.000  H
  C297     1.0000 0.42073  0.27507  0.04277  Biso   1.000  C
  O133     1.0000 0.55448  0.85123  0.32945  Biso   1.000  O
  C298     1.0000 0.57180  0.87830  0.35993  Biso   1.000  C
  O134     1.0000 0.63310  0.89120  0.37685  Biso   1.000  O
  C299     1.0000 0.50910  0.88670  0.37760  Biso   1.000  C
  C300     1.0000 0.52620  0.91770  0.41160  Biso   1.000  C
  H67      1.0000 0.57570  0.93150  0.42240  Biso   1.000  H
  C301     1.0000 0.45280  0.01230  0.48010  Biso   1.000  C
  C302     1.0000 0.42690  0.96580  0.48450  Biso   1.000  C
  C303     1.0000 0.37490  0.01440  0.47670  Biso   1.000  C
  O135     1.0000 0.31780  0.00540  0.45780  Biso   1.000  O
  C304     1.0000 0.38410  0.03800  0.51410  Biso   1.000  C
  O136     1.0000 0.28940  0.94660  0.46640  Biso   1.000  O
  C305     1.0000 0.53460  0.94580  0.40900  Biso   1.000  C
  H68      1.0000 0.58210  0.95600  0.42060  Biso   1.000  H
  C306     1.0000 0.52100  0.91260  0.37610  Biso   1.000  C
  O137     1.0000 0.22115  0.18456  0.66278  Biso   1.000  O
  C307     1.0000 0.23847  0.21163  0.69326  Biso   1.000  C
  O138     1.0000 0.29977  0.22453  0.71018  Biso   1.000  O
  C308     1.0000 0.17577  0.22003  0.71093  Biso   1.000  C
  C309     1.0000 0.19287  0.25103  0.74493  Biso   1.000  C
  H69      1.0000 0.24237  0.26483  0.75573  Biso   1.000  H
  C310     1.0000 0.11947  0.34563  0.81343  Biso   1.000  C
  C311     1.0000 0.09357  0.29913  0.81783  Biso   1.000  C
  C312     1.0000 0.04157  0.34773  0.81003  Biso   1.000  C
  O139     1.0000 0.98447  0.33873  0.79113  Biso   1.000  O
  C313     1.0000 0.05077  0.37133  0.84743  Biso   1.000  C
  O140     1.0000 0.95607  0.27993  0.79973  Biso   1.000  O
  C314     1.0000 0.20127  0.27913  0.74233  Biso   1.000  C
  H70      1.0000 0.24877  0.28933  0.75393  Biso   1.000  H
  C315     1.0000 0.18767  0.24593  0.70943  Biso   1.000  C
  O141     1.0000 0.88781  0.51790  0.99612  Biso   1.000  O
  C316     1.0000 0.90513  0.54497  0.02660  Biso   1.000  C
  O142     1.0000 0.96643  0.55787  0.04352  Biso   1.000  O
  C317     1.0000 0.84243  0.55337  0.04427  Biso   1.000  C
  C318     1.0000 0.85953  0.58437  0.07827  Biso   1.000  C
  H71      1.0000 0.90903  0.59817  0.08907  Biso   1.000  H
  C319     1.0000 0.78613  0.67897  0.14677  Biso   1.000  C
  C320     1.0000 0.76023  0.63247  0.15117  Biso   1.000  C
  C321     1.0000 0.70823  0.68107  0.14337  Biso   1.000  C
  O143     1.0000 0.65113  0.67207  0.12447  Biso   1.000  O
  C322     1.0000 0.71743  0.70467  0.18077  Biso   1.000  C
  O144     1.0000 0.62273  0.61327  0.13307  Biso   1.000  O
  C323     1.0000 0.86793  0.61247  0.07567  Biso   1.000  C
  H72      1.0000 0.91543  0.62267  0.08727  Biso   1.000  H
  C324     1.0000 0.85433  0.57927  0.04277  Biso   1.000  C
  Zn1      1.0000 0.61482  0.80741  0.30121  Biso   1.000  Zn
  Zn2      1.0000 0.28149  0.14074  0.63454  Biso   1.000  Zn
  Zn3      1.0000 0.94815  0.47408  0.96788  Biso   1.000  Zn
  Zn4      1.0000 0.19259  0.80741  0.30121  Biso   1.000  Zn
  Zn5      1.0000 0.85926  0.14074  0.63454  Biso   1.000  Zn
  Zn6      1.0000 0.52592  0.47408  0.96788  Biso   1.000  Zn
  Zn7      1.0000 0.19259  0.38518  0.30121  Biso   1.000  Zn
  Zn8      1.0000 0.85926  0.71851  0.63454  Biso   1.000  Zn
  Zn9      1.0000 0.52592  0.05185  0.96788  Biso   1.000  Zn
  Zn10     1.0000 0.80741  0.61482  0.69879  Biso   1.000  Zn
  Zn11     1.0000 0.47408  0.94815  0.03212  Biso   1.000  Zn
  Zn12     1.0000 0.14074  0.28149  0.36546  Biso   1.000  Zn
  Zn13     1.0000 0.80741  0.19259  0.69879  Biso   1.000  Zn
  Zn14     1.0000 0.47408  0.52592  0.03212  Biso   1.000  Zn
  Zn15     1.0000 0.14074  0.85926  0.36546  Biso   1.000  Zn
  Zn16     1.0000 0.38518  0.19259  0.69879  Biso   1.000  Zn
  Zn17     1.0000 0.05185  0.52592  0.03212  Biso   1.000  Zn
  Zn18     1.0000 0.71851  0.85926  0.36546  Biso   1.000  Zn
  C325     1.0000 0.46360  0.53640  0.42910  Biso   1.000  C
  N1       1.0000 0.47750  0.52250  0.46420  Biso   1.000  N
  C326     1.0000 0.43530  0.56470  0.35870  Biso   1.000  C
  H73      1.0000 0.42570  0.57430  0.33590  Biso   1.000  H
  C327     1.0000 0.44850  0.55150  0.36080  Biso   1.000  C
  H74      1.0000 0.43720  0.56280  0.33860  Biso   1.000  H
  C328     1.0000 0.48200  0.51800  0.42510  Biso   1.000  C
  N2       1.0000 0.49820  0.50180  0.45920  Biso   1.000  N
  C329     1.0000 0.13027  0.86973  0.76243  Biso   1.000  C
  N3       1.0000 0.14417  0.85583  0.79753  Biso   1.000  N
  C330     1.0000 0.10197  0.89803  0.69203  Biso   1.000  C
  H75      1.0000 0.09237  0.90763  0.66923  Biso   1.000  H
  C331     1.0000 0.11517  0.88483  0.69413  Biso   1.000  C
  H76      1.0000 0.10387  0.89613  0.67193  Biso   1.000  H
  C332     1.0000 0.14867  0.85133  0.75843  Biso   1.000  C
  N4       1.0000 0.16487  0.83513  0.79253  Biso   1.000  N
  C333     1.0000 0.79693  0.20307  0.09577  Biso   1.000  C
  N5       1.0000 0.81083  0.18917  0.13087  Biso   1.000  N
  C334     1.0000 0.76863  0.23137  0.02537  Biso   1.000  C
  H77      1.0000 0.75903  0.24097  0.00257  Biso   1.000  H
  C335     1.0000 0.78183  0.21817  0.02747  Biso   1.000  C
  H78      1.0000 0.77053  0.22947  0.00527  Biso   1.000  H
  C336     1.0000 0.81533  0.18467  0.09177  Biso   1.000  C
  N6       1.0000 0.83153  0.16847  0.12587  Biso   1.000  N
  C337     1.0000 0.46360  0.92720  0.42910  Biso   1.000  C
  N7       1.0000 0.47750  0.95500  0.46420  Biso   1.000  N
  C338     1.0000 0.43530  0.87060  0.35870  Biso   1.000  C
  H79      1.0000 0.42570  0.85140  0.33590  Biso   1.000  H
  C339     1.0000 0.44850  0.89700  0.36080  Biso   1.000  C
  H80      1.0000 0.43720  0.87440  0.33860  Biso   1.000  H
  C340     1.0000 0.48200  0.96400  0.42510  Biso   1.000  C
  N8       1.0000 0.49820  0.99640  0.45920  Biso   1.000  N
  C341     1.0000 0.13027  0.26053  0.76243  Biso   1.000  C
  N9       1.0000 0.14417  0.28833  0.79753  Biso   1.000  N
  C342     1.0000 0.10197  0.20393  0.69203  Biso   1.000  C
  H81      1.0000 0.09237  0.18473  0.66923  Biso   1.000  H
  C343     1.0000 0.11517  0.23033  0.69413  Biso   1.000  C
  H82      1.0000 0.10387  0.20773  0.67193  Biso   1.000  H
  C344     1.0000 0.14867  0.29733  0.75843  Biso   1.000  C
  N10      1.0000 0.16487  0.32973  0.79253  Biso   1.000  N
  C345     1.0000 0.79693  0.59387  0.09577  Biso   1.000  C
  N11      1.0000 0.81083  0.62167  0.13087  Biso   1.000  N
  C346     1.0000 0.76863  0.53727  0.02537  Biso   1.000  C
  H83      1.0000 0.75903  0.51807  0.00257  Biso   1.000  H
  C347     1.0000 0.78183  0.56367  0.02747  Biso   1.000  C
  H84      1.0000 0.77053  0.54107  0.00527  Biso   1.000  H
  C348     1.0000 0.81533  0.63067  0.09177  Biso   1.000  C
  N12      1.0000 0.83153  0.66307  0.12587  Biso   1.000  N
  C349     1.0000 0.07280  0.53640  0.42910  Biso   1.000  C
  N13      1.0000 0.04500  0.52250  0.46420  Biso   1.000  N
  C350     1.0000 0.12940  0.56470  0.35870  Biso   1.000  C
  H85      1.0000 0.14860  0.57430  0.33590  Biso   1.000  H
  C351     1.0000 0.10300  0.55150  0.36080  Biso   1.000  C
  H86      1.0000 0.12560  0.56280  0.33860  Biso   1.000  H
  C352     1.0000 0.03600  0.51800  0.42510  Biso   1.000  C
  N14      1.0000 0.00360  0.50180  0.45920  Biso   1.000  N
  C353     1.0000 0.73947  0.86973  0.76243  Biso   1.000  C
  N15      1.0000 0.71167  0.85583  0.79753  Biso   1.000  N
  C354     1.0000 0.79607  0.89803  0.69203  Biso   1.000  C
  H87      1.0000 0.81527  0.90763  0.66923  Biso   1.000  H
  C355     1.0000 0.76967  0.88483  0.69413  Biso   1.000  C
  H88      1.0000 0.79227  0.89613  0.67193  Biso   1.000  H
  C356     1.0000 0.70267  0.85133  0.75843  Biso   1.000  C
  N16      1.0000 0.67027  0.83513  0.79253  Biso   1.000  N
  C357     1.0000 0.40613  0.20307  0.09577  Biso   1.000  C
  N17      1.0000 0.37833  0.18917  0.13087  Biso   1.000  N
  C358     1.0000 0.46273  0.23137  0.02537  Biso   1.000  C
  H89      1.0000 0.48193  0.24097  0.00257  Biso   1.000  H
  C359     1.0000 0.43633  0.21817  0.02747  Biso   1.000  C
  H90      1.0000 0.45893  0.22947  0.00527  Biso   1.000  H
  C360     1.0000 0.36933  0.18467  0.09177  Biso   1.000  C
  N18      1.0000 0.33693  0.16847  0.12587  Biso   1.000  N
  C361     1.0000 0.53640  0.46360  0.57090  Biso   1.000  C
  N19      1.0000 0.52250  0.47750  0.53580  Biso   1.000  N
  C362     1.0000 0.56470  0.43530  0.64130  Biso   1.000  C
  H91      1.0000 0.57430  0.42570  0.66410  Biso   1.000  H
  C363     1.0000 0.55150  0.44850  0.63920  Biso   1.000  C
  H92      1.0000 0.56280  0.43720  0.66140  Biso   1.000  H
  C364     1.0000 0.51800  0.48200  0.57490  Biso   1.000  C
  N20      1.0000 0.50180  0.49820  0.54080  Biso   1.000  N
  C365     1.0000 0.20307  0.79693  0.90423  Biso   1.000  C
  N21      1.0000 0.18917  0.81083  0.86913  Biso   1.000  N
  C366     1.0000 0.23137  0.76863  0.97463  Biso   1.000  C
  H93      1.0000 0.24097  0.75903  0.99743  Biso   1.000  H
  C367     1.0000 0.21817  0.78183  0.97253  Biso   1.000  C
  H94      1.0000 0.22947  0.77053  0.99473  Biso   1.000  H
  C368     1.0000 0.18467  0.81533  0.90823  Biso   1.000  C
  N22      1.0000 0.16847  0.83153  0.87413  Biso   1.000  N
  C369     1.0000 0.86973  0.13027  0.23757  Biso   1.000  C
  N23      1.0000 0.85583  0.14417  0.20247  Biso   1.000  N
  C370     1.0000 0.89803  0.10197  0.30797  Biso   1.000  C
  H95      1.0000 0.90763  0.09237  0.33077  Biso   1.000  H
  C371     1.0000 0.88483  0.11517  0.30587  Biso   1.000  C
  H96      1.0000 0.89613  0.10387  0.32807  Biso   1.000  H
  C372     1.0000 0.85133  0.14867  0.24157  Biso   1.000  C
  N24      1.0000 0.83513  0.16487  0.20747  Biso   1.000  N
  C373     1.0000 0.92720  0.46360  0.57090  Biso   1.000  C
  N25      1.0000 0.95500  0.47750  0.53580  Biso   1.000  N
  C374     1.0000 0.87060  0.43530  0.64130  Biso   1.000  C
  H97      1.0000 0.85140  0.42570  0.66410  Biso   1.000  H
  C375     1.0000 0.89700  0.44850  0.63920  Biso   1.000  C
  H98      1.0000 0.87440  0.43720  0.66140  Biso   1.000  H
  C376     1.0000 0.96400  0.48200  0.57490  Biso   1.000  C
  N26      1.0000 0.99640  0.49820  0.54080  Biso   1.000  N
  C377     1.0000 0.59387  0.79693  0.90423  Biso   1.000  C
  N27      1.0000 0.62167  0.81083  0.86913  Biso   1.000  N
  C378     1.0000 0.53727  0.76863  0.97463  Biso   1.000  C
  H99      1.0000 0.51807  0.75903  0.99743  Biso   1.000  H
  C379     1.0000 0.56367  0.78183  0.97253  Biso   1.000  C
  H100     1.0000 0.54107  0.77053  0.99473  Biso   1.000  H
  C380     1.0000 0.63067  0.81533  0.90823  Biso   1.000  C
  N28      1.0000 0.66307  0.83153  0.87413  Biso   1.000  N
  C381     1.0000 0.26053  0.13027  0.23757  Biso   1.000  C
  N29      1.0000 0.28833  0.14417  0.20247  Biso   1.000  N
  C382     1.0000 0.20393  0.10197  0.30797  Biso   1.000  C
  H101     1.0000 0.18473  0.09237  0.33077  Biso   1.000  H
  C383     1.0000 0.23033  0.11517  0.30587  Biso   1.000  C
  H102     1.0000 0.20773  0.10387  0.32807  Biso   1.000  H
  C384     1.0000 0.29733  0.14867  0.24157  Biso   1.000  C
  N30      1.0000 0.32973  0.16487  0.20747  Biso   1.000  N
  C385     1.0000 0.53640  0.07280  0.57090  Biso   1.000  C
  N31      1.0000 0.52250  0.04500  0.53580  Biso   1.000  N
  C386     1.0000 0.56470  0.12940  0.64130  Biso   1.000  C
  H103     1.0000 0.57430  0.14860  0.66410  Biso   1.000  H
  C387     1.0000 0.55150  0.10300  0.63920  Biso   1.000  C
  H104     1.0000 0.56280  0.12560  0.66140  Biso   1.000  H
  C388     1.0000 0.51800  0.03600  0.57490  Biso   1.000  C
  N32      1.0000 0.50180  0.00360  0.54080  Biso   1.000  N
  C389     1.0000 0.20307  0.40613  0.90423  Biso   1.000  C
  N33      1.0000 0.18917  0.37833  0.86913  Biso   1.000  N
  C390     1.0000 0.23137  0.46273  0.97463  Biso   1.000  C
  H105     1.0000 0.24097  0.48193  0.99743  Biso   1.000  H
  C391     1.0000 0.21817  0.43633  0.97253  Biso   1.000  C
  H106     1.0000 0.22947  0.45893  0.99473  Biso   1.000  H
  C392     1.0000 0.18467  0.36933  0.90823  Biso   1.000  C
  N34      1.0000 0.16847  0.33693  0.87413  Biso   1.000  N
  C393     1.0000 0.86973  0.73947  0.23757  Biso   1.000  C
  N35      1.0000 0.85583  0.71167  0.20247  Biso   1.000  N
  C394     1.0000 0.89803  0.79607  0.30797  Biso   1.000  C
  H107     1.0000 0.90763  0.81527  0.33077  Biso   1.000  H
  C395     1.0000 0.88483  0.76967  0.30587  Biso   1.000  C
  H108     1.0000 0.89613  0.79227  0.32807  Biso   1.000  H
  C396     1.0000 0.85133  0.70267  0.24157  Biso   1.000  C
  N36      1.0000 0.83513  0.67027  0.20747  Biso   1.000  N
