data_image0
_cell_length_a       18.2623
_cell_length_b       18.2623
_cell_length_c       39.6543
_cell_angle_alpha    90
_cell_angle_beta     90
_cell_angle_gamma    120

_symmetry_space_group_name_H-M    "P 1"
_symmetry_int_tables_number       1

loop_
  _symmetry_equiv_pos_as_xyz
  'x, y, z'

loop_
  _atom_site_label
  _atom_site_occupancy
  _atom_site_fract_x
  _atom_site_fract_y
  _atom_site_fract_z
  _atom_site_thermal_displace_type
  _atom_site_B_iso_or_equiv
  _atom_site_type_symbol
  O1       1.0000 0.37097  0.47962  0.50031  Biso   1.000  O
  O2       1.0000 0.41319  0.43776  0.45490  Biso   1.000  O
  C1       1.0000 0.36090  0.44980  0.47115  Biso   1.000  C
  C2       1.0000 0.28010  0.42890  0.45386  Biso   1.000  C
  C3       1.0000 0.27060  0.41150  0.41940  Biso   1.000  C
  H1       1.0000 0.31370  0.40960  0.40770  Biso   1.000  H
  C4       1.0000 0.13740  0.38610  0.34540  Biso   1.000  C
  C5       1.0000 0.09870  0.30930  0.35700  Biso   1.000  C
  C6       1.0000 0.00770  0.28180  0.35860  Biso   1.000  C
  O3       1.0000 0.09020  0.49330  0.35670  Biso   1.000  O
  C7       1.0000 0.09060  0.43260  0.33950  Biso   1.000  C
  O4       1.0000 0.96100  0.26730  0.38340  Biso   1.000  O
  C8       1.0000 0.25930  0.38500  0.42320  Biso   1.000  C
  H2       1.0000 0.29500  0.36850  0.41340  Biso   1.000  H
  O5       1.0000 0.03764  0.81295  0.83364  Biso   1.000  O
  O6       1.0000 0.07986  0.77109  0.78823  Biso   1.000  O
  C9       1.0000 0.02757  0.78313  0.80448  Biso   1.000  C
  C10      1.0000 0.94677  0.76223  0.78719  Biso   1.000  C
  C11      1.0000 0.93727  0.74483  0.75273  Biso   1.000  C
  H3       1.0000 0.98037  0.74293  0.74103  Biso   1.000  H
  C12      1.0000 0.80407  0.71943  0.67873  Biso   1.000  C
  C13      1.0000 0.76537  0.64263  0.69033  Biso   1.000  C
  C14      1.0000 0.67437  0.61513  0.69193  Biso   1.000  C
  O7       1.0000 0.75687  0.82663  0.69003  Biso   1.000  O
  C15      1.0000 0.75727  0.76593  0.67283  Biso   1.000  C
  O8       1.0000 0.62767  0.60063  0.71673  Biso   1.000  O
  C16      1.0000 0.92597  0.71833  0.75653  Biso   1.000  C
  H4       1.0000 0.96167  0.70183  0.74673  Biso   1.000  H
  O9       1.0000 0.70430  0.14629  0.16698  Biso   1.000  O
  O10      1.0000 0.74652  0.10443  0.12157  Biso   1.000  O
  C17      1.0000 0.69423  0.11647  0.13782  Biso   1.000  C
  C18      1.0000 0.61343  0.09557  0.12053  Biso   1.000  C
  C19      1.0000 0.60393  0.07817  0.08607  Biso   1.000  C
  H5       1.0000 0.64703  0.07627  0.07437  Biso   1.000  H
  C20      1.0000 0.47073  0.05277  0.01207  Biso   1.000  C
  C21      1.0000 0.43203  0.97597  0.02367  Biso   1.000  C
  C22      1.0000 0.34103  0.94847  0.02527  Biso   1.000  C
  O11      1.0000 0.42353  0.15997  0.02337  Biso   1.000  O
  C23      1.0000 0.42393  0.09927  0.00617  Biso   1.000  C
  O12      1.0000 0.29433  0.93397  0.05007  Biso   1.000  O
  C24      1.0000 0.59263  0.05167  0.08987  Biso   1.000  C
  H6       1.0000 0.62833  0.03517  0.08007  Biso   1.000  H
  O13      1.0000 0.52038  0.89135  0.50031  Biso   1.000  O
  O14      1.0000 0.56224  0.97543  0.45490  Biso   1.000  O
  C25      1.0000 0.55020  0.91110  0.47115  Biso   1.000  C
  C26      1.0000 0.57110  0.85120  0.45386  Biso   1.000  C
  C27      1.0000 0.58850  0.85910  0.41940  Biso   1.000  C
  H7       1.0000 0.59040  0.90410  0.40770  Biso   1.000  H
  C28      1.0000 0.61390  0.75130  0.34540  Biso   1.000  C
  C29      1.0000 0.69070  0.78940  0.35700  Biso   1.000  C
  C30      1.0000 0.71820  0.72590  0.35860  Biso   1.000  C
  O15      1.0000 0.50670  0.59690  0.35670  Biso   1.000  O
  C31      1.0000 0.56740  0.65800  0.33950  Biso   1.000  C
  O16      1.0000 0.73270  0.69370  0.38340  Biso   1.000  O
  C32      1.0000 0.61500  0.87430  0.42320  Biso   1.000  C
  H8       1.0000 0.63150  0.92650  0.41340  Biso   1.000  H
  O17      1.0000 0.18705  0.22468  0.83364  Biso   1.000  O
  O18      1.0000 0.22891  0.30876  0.78823  Biso   1.000  O
  C33      1.0000 0.21687  0.24443  0.80448  Biso   1.000  C
  C34      1.0000 0.23777  0.18453  0.78719  Biso   1.000  C
  C35      1.0000 0.25517  0.19243  0.75273  Biso   1.000  C
  H9       1.0000 0.25707  0.23743  0.74103  Biso   1.000  H
  C36      1.0000 0.28057  0.08463  0.67873  Biso   1.000  C
  C37      1.0000 0.35737  0.12273  0.69033  Biso   1.000  C
  C38      1.0000 0.38487  0.05923  0.69193  Biso   1.000  C
  O19      1.0000 0.17337  0.93023  0.69003  Biso   1.000  O
  C39      1.0000 0.23407  0.99133  0.67283  Biso   1.000  C
  O20      1.0000 0.39937  0.02703  0.71673  Biso   1.000  O
  C40      1.0000 0.28167  0.20763  0.75653  Biso   1.000  C
  H10      1.0000 0.29817  0.25983  0.74673  Biso   1.000  H
  O21      1.0000 0.85371  0.55802  0.16698  Biso   1.000  O
  O22      1.0000 0.89557  0.64210  0.12157  Biso   1.000  O
  C41      1.0000 0.88353  0.57777  0.13782  Biso   1.000  C
  C42      1.0000 0.90443  0.51787  0.12053  Biso   1.000  C
  C43      1.0000 0.92183  0.52577  0.08607  Biso   1.000  C
  H11      1.0000 0.92373  0.57077  0.07437  Biso   1.000  H
  C44      1.0000 0.94723  0.41797  0.01207  Biso   1.000  C
  C45      1.0000 0.02403  0.45607  0.02367  Biso   1.000  C
  C46      1.0000 0.05153  0.39257  0.02527  Biso   1.000  C
  O23      1.0000 0.84003  0.26357  0.02337  Biso   1.000  O
  C47      1.0000 0.90073  0.32467  0.00617  Biso   1.000  C
  O24      1.0000 0.06603  0.36037  0.05007  Biso   1.000  O
  C48      1.0000 0.94833  0.54097  0.08987  Biso   1.000  C
  H12      1.0000 0.96483  0.59317  0.08007  Biso   1.000  H
  O25      1.0000 0.10865  0.62903  0.50031  Biso   1.000  O
  O26      1.0000 0.02457  0.58681  0.45490  Biso   1.000  O
  C49      1.0000 0.08890  0.63910  0.47115  Biso   1.000  C
  C50      1.0000 0.14880  0.71990  0.45386  Biso   1.000  C
  C51      1.0000 0.14090  0.72940  0.41940  Biso   1.000  C
  H13      1.0000 0.09590  0.68630  0.40770  Biso   1.000  H
  C52      1.0000 0.24870  0.86260  0.34540  Biso   1.000  C
  C53      1.0000 0.21060  0.90130  0.35700  Biso   1.000  C
  C54      1.0000 0.27410  0.99230  0.35860  Biso   1.000  C
  O27      1.0000 0.40310  0.90980  0.35670  Biso   1.000  O
  C55      1.0000 0.34200  0.90940  0.33950  Biso   1.000  C
  O28      1.0000 0.30630  0.03900  0.38340  Biso   1.000  O
  C56      1.0000 0.12570  0.74070  0.42320  Biso   1.000  C
  H14      1.0000 0.07350  0.70500  0.41340  Biso   1.000  H
  O29      1.0000 0.77532  0.96236  0.83364  Biso   1.000  O
  O30      1.0000 0.69124  0.92014  0.78823  Biso   1.000  O
  C57      1.0000 0.75557  0.97243  0.80448  Biso   1.000  C
  C58      1.0000 0.81547  0.05323  0.78719  Biso   1.000  C
  C59      1.0000 0.80757  0.06273  0.75273  Biso   1.000  C
  H15      1.0000 0.76257  0.01963  0.74103  Biso   1.000  H
  C60      1.0000 0.91537  0.19593  0.67873  Biso   1.000  C
  C61      1.0000 0.87727  0.23463  0.69033  Biso   1.000  C
  C62      1.0000 0.94077  0.32563  0.69193  Biso   1.000  C
  O31      1.0000 0.06977  0.24313  0.69003  Biso   1.000  O
  C63      1.0000 0.00867  0.24273  0.67283  Biso   1.000  C
  O32      1.0000 0.97297  0.37233  0.71673  Biso   1.000  O
  C64      1.0000 0.79237  0.07403  0.75653  Biso   1.000  C
  H16      1.0000 0.74017  0.03833  0.74673  Biso   1.000  H
  O33      1.0000 0.44198  0.29570  0.16698  Biso   1.000  O
  O34      1.0000 0.35790  0.25348  0.12157  Biso   1.000  O
  C65      1.0000 0.42223  0.30577  0.13782  Biso   1.000  C
  C66      1.0000 0.48213  0.38657  0.12053  Biso   1.000  C
  C67      1.0000 0.47423  0.39607  0.08607  Biso   1.000  C
  H17      1.0000 0.42923  0.35297  0.07437  Biso   1.000  H
  C68      1.0000 0.58203  0.52927  0.01207  Biso   1.000  C
  C69      1.0000 0.54393  0.56797  0.02367  Biso   1.000  C
  C70      1.0000 0.60743  0.65897  0.02527  Biso   1.000  C
  O35      1.0000 0.73643  0.57647  0.02337  Biso   1.000  O
  C71      1.0000 0.67533  0.57607  0.00617  Biso   1.000  C
  O36      1.0000 0.63963  0.70567  0.05007  Biso   1.000  O
  C72      1.0000 0.45903  0.40737  0.08987  Biso   1.000  C
  H18      1.0000 0.40683  0.37167  0.08007  Biso   1.000  H
  O37      1.0000 0.47962  0.37097  0.49969  Biso   1.000  O
  O38      1.0000 0.43776  0.41319  0.54510  Biso   1.000  O
  C73      1.0000 0.44980  0.36090  0.52885  Biso   1.000  C
  C74      1.0000 0.42890  0.28010  0.54614  Biso   1.000  C
  C75      1.0000 0.41150  0.27060  0.58060  Biso   1.000  C
  H19      1.0000 0.40960  0.31370  0.59230  Biso   1.000  H
  C76      1.0000 0.38610  0.13740  0.65460  Biso   1.000  C
  C77      1.0000 0.30930  0.09870  0.64300  Biso   1.000  C
  C78      1.0000 0.28180  0.00770  0.64140  Biso   1.000  C
  O39      1.0000 0.49330  0.09020  0.64330  Biso   1.000  O
  C79      1.0000 0.43260  0.09060  0.66050  Biso   1.000  C
  O40      1.0000 0.26730  0.96100  0.61660  Biso   1.000  O
  C80      1.0000 0.38500  0.25930  0.57680  Biso   1.000  C
  H20      1.0000 0.36850  0.29500  0.58660  Biso   1.000  H
  O41      1.0000 0.14629  0.70430  0.83302  Biso   1.000  O
  O42      1.0000 0.10443  0.74652  0.87843  Biso   1.000  O
  C81      1.0000 0.11647  0.69423  0.86218  Biso   1.000  C
  C82      1.0000 0.09557  0.61343  0.87947  Biso   1.000  C
  C83      1.0000 0.07817  0.60393  0.91393  Biso   1.000  C
  H21      1.0000 0.07627  0.64703  0.92563  Biso   1.000  H
  C84      1.0000 0.05277  0.47073  0.98793  Biso   1.000  C
  C85      1.0000 0.97597  0.43203  0.97633  Biso   1.000  C
  C86      1.0000 0.94847  0.34103  0.97473  Biso   1.000  C
  O43      1.0000 0.15997  0.42353  0.97663  Biso   1.000  O
  C87      1.0000 0.09927  0.42393  0.99383  Biso   1.000  C
  O44      1.0000 0.93397  0.29433  0.94993  Biso   1.000  O
  C88      1.0000 0.05167  0.59263  0.91013  Biso   1.000  C
  H22      1.0000 0.03517  0.62833  0.91993  Biso   1.000  H
  O45      1.0000 0.81295  0.03764  0.16636  Biso   1.000  O
  O46      1.0000 0.77109  0.07986  0.21177  Biso   1.000  O
  C89      1.0000 0.78313  0.02757  0.19552  Biso   1.000  C
  C90      1.0000 0.76223  0.94677  0.21281  Biso   1.000  C
  C91      1.0000 0.74483  0.93727  0.24727  Biso   1.000  C
  H23      1.0000 0.74293  0.98037  0.25897  Biso   1.000  H
  C92      1.0000 0.71943  0.80407  0.32127  Biso   1.000  C
  C93      1.0000 0.64263  0.76537  0.30967  Biso   1.000  C
  C94      1.0000 0.61513  0.67437  0.30807  Biso   1.000  C
  O47      1.0000 0.82663  0.75687  0.30997  Biso   1.000  O
  C95      1.0000 0.76593  0.75727  0.32717  Biso   1.000  C
  O48      1.0000 0.60063  0.62767  0.28327  Biso   1.000  O
  C96      1.0000 0.71833  0.92597  0.24347  Biso   1.000  C
  H24      1.0000 0.70183  0.96167  0.25327  Biso   1.000  H
  O49      1.0000 0.89135  0.52038  0.49969  Biso   1.000  O
  O50      1.0000 0.97543  0.56224  0.54510  Biso   1.000  O
  C97      1.0000 0.91110  0.55020  0.52885  Biso   1.000  C
  C98      1.0000 0.85120  0.57110  0.54614  Biso   1.000  C
  C99      1.0000 0.85910  0.58850  0.58060  Biso   1.000  C
  H25      1.0000 0.90410  0.59040  0.59230  Biso   1.000  H
  C100     1.0000 0.75130  0.61390  0.65460  Biso   1.000  C
  C101     1.0000 0.78940  0.69070  0.64300  Biso   1.000  C
  C102     1.0000 0.72590  0.71820  0.64140  Biso   1.000  C
  O51      1.0000 0.59690  0.50670  0.64330  Biso   1.000  O
  C103     1.0000 0.65800  0.56740  0.66050  Biso   1.000  C
  O52      1.0000 0.69370  0.73270  0.61660  Biso   1.000  O
  C104     1.0000 0.87430  0.61500  0.57680  Biso   1.000  C
  H26      1.0000 0.92650  0.63150  0.58660  Biso   1.000  H
  O53      1.0000 0.55802  0.85371  0.83302  Biso   1.000  O
  O54      1.0000 0.64210  0.89557  0.87843  Biso   1.000  O
  C105     1.0000 0.57777  0.88353  0.86218  Biso   1.000  C
  C106     1.0000 0.51787  0.90443  0.87947  Biso   1.000  C
  C107     1.0000 0.52577  0.92183  0.91393  Biso   1.000  C
  H27      1.0000 0.57077  0.92373  0.92563  Biso   1.000  H
  C108     1.0000 0.41797  0.94723  0.98793  Biso   1.000  C
  C109     1.0000 0.45607  0.02403  0.97633  Biso   1.000  C
  C110     1.0000 0.39257  0.05153  0.97473  Biso   1.000  C
  O55      1.0000 0.26357  0.84003  0.97663  Biso   1.000  O
  C111     1.0000 0.32467  0.90073  0.99383  Biso   1.000  C
  O56      1.0000 0.36037  0.06603  0.94993  Biso   1.000  O
  C112     1.0000 0.54097  0.94833  0.91013  Biso   1.000  C
  H28      1.0000 0.59317  0.96483  0.91993  Biso   1.000  H
  O57      1.0000 0.22468  0.18705  0.16636  Biso   1.000  O
  O58      1.0000 0.30876  0.22891  0.21177  Biso   1.000  O
  C113     1.0000 0.24443  0.21687  0.19552  Biso   1.000  C
  C114     1.0000 0.18453  0.23777  0.21281  Biso   1.000  C
  C115     1.0000 0.19243  0.25517  0.24727  Biso   1.000  C
  H29      1.0000 0.23743  0.25707  0.25897  Biso   1.000  H
  C116     1.0000 0.08463  0.28057  0.32127  Biso   1.000  C
  C117     1.0000 0.12273  0.35737  0.30967  Biso   1.000  C
  C118     1.0000 0.05923  0.38487  0.30807  Biso   1.000  C
  O59      1.0000 0.93023  0.17337  0.30997  Biso   1.000  O
  C119     1.0000 0.99133  0.23407  0.32717  Biso   1.000  C
  O60      1.0000 0.02703  0.39937  0.28327  Biso   1.000  O
  C120     1.0000 0.20763  0.28167  0.24347  Biso   1.000  C
  H30      1.0000 0.25983  0.29817  0.25327  Biso   1.000  H
  O61      1.0000 0.62903  0.10865  0.49969  Biso   1.000  O
  O62      1.0000 0.58681  0.02457  0.54510  Biso   1.000  O
  C121     1.0000 0.63910  0.08890  0.52885  Biso   1.000  C
  C122     1.0000 0.71990  0.14880  0.54614  Biso   1.000  C
  C123     1.0000 0.72940  0.14090  0.58060  Biso   1.000  C
  H31      1.0000 0.68630  0.09590  0.59230  Biso   1.000  H
  C124     1.0000 0.86260  0.24870  0.65460  Biso   1.000  C
  C125     1.0000 0.90130  0.21060  0.64300  Biso   1.000  C
  C126     1.0000 0.99230  0.27410  0.64140  Biso   1.000  C
  O63      1.0000 0.90980  0.40310  0.64330  Biso   1.000  O
  C127     1.0000 0.90940  0.34200  0.66050  Biso   1.000  C
  O64      1.0000 0.03900  0.30630  0.61660  Biso   1.000  O
  C128     1.0000 0.74070  0.12570  0.57680  Biso   1.000  C
  H32      1.0000 0.70500  0.07350  0.58660  Biso   1.000  H
  O65      1.0000 0.29570  0.44198  0.83302  Biso   1.000  O
  O66      1.0000 0.25348  0.35790  0.87843  Biso   1.000  O
  C129     1.0000 0.30577  0.42223  0.86218  Biso   1.000  C
  C130     1.0000 0.38657  0.48213  0.87947  Biso   1.000  C
  C131     1.0000 0.39607  0.47423  0.91393  Biso   1.000  C
  H33      1.0000 0.35297  0.42923  0.92563  Biso   1.000  H
  C132     1.0000 0.52927  0.58203  0.98793  Biso   1.000  C
  C133     1.0000 0.56797  0.54393  0.97633  Biso   1.000  C
  C134     1.0000 0.65897  0.60743  0.97473  Biso   1.000  C
  O67      1.0000 0.57647  0.73643  0.97663  Biso   1.000  O
  C135     1.0000 0.57607  0.67533  0.99383  Biso   1.000  C
  O68      1.0000 0.70567  0.63963  0.94993  Biso   1.000  O
  C136     1.0000 0.40737  0.45903  0.91013  Biso   1.000  C
  H34      1.0000 0.37167  0.40683  0.91993  Biso   1.000  H
  O69      1.0000 0.96236  0.77532  0.16636  Biso   1.000  O
  O70      1.0000 0.92014  0.69124  0.21177  Biso   1.000  O
  C137     1.0000 0.97243  0.75557  0.19552  Biso   1.000  C
  C138     1.0000 0.05323  0.81547  0.21281  Biso   1.000  C
  C139     1.0000 0.06273  0.80757  0.24727  Biso   1.000  C
  H35      1.0000 0.01963  0.76257  0.25897  Biso   1.000  H
  C140     1.0000 0.19593  0.91537  0.32127  Biso   1.000  C
  C141     1.0000 0.23463  0.87727  0.30967  Biso   1.000  C
  C142     1.0000 0.32563  0.94077  0.30807  Biso   1.000  C
  O71      1.0000 0.24313  0.06977  0.30997  Biso   1.000  O
  C143     1.0000 0.24273  0.00867  0.32717  Biso   1.000  C
  O72      1.0000 0.37233  0.97297  0.28327  Biso   1.000  O
  C144     1.0000 0.07403  0.79237  0.24347  Biso   1.000  C
  H36      1.0000 0.03833  0.74017  0.25327  Biso   1.000  H
  O73      1.0000 0.62903  0.52038  0.49969  Biso   1.000  O
  O74      1.0000 0.58681  0.56224  0.54510  Biso   1.000  O
  C145     1.0000 0.63910  0.55020  0.52885  Biso   1.000  C
  C146     1.0000 0.71990  0.57110  0.54614  Biso   1.000  C
  C147     1.0000 0.72940  0.58850  0.58060  Biso   1.000  C
  H37      1.0000 0.68630  0.59040  0.59230  Biso   1.000  H
  C148     1.0000 0.86260  0.61390  0.65460  Biso   1.000  C
  C149     1.0000 0.90130  0.69070  0.64300  Biso   1.000  C
  C150     1.0000 0.99230  0.71820  0.64140  Biso   1.000  C
  O75      1.0000 0.90980  0.50670  0.64330  Biso   1.000  O
  C151     1.0000 0.90940  0.56740  0.66050  Biso   1.000  C
  O76      1.0000 0.03900  0.73270  0.61660  Biso   1.000  O
  C152     1.0000 0.74070  0.61500  0.57680  Biso   1.000  C
  H38      1.0000 0.70500  0.63150  0.58660  Biso   1.000  H
  O77      1.0000 0.29570  0.85371  0.83302  Biso   1.000  O
  O78      1.0000 0.25348  0.89557  0.87843  Biso   1.000  O
  C153     1.0000 0.30577  0.88353  0.86218  Biso   1.000  C
  C154     1.0000 0.38657  0.90443  0.87947  Biso   1.000  C
  C155     1.0000 0.39607  0.92183  0.91393  Biso   1.000  C
  H39      1.0000 0.35297  0.92373  0.92563  Biso   1.000  H
  C156     1.0000 0.52927  0.94723  0.98793  Biso   1.000  C
  C157     1.0000 0.56797  0.02403  0.97633  Biso   1.000  C
  C158     1.0000 0.65897  0.05153  0.97473  Biso   1.000  C
  O79      1.0000 0.57647  0.84003  0.97663  Biso   1.000  O
  C159     1.0000 0.57607  0.90073  0.99383  Biso   1.000  C
  O80      1.0000 0.70567  0.06603  0.94993  Biso   1.000  O
  C160     1.0000 0.40737  0.94833  0.91013  Biso   1.000  C
  H40      1.0000 0.37167  0.96483  0.91993  Biso   1.000  H
  O81      1.0000 0.96236  0.18705  0.16636  Biso   1.000  O
  O82      1.0000 0.92014  0.22891  0.21177  Biso   1.000  O
  C161     1.0000 0.97243  0.21687  0.19552  Biso   1.000  C
  C162     1.0000 0.05323  0.23777  0.21281  Biso   1.000  C
  C163     1.0000 0.06273  0.25517  0.24727  Biso   1.000  C
  H41      1.0000 0.01963  0.25707  0.25897  Biso   1.000  H
  C164     1.0000 0.19593  0.28057  0.32127  Biso   1.000  C
  C165     1.0000 0.23463  0.35737  0.30967  Biso   1.000  C
  C166     1.0000 0.32563  0.38487  0.30807  Biso   1.000  C
  O83      1.0000 0.24313  0.17337  0.30997  Biso   1.000  O
  C167     1.0000 0.24273  0.23407  0.32717  Biso   1.000  C
  O84      1.0000 0.37233  0.39937  0.28327  Biso   1.000  O
  C168     1.0000 0.07403  0.28167  0.24347  Biso   1.000  C
  H42      1.0000 0.03833  0.29817  0.25327  Biso   1.000  H
  O85      1.0000 0.47962  0.10865  0.49969  Biso   1.000  O
  O86      1.0000 0.43776  0.02457  0.54510  Biso   1.000  O
  C169     1.0000 0.44980  0.08890  0.52885  Biso   1.000  C
  C170     1.0000 0.42890  0.14880  0.54614  Biso   1.000  C
  C171     1.0000 0.41150  0.14090  0.58060  Biso   1.000  C
  H43      1.0000 0.40960  0.09590  0.59230  Biso   1.000  H
  C172     1.0000 0.38610  0.24870  0.65460  Biso   1.000  C
  C173     1.0000 0.30930  0.21060  0.64300  Biso   1.000  C
  C174     1.0000 0.28180  0.27410  0.64140  Biso   1.000  C
  O87      1.0000 0.49330  0.40310  0.64330  Biso   1.000  O
  C175     1.0000 0.43260  0.34200  0.66050  Biso   1.000  C
  O88      1.0000 0.26730  0.30630  0.61660  Biso   1.000  O
  C176     1.0000 0.38500  0.12570  0.57680  Biso   1.000  C
  H44      1.0000 0.36850  0.07350  0.58660  Biso   1.000  H
  O89      1.0000 0.14629  0.44198  0.83302  Biso   1.000  O
  O90      1.0000 0.10443  0.35790  0.87843  Biso   1.000  O
  C177     1.0000 0.11647  0.42223  0.86218  Biso   1.000  C
  C178     1.0000 0.09557  0.48213  0.87947  Biso   1.000  C
  C179     1.0000 0.07817  0.47423  0.91393  Biso   1.000  C
  H45      1.0000 0.07627  0.42923  0.92563  Biso   1.000  H
  C180     1.0000 0.05277  0.58203  0.98793  Biso   1.000  C
  C181     1.0000 0.97597  0.54393  0.97633  Biso   1.000  C
  C182     1.0000 0.94847  0.60743  0.97473  Biso   1.000  C
  O91      1.0000 0.15997  0.73643  0.97663  Biso   1.000  O
  C183     1.0000 0.09927  0.67533  0.99383  Biso   1.000  C
  O92      1.0000 0.93397  0.63963  0.94993  Biso   1.000  O
  C184     1.0000 0.05167  0.45903  0.91013  Biso   1.000  C
  H46      1.0000 0.03517  0.40683  0.91993  Biso   1.000  H
  O93      1.0000 0.81295  0.77532  0.16636  Biso   1.000  O
  O94      1.0000 0.77109  0.69124  0.21177  Biso   1.000  O
  C185     1.0000 0.78313  0.75557  0.19552  Biso   1.000  C
  C186     1.0000 0.76223  0.81547  0.21281  Biso   1.000  C
  C187     1.0000 0.74483  0.80757  0.24727  Biso   1.000  C
  H47      1.0000 0.74293  0.76257  0.25897  Biso   1.000  H
  C188     1.0000 0.71943  0.91537  0.32127  Biso   1.000  C
  C189     1.0000 0.64263  0.87727  0.30967  Biso   1.000  C
  C190     1.0000 0.61513  0.94077  0.30807  Biso   1.000  C
  O95      1.0000 0.82663  0.06977  0.30997  Biso   1.000  O
  C191     1.0000 0.76593  0.00867  0.32717  Biso   1.000  C
  O96      1.0000 0.60063  0.97297  0.28327  Biso   1.000  O
  C192     1.0000 0.71833  0.79237  0.24347  Biso   1.000  C
  H48      1.0000 0.70183  0.74017  0.25327  Biso   1.000  H
  O97      1.0000 0.89135  0.37097  0.49969  Biso   1.000  O
  O98      1.0000 0.97543  0.41319  0.54510  Biso   1.000  O
  C193     1.0000 0.91110  0.36090  0.52885  Biso   1.000  C
  C194     1.0000 0.85120  0.28010  0.54614  Biso   1.000  C
  C195     1.0000 0.85910  0.27060  0.58060  Biso   1.000  C
  H49      1.0000 0.90410  0.31370  0.59230  Biso   1.000  H
  C196     1.0000 0.75130  0.13740  0.65460  Biso   1.000  C
  C197     1.0000 0.78940  0.09870  0.64300  Biso   1.000  C
  C198     1.0000 0.72590  0.00770  0.64140  Biso   1.000  C
  O99      1.0000 0.59690  0.09020  0.64330  Biso   1.000  O
  C199     1.0000 0.65800  0.09060  0.66050  Biso   1.000  C
  O100     1.0000 0.69370  0.96100  0.61660  Biso   1.000  O
  C200     1.0000 0.87430  0.25930  0.57680  Biso   1.000  C
  H50      1.0000 0.92650  0.29500  0.58660  Biso   1.000  H
  O101     1.0000 0.55802  0.70430  0.83302  Biso   1.000  O
  O102     1.0000 0.64210  0.74652  0.87843  Biso   1.000  O
  C201     1.0000 0.57777  0.69423  0.86218  Biso   1.000  C
  C202     1.0000 0.51787  0.61343  0.87947  Biso   1.000  C
  C203     1.0000 0.52577  0.60393  0.91393  Biso   1.000  C
  H51      1.0000 0.57077  0.64703  0.92563  Biso   1.000  H
  C204     1.0000 0.41797  0.47073  0.98793  Biso   1.000  C
  C205     1.0000 0.45607  0.43203  0.97633  Biso   1.000  C
  C206     1.0000 0.39257  0.34103  0.97473  Biso   1.000  C
  O103     1.0000 0.26357  0.42353  0.97663  Biso   1.000  O
  C207     1.0000 0.32467  0.42393  0.99383  Biso   1.000  C
  O104     1.0000 0.36037  0.29433  0.94993  Biso   1.000  O
  C208     1.0000 0.54097  0.59263  0.91013  Biso   1.000  C
  H52      1.0000 0.59317  0.62833  0.91993  Biso   1.000  H
  O105     1.0000 0.22468  0.03764  0.16636  Biso   1.000  O
  O106     1.0000 0.30876  0.07986  0.21177  Biso   1.000  O
  C209     1.0000 0.24443  0.02757  0.19552  Biso   1.000  C
  C210     1.0000 0.18453  0.94677  0.21281  Biso   1.000  C
  C211     1.0000 0.19243  0.93727  0.24727  Biso   1.000  C
  H53      1.0000 0.23743  0.98037  0.25897  Biso   1.000  H
  C212     1.0000 0.08463  0.80407  0.32127  Biso   1.000  C
  C213     1.0000 0.12273  0.76537  0.30967  Biso   1.000  C
  C214     1.0000 0.05923  0.67437  0.30807  Biso   1.000  C
  O107     1.0000 0.93023  0.75687  0.30997  Biso   1.000  O
  C215     1.0000 0.99133  0.75727  0.32717  Biso   1.000  C
  O108     1.0000 0.02703  0.62767  0.28327  Biso   1.000  O
  C216     1.0000 0.20763  0.92597  0.24347  Biso   1.000  C
  H54      1.0000 0.25983  0.96167  0.25327  Biso   1.000  H
  O109     1.0000 0.52038  0.62903  0.50031  Biso   1.000  O
  O110     1.0000 0.56224  0.58681  0.45490  Biso   1.000  O
  C217     1.0000 0.55020  0.63910  0.47115  Biso   1.000  C
  C218     1.0000 0.57110  0.71990  0.45386  Biso   1.000  C
  C219     1.0000 0.58850  0.72940  0.41940  Biso   1.000  C
  H55      1.0000 0.59040  0.68630  0.40770  Biso   1.000  H
  C220     1.0000 0.61390  0.86260  0.34540  Biso   1.000  C
  C221     1.0000 0.69070  0.90130  0.35700  Biso   1.000  C
  C222     1.0000 0.71820  0.99230  0.35860  Biso   1.000  C
  O111     1.0000 0.50670  0.90980  0.35670  Biso   1.000  O
  C223     1.0000 0.56740  0.90940  0.33950  Biso   1.000  C
  O112     1.0000 0.73270  0.03900  0.38340  Biso   1.000  O
  C224     1.0000 0.61500  0.74070  0.42320  Biso   1.000  C
  H56      1.0000 0.63150  0.70500  0.41340  Biso   1.000  H
  O113     1.0000 0.18705  0.96236  0.83364  Biso   1.000  O
  O114     1.0000 0.22891  0.92014  0.78823  Biso   1.000  O
  C225     1.0000 0.21687  0.97243  0.80448  Biso   1.000  C
  C226     1.0000 0.23777  0.05323  0.78719  Biso   1.000  C
  C227     1.0000 0.25517  0.06273  0.75273  Biso   1.000  C
  H57      1.0000 0.25707  0.01963  0.74103  Biso   1.000  H
  C228     1.0000 0.28057  0.19593  0.67873  Biso   1.000  C
  C229     1.0000 0.35737  0.23463  0.69033  Biso   1.000  C
  C230     1.0000 0.38487  0.32563  0.69193  Biso   1.000  C
  O115     1.0000 0.17337  0.24313  0.69003  Biso   1.000  O
  C231     1.0000 0.23407  0.24273  0.67283  Biso   1.000  C
  O116     1.0000 0.39937  0.37233  0.71673  Biso   1.000  O
  C232     1.0000 0.28167  0.07403  0.75653  Biso   1.000  C
  H58      1.0000 0.29817  0.03833  0.74673  Biso   1.000  H
  O117     1.0000 0.85371  0.29570  0.16698  Biso   1.000  O
  O118     1.0000 0.89557  0.25348  0.12157  Biso   1.000  O
  C233     1.0000 0.88353  0.30577  0.13782  Biso   1.000  C
  C234     1.0000 0.90443  0.38657  0.12053  Biso   1.000  C
  C235     1.0000 0.92183  0.39607  0.08607  Biso   1.000  C
  H59      1.0000 0.92373  0.35297  0.07437  Biso   1.000  H
  C236     1.0000 0.94723  0.52927  0.01207  Biso   1.000  C
  C237     1.0000 0.02403  0.56797  0.02367  Biso   1.000  C
  C238     1.0000 0.05153  0.65897  0.02527  Biso   1.000  C
  O119     1.0000 0.84003  0.57647  0.02337  Biso   1.000  O
  C239     1.0000 0.90073  0.57607  0.00617  Biso   1.000  C
  O120     1.0000 0.06603  0.70567  0.05007  Biso   1.000  O
  C240     1.0000 0.94833  0.40737  0.08987  Biso   1.000  C
  H60      1.0000 0.96483  0.37167  0.08007  Biso   1.000  H
  O121     1.0000 0.10865  0.47962  0.50031  Biso   1.000  O
  O122     1.0000 0.02457  0.43776  0.45490  Biso   1.000  O
  C241     1.0000 0.08890  0.44980  0.47115  Biso   1.000  C
  C242     1.0000 0.14880  0.42890  0.45386  Biso   1.000  C
  C243     1.0000 0.14090  0.41150  0.41940  Biso   1.000  C
  H61      1.0000 0.09590  0.40960  0.40770  Biso   1.000  H
  C244     1.0000 0.24870  0.38610  0.34540  Biso   1.000  C
  C245     1.0000 0.21060  0.30930  0.35700  Biso   1.000  C
  C246     1.0000 0.27410  0.28180  0.35860  Biso   1.000  C
  O123     1.0000 0.40310  0.49330  0.35670  Biso   1.000  O
  C247     1.0000 0.34200  0.43260  0.33950  Biso   1.000  C
  O124     1.0000 0.30630  0.26730  0.38340  Biso   1.000  O
  C248     1.0000 0.12570  0.38500  0.42320  Biso   1.000  C
  H62      1.0000 0.07350  0.36850  0.41340  Biso   1.000  H
  O125     1.0000 0.77532  0.81295  0.83364  Biso   1.000  O
  O126     1.0000 0.69124  0.77109  0.78823  Biso   1.000  O
  C249     1.0000 0.75557  0.78313  0.80448  Biso   1.000  C
  C250     1.0000 0.81547  0.76223  0.78719  Biso   1.000  C
  C251     1.0000 0.80757  0.74483  0.75273  Biso   1.000  C
  H63      1.0000 0.76257  0.74293  0.74103  Biso   1.000  H
  C252     1.0000 0.91537  0.71943  0.67873  Biso   1.000  C
  C253     1.0000 0.87727  0.64263  0.69033  Biso   1.000  C
  C254     1.0000 0.94077  0.61513  0.69193  Biso   1.000  C
  O127     1.0000 0.06977  0.82663  0.69003  Biso   1.000  O
  C255     1.0000 0.00867  0.76593  0.67283  Biso   1.000  C
  O128     1.0000 0.97297  0.60063  0.71673  Biso   1.000  O
  C256     1.0000 0.79237  0.71833  0.75653  Biso   1.000  C
  H64      1.0000 0.74017  0.70183  0.74673  Biso   1.000  H
  O129     1.0000 0.44198  0.14629  0.16698  Biso   1.000  O
  O130     1.0000 0.35790  0.10443  0.12157  Biso   1.000  O
  C257     1.0000 0.42223  0.11647  0.13782  Biso   1.000  C
  C258     1.0000 0.48213  0.09557  0.12053  Biso   1.000  C
  C259     1.0000 0.47423  0.07817  0.08607  Biso   1.000  C
  H65      1.0000 0.42923  0.07627  0.07437  Biso   1.000  H
  C260     1.0000 0.58203  0.05277  0.01207  Biso   1.000  C
  C261     1.0000 0.54393  0.97597  0.02367  Biso   1.000  C
  C262     1.0000 0.60743  0.94847  0.02527  Biso   1.000  C
  O131     1.0000 0.73643  0.15997  0.02337  Biso   1.000  O
  C263     1.0000 0.67533  0.09927  0.00617  Biso   1.000  C
  O132     1.0000 0.63963  0.93397  0.05007  Biso   1.000  O
  C264     1.0000 0.45903  0.05167  0.08987  Biso   1.000  C
  H66      1.0000 0.40683  0.03517  0.08007  Biso   1.000  H
  O133     1.0000 0.37097  0.89135  0.50031  Biso   1.000  O
  O134     1.0000 0.41319  0.97543  0.45490  Biso   1.000  O
  C265     1.0000 0.36090  0.91110  0.47115  Biso   1.000  C
  C266     1.0000 0.28010  0.85120  0.45386  Biso   1.000  C
  C267     1.0000 0.27060  0.85910  0.41940  Biso   1.000  C
  H67      1.0000 0.31370  0.90410  0.40770  Biso   1.000  H
  C268     1.0000 0.13740  0.75130  0.34540  Biso   1.000  C
  C269     1.0000 0.09870  0.78940  0.35700  Biso   1.000  C
  C270     1.0000 0.00770  0.72590  0.35860  Biso   1.000  C
  O135     1.0000 0.09020  0.59690  0.35670  Biso   1.000  O
  C271     1.0000 0.09060  0.65800  0.33950  Biso   1.000  C
  O136     1.0000 0.96100  0.69370  0.38340  Biso   1.000  O
  C272     1.0000 0.25930  0.87430  0.42320  Biso   1.000  C
  H68      1.0000 0.29500  0.92650  0.41340  Biso   1.000  H
  O137     1.0000 0.03764  0.22468  0.83364  Biso   1.000  O
  O138     1.0000 0.07986  0.30876  0.78823  Biso   1.000  O
  C273     1.0000 0.02757  0.24443  0.80448  Biso   1.000  C
  C274     1.0000 0.94677  0.18453  0.78719  Biso   1.000  C
  C275     1.0000 0.93727  0.19243  0.75273  Biso   1.000  C
  H69      1.0000 0.98037  0.23743  0.74103  Biso   1.000  H
  C276     1.0000 0.80407  0.08463  0.67873  Biso   1.000  C
  C277     1.0000 0.76537  0.12273  0.69033  Biso   1.000  C
  C278     1.0000 0.67437  0.05923  0.69193  Biso   1.000  C
  O139     1.0000 0.75687  0.93023  0.69003  Biso   1.000  O
  C279     1.0000 0.75727  0.99133  0.67283  Biso   1.000  C
  O140     1.0000 0.62767  0.02703  0.71673  Biso   1.000  O
  C280     1.0000 0.92597  0.20763  0.75653  Biso   1.000  C
  H70      1.0000 0.96167  0.25983  0.74673  Biso   1.000  H
  O141     1.0000 0.70430  0.55802  0.16698  Biso   1.000  O
  O142     1.0000 0.74652  0.64210  0.12157  Biso   1.000  O
  C281     1.0000 0.69423  0.57777  0.13782  Biso   1.000  C
  C282     1.0000 0.61343  0.51787  0.12053  Biso   1.000  C
  C283     1.0000 0.60393  0.52577  0.08607  Biso   1.000  C
  H71      1.0000 0.64703  0.57077  0.07437  Biso   1.000  H
  C284     1.0000 0.47073  0.41797  0.01207  Biso   1.000  C
  C285     1.0000 0.43203  0.45607  0.02367  Biso   1.000  C
  C286     1.0000 0.34103  0.39257  0.02527  Biso   1.000  C
  O143     1.0000 0.42353  0.26357  0.02337  Biso   1.000  O
  C287     1.0000 0.42393  0.32467  0.00617  Biso   1.000  C
  O144     1.0000 0.29433  0.36037  0.05007  Biso   1.000  O
  C288     1.0000 0.59263  0.54097  0.08987  Biso   1.000  C
  H72      1.0000 0.62833  0.59317  0.08007  Biso   1.000  H
  Cu1      1.0000 0.47491  0.52509  0.52642  Biso   1.000  Cu
  Cu2      1.0000 0.14158  0.85842  0.85975  Biso   1.000  Cu
  Cu3      1.0000 0.80824  0.19176  0.19309  Biso   1.000  Cu
  Cu4      1.0000 0.47491  0.94982  0.52642  Biso   1.000  Cu
  Cu5      1.0000 0.14158  0.28315  0.85975  Biso   1.000  Cu
  Cu6      1.0000 0.80824  0.61649  0.19309  Biso   1.000  Cu
  Cu7      1.0000 0.05018  0.52509  0.52642  Biso   1.000  Cu
  Cu8      1.0000 0.71685  0.85842  0.85975  Biso   1.000  Cu
  Cu9      1.0000 0.38351  0.19176  0.19309  Biso   1.000  Cu
  Cu10     1.0000 0.52509  0.47491  0.47358  Biso   1.000  Cu
  Cu11     1.0000 0.19176  0.80824  0.80691  Biso   1.000  Cu
  Cu12     1.0000 0.85842  0.14158  0.14025  Biso   1.000  Cu
  Cu13     1.0000 0.94982  0.47491  0.47358  Biso   1.000  Cu
  Cu14     1.0000 0.61649  0.80824  0.80691  Biso   1.000  Cu
  Cu15     1.0000 0.28315  0.14158  0.14025  Biso   1.000  Cu
  Cu16     1.0000 0.52509  0.05018  0.47358  Biso   1.000  Cu
  Cu17     1.0000 0.19176  0.38351  0.80691  Biso   1.000  Cu
  Cu18     1.0000 0.85842  0.71685  0.14025  Biso   1.000  Cu
  C289     1.0000 0.22155  0.44310  0.47041  Biso   1.000  C
  H73      1.0000 0.23105  0.46210  0.49260  Biso   1.000  H
  N1       1.0000 0.18925  0.37850  0.36680  Biso   1.000  N
  C290     1.0000 0.19850  0.39700  0.40190  Biso   1.000  C
  N2       1.0000 0.16840  0.33680  0.37430  Biso   1.000  N
  C291     1.0000 0.18345  0.36690  0.40800  Biso   1.000  C
  C292     1.0000 0.88822  0.77643  0.80374  Biso   1.000  C
  H74      1.0000 0.89772  0.79543  0.82593  Biso   1.000  H
  N3       1.0000 0.85592  0.71183  0.70013  Biso   1.000  N
  C293     1.0000 0.86517  0.73033  0.73523  Biso   1.000  C
  N4       1.0000 0.83507  0.67013  0.70763  Biso   1.000  N
  C294     1.0000 0.85012  0.70023  0.74133  Biso   1.000  C
  C295     1.0000 0.55488  0.10977  0.13708  Biso   1.000  C
  H75      1.0000 0.56438  0.12877  0.15927  Biso   1.000  H
  N5       1.0000 0.52258  0.04517  0.03347  Biso   1.000  N
  C296     1.0000 0.53183  0.06367  0.06857  Biso   1.000  C
  N6       1.0000 0.50173  0.00347  0.04097  Biso   1.000  N
  C297     1.0000 0.51678  0.03357  0.07467  Biso   1.000  C
  C298     1.0000 0.55690  0.77845  0.47041  Biso   1.000  C
  H76      1.0000 0.53790  0.76895  0.49260  Biso   1.000  H
  N7       1.0000 0.62150  0.81075  0.36680  Biso   1.000  N
  C299     1.0000 0.60300  0.80150  0.40190  Biso   1.000  C
  N8       1.0000 0.66320  0.83160  0.37430  Biso   1.000  N
  C300     1.0000 0.63310  0.81655  0.40800  Biso   1.000  C
  C301     1.0000 0.22357  0.11178  0.80374  Biso   1.000  C
  H77      1.0000 0.20457  0.10228  0.82593  Biso   1.000  H
  N9       1.0000 0.28817  0.14408  0.70013  Biso   1.000  N
  C302     1.0000 0.26967  0.13483  0.73523  Biso   1.000  C
  N10      1.0000 0.32987  0.16493  0.70763  Biso   1.000  N
  C303     1.0000 0.29977  0.14988  0.74133  Biso   1.000  C
  C304     1.0000 0.89023  0.44512  0.13708  Biso   1.000  C
  H78      1.0000 0.87123  0.43562  0.15927  Biso   1.000  H
  N11      1.0000 0.95483  0.47742  0.03347  Biso   1.000  N
  C305     1.0000 0.93633  0.46817  0.06857  Biso   1.000  C
  N12      1.0000 0.99653  0.49827  0.04097  Biso   1.000  N
  C306     1.0000 0.96643  0.48322  0.07467  Biso   1.000  C
  C307     1.0000 0.22155  0.77845  0.47041  Biso   1.000  C
  H79      1.0000 0.23105  0.76895  0.49260  Biso   1.000  H
  N13      1.0000 0.18925  0.81075  0.36680  Biso   1.000  N
  C308     1.0000 0.19850  0.80150  0.40190  Biso   1.000  C
  N14      1.0000 0.16840  0.83160  0.37430  Biso   1.000  N
  C309     1.0000 0.18345  0.81655  0.40800  Biso   1.000  C
  C310     1.0000 0.88822  0.11178  0.80374  Biso   1.000  C
  H80      1.0000 0.89772  0.10228  0.82593  Biso   1.000  H
  N15      1.0000 0.85592  0.14408  0.70013  Biso   1.000  N
  C311     1.0000 0.86517  0.13483  0.73523  Biso   1.000  C
  N16      1.0000 0.83507  0.16493  0.70763  Biso   1.000  N
  C312     1.0000 0.85012  0.14988  0.74133  Biso   1.000  C
  C313     1.0000 0.55488  0.44512  0.13708  Biso   1.000  C
  H81      1.0000 0.56438  0.43562  0.15927  Biso   1.000  H
  N17      1.0000 0.52258  0.47742  0.03347  Biso   1.000  N
  C314     1.0000 0.53183  0.46817  0.06857  Biso   1.000  C
  N18      1.0000 0.50173  0.49827  0.04097  Biso   1.000  N
  C315     1.0000 0.51678  0.48322  0.07467  Biso   1.000  C
  C316     1.0000 0.44310  0.22155  0.52959  Biso   1.000  C
  H82      1.0000 0.46210  0.23105  0.50740  Biso   1.000  H
  N19      1.0000 0.37850  0.18925  0.63320  Biso   1.000  N
  C317     1.0000 0.39700  0.19850  0.59810  Biso   1.000  C
  N20      1.0000 0.33680  0.16840  0.62570  Biso   1.000  N
  C318     1.0000 0.36690  0.18345  0.59200  Biso   1.000  C
  C319     1.0000 0.10977  0.55488  0.86292  Biso   1.000  C
  H83      1.0000 0.12877  0.56438  0.84073  Biso   1.000  H
  N21      1.0000 0.04517  0.52258  0.96653  Biso   1.000  N
  C320     1.0000 0.06367  0.53183  0.93143  Biso   1.000  C
  N22      1.0000 0.00347  0.50173  0.95903  Biso   1.000  N
  C321     1.0000 0.03357  0.51678  0.92533  Biso   1.000  C
  C322     1.0000 0.77643  0.88822  0.19626  Biso   1.000  C
  H84      1.0000 0.79543  0.89772  0.17407  Biso   1.000  H
  N23      1.0000 0.71183  0.85592  0.29987  Biso   1.000  N
  C323     1.0000 0.73033  0.86517  0.26477  Biso   1.000  C
  N24      1.0000 0.67013  0.83507  0.29237  Biso   1.000  N
  C324     1.0000 0.70023  0.85012  0.25867  Biso   1.000  C
  C325     1.0000 0.77845  0.55690  0.52959  Biso   1.000  C
  H85      1.0000 0.76895  0.53790  0.50740  Biso   1.000  H
  N25      1.0000 0.81075  0.62150  0.63320  Biso   1.000  N
  C326     1.0000 0.80150  0.60300  0.59810  Biso   1.000  C
  N26      1.0000 0.83160  0.66320  0.62570  Biso   1.000  N
  C327     1.0000 0.81655  0.63310  0.59200  Biso   1.000  C
  C328     1.0000 0.44512  0.89023  0.86292  Biso   1.000  C
  H86      1.0000 0.43562  0.87123  0.84073  Biso   1.000  H
  N27      1.0000 0.47742  0.95483  0.96653  Biso   1.000  N
  C329     1.0000 0.46817  0.93633  0.93143  Biso   1.000  C
  N28      1.0000 0.49827  0.99653  0.95903  Biso   1.000  N
  C330     1.0000 0.48322  0.96643  0.92533  Biso   1.000  C
  C331     1.0000 0.11178  0.22357  0.19626  Biso   1.000  C
  H87      1.0000 0.10228  0.20457  0.17407  Biso   1.000  H
  N29      1.0000 0.14408  0.28817  0.29987  Biso   1.000  N
  C332     1.0000 0.13483  0.26967  0.26477  Biso   1.000  C
  N30      1.0000 0.16493  0.32987  0.29237  Biso   1.000  N
  C333     1.0000 0.14988  0.29977  0.25867  Biso   1.000  C
  C334     1.0000 0.77845  0.22155  0.52959  Biso   1.000  C
  H88      1.0000 0.76895  0.23105  0.50740  Biso   1.000  H
  N31      1.0000 0.81075  0.18925  0.63320  Biso   1.000  N
  C335     1.0000 0.80150  0.19850  0.59810  Biso   1.000  C
  N32      1.0000 0.83160  0.16840  0.62570  Biso   1.000  N
  C336     1.0000 0.81655  0.18345  0.59200  Biso   1.000  C
  C337     1.0000 0.44512  0.55488  0.86292  Biso   1.000  C
  H89      1.0000 0.43562  0.56438  0.84073  Biso   1.000  H
  N33      1.0000 0.47742  0.52258  0.96653  Biso   1.000  N
  C338     1.0000 0.46817  0.53183  0.93143  Biso   1.000  C
  N34      1.0000 0.49827  0.50173  0.95903  Biso   1.000  N
  C339     1.0000 0.48322  0.51678  0.92533  Biso   1.000  C
  C340     1.0000 0.11178  0.88822  0.19626  Biso   1.000  C
  H90      1.0000 0.10228  0.89772  0.17407  Biso   1.000  H
  N35      1.0000 0.14408  0.85592  0.29987  Biso   1.000  N
  C341     1.0000 0.13483  0.86517  0.26477  Biso   1.000  C
  N36      1.0000 0.16493  0.83507  0.29237  Biso   1.000  N
  C342     1.0000 0.14988  0.85012  0.25867  Biso   1.000  C
  O145     1.0000 0.03152  0.33333  0.33333  Biso   1.000  O
  O146     1.0000 0.66667  0.69818  0.33333  Biso   1.000  O
  O147     1.0000 0.30182  0.96848  0.33333  Biso   1.000  O
  O148     1.0000 0.33333  0.03152  0.66667  Biso   1.000  O
  O149     1.0000 0.00000  0.36485  0.00000  Biso   1.000  O
  O150     1.0000 0.69818  0.66667  0.66667  Biso   1.000  O
  O151     1.0000 0.36485  0.00000  0.00000  Biso   1.000  O
  O152     1.0000 0.96848  0.30182  0.66667  Biso   1.000  O
  O153     1.0000 0.63515  0.63515  0.00000  Biso   1.000  O
  O154     1.0000 0.96848  0.66667  0.66667  Biso   1.000  O
  O155     1.0000 0.63515  0.00000  0.00000  Biso   1.000  O
  O156     1.0000 0.30182  0.33333  0.33333  Biso   1.000  O
  O157     1.0000 0.33333  0.30182  0.66667  Biso   1.000  O
  O158     1.0000 0.00000  0.63515  0.00000  Biso   1.000  O
  O159     1.0000 0.69818  0.03152  0.66667  Biso   1.000  O
  O160     1.0000 0.36485  0.36485  0.00000  Biso   1.000  O
  O161     1.0000 0.66667  0.96848  0.33333  Biso   1.000  O
  O162     1.0000 0.03152  0.69818  0.33333  Biso   1.000  O
