data_image0
_cell_length_a       25.569
_cell_length_b       25.569
_cell_length_c       16.707
_cell_angle_alpha    90
_cell_angle_beta     90
_cell_angle_gamma    90

_symmetry_space_group_name_H-M    "P 1"
_symmetry_int_tables_number       1

loop_
  _symmetry_equiv_pos_as_xyz
  'x, y, z'

loop_
  _atom_site_label
  _atom_site_occupancy
  _atom_site_fract_x
  _atom_site_fract_y
  _atom_site_fract_z
  _atom_site_thermal_displace_type
  _atom_site_B_iso_or_equiv
  _atom_site_type_symbol
  Co1      1.0000 0.06729  0.66047  0.59964  Biso   1.000  Co
  Co2      1.0000 0.00307  0.56336  0.68829  Biso   1.000  Co
  O1       1.0000 0.00310  0.69412  0.65538  Biso   1.000  O
  O2       1.0000 0.95391  0.62630  0.69768  Biso   1.000  O
  O3       1.0000 0.01951  0.58964  0.56701  Biso   1.000  O
  O4       1.0000 0.06935  0.61276  0.70283  Biso   1.000  O
  O5       1.0000 0.99697  0.55084  0.81402  Biso   1.000  O
  O6       1.0000 0.13343  0.61839  0.56721  Biso   1.000  O
  N1       1.0000 0.72045  0.88364  0.85026  Biso   1.000  N
  C1       1.0000 0.84503  0.78199  0.77200  Biso   1.000  C
  C2       1.0000 0.88770  0.69780  0.77700  Biso   1.000  C
  H1       1.0000 0.89500  0.66810  0.80710  Biso   1.000  H
  C3       1.0000 0.92295  0.71241  0.71900  Biso   1.000  C
  C4       1.0000 0.88100  0.79671  0.71530  Biso   1.000  C
  H2       1.0000 0.87920  0.83090  0.69310  Biso   1.000  H
  C5       1.0000 0.80202  0.81733  0.79830  Biso   1.000  C
  C6       1.0000 0.21611  0.54707  0.42810  Biso   1.000  C
  H3       1.0000 0.20220  0.55910  0.37870  Biso   1.000  H
  C7       1.0000 0.92020  0.76247  0.68950  Biso   1.000  C
  H4       1.0000 0.94450  0.77370  0.65180  Biso   1.000  H
  C8       1.0000 0.96366  0.67462  0.68822  Biso   1.000  C
  C9       1.0000 0.99365  0.59582  0.86490  Biso   1.000  C
  H5       1.0000 0.02460  0.61670  0.85880  Biso   1.000  H
  H6       1.0000 0.96360  0.61620  0.85040  Biso   1.000  H
  H7       1.0000 0.99050  0.58480  0.91960  Biso   1.000  H
  C10      1.0000 0.25735  0.51090  0.42840  Biso   1.000  C
  H8       1.0000 0.26690  0.49880  0.36560  Biso   1.000  H
  C11      1.0000 0.72020  0.83220  0.86160  Biso   1.000  C
  H9       1.0000 0.69080  0.81750  0.88810  Biso   1.000  H
  C12      1.0000 0.76000  0.79820  0.83740  Biso   1.000  C
  H10      1.0000 0.75740  0.76180  0.84840  Biso   1.000  H
  C13      1.0000 0.80430  0.87260  0.78240  Biso   1.000  C
  H11      1.0000 0.83340  0.88780  0.75580  Biso   1.000  H
  C14      1.0000 0.76160  0.90340  0.80790  Biso   1.000  C
  H12      1.0000 0.76150  0.93960  0.79500  Biso   1.000  H
  C15      1.0000 0.84950  0.73170  0.80310  Biso   1.000  C
  H13      1.0000 0.82570  0.72050  0.84330  Biso   1.000  H
  C16      1.0000 0.32410  0.45890  0.48760  Biso   1.000  C
  C17      1.0000 0.36250  0.46720  0.42580  Biso   1.000  C
  H14      1.0000 0.35780  0.49460  0.38790  Biso   1.000  H
  C18      1.0000 0.40790  0.43410  0.42130  Biso   1.000  C
  H15      1.0000 0.43320  0.43950  0.38050  Biso   1.000  H
  N2       1.0000 0.41500  0.39270  0.47860  Biso   1.000  N
  C19      1.0000 0.37660  0.38440  0.54040  Biso   1.000  C
  H16      1.0000 0.38130  0.35710  0.57830  Biso   1.000  H
  C20      1.0000 0.33120  0.41750  0.54490  Biso   1.000  C
  H17      1.0000 0.30590  0.41210  0.58570  Biso   1.000  H
  C21      1.0000 0.73530  0.84080  0.89470  Biso   1.000  C
  H18      1.0000 0.71800  0.83430  0.94400  Biso   1.000  H
  C22      1.0000 0.77410  0.80730  0.87060  Biso   1.000  C
  H19      1.0000 0.78230  0.77740  0.90200  Biso   1.000  H
  C23      1.0000 0.78700  0.86000  0.75760  Biso   1.000  C
  H20      1.0000 0.80410  0.86860  0.70880  Biso   1.000  H
  C24      1.0000 0.74720  0.89180  0.78530  Biso   1.000  C
  H21      1.0000 0.73870  0.92190  0.75450  Biso   1.000  H
  C25      1.0000 0.32230  0.45040  0.53450  Biso   1.000  C
  C26      1.0000 0.35620  0.45600  0.59580  Biso   1.000  C
  H22      1.0000 0.35120  0.48320  0.63380  Biso   1.000  H
  C27      1.0000 0.39710  0.42310  0.60320  Biso   1.000  C
  H23      1.0000 0.42090  0.42700  0.64640  Biso   1.000  H
  N3       1.0000 0.40410  0.38440  0.54940  Biso   1.000  N
  C28      1.0000 0.37030  0.37880  0.48800  Biso   1.000  C
  H24      1.0000 0.37520  0.35160  0.45010  Biso   1.000  H
  C29      1.0000 0.32940  0.41170  0.48060  Biso   1.000  C
  H25      1.0000 0.30550  0.40770  0.43740  Biso   1.000  H
  H26      1.0000 0.03560  0.76370  0.44490  Biso   1.000  H
  H27      1.0000 0.00990  0.75810  0.53180  Biso   1.000  H
  H28      1.0000 0.07080  0.77130  0.52330  Biso   1.000  H
  Co3      1.0000 0.93271  0.33953  0.59964  Biso   1.000  Co
  Co4      1.0000 0.99693  0.43664  0.68829  Biso   1.000  Co
  O7       1.0000 0.99690  0.30588  0.65538  Biso   1.000  O
  O8       1.0000 0.04609  0.37370  0.69768  Biso   1.000  O
  O9       1.0000 0.98049  0.41036  0.56701  Biso   1.000  O
  O10      1.0000 0.93065  0.38724  0.70283  Biso   1.000  O
  O11      1.0000 0.00303  0.44916  0.81402  Biso   1.000  O
  O12      1.0000 0.86657  0.38161  0.56721  Biso   1.000  O
  N4       1.0000 0.27955  0.11636  0.85026  Biso   1.000  N
  C30      1.0000 0.15497  0.21801  0.77200  Biso   1.000  C
  C31      1.0000 0.11230  0.30220  0.77700  Biso   1.000  C
  H29      1.0000 0.10500  0.33190  0.80710  Biso   1.000  H
  C32      1.0000 0.07705  0.28759  0.71900  Biso   1.000  C
  C33      1.0000 0.11900  0.20329  0.71530  Biso   1.000  C
  H30      1.0000 0.12080  0.16910  0.69310  Biso   1.000  H
  C34      1.0000 0.19798  0.18267  0.79830  Biso   1.000  C
  C35      1.0000 0.78389  0.45293  0.42810  Biso   1.000  C
  H31      1.0000 0.79780  0.44090  0.37870  Biso   1.000  H
  C36      1.0000 0.07980  0.23753  0.68950  Biso   1.000  C
  H32      1.0000 0.05550  0.22630  0.65180  Biso   1.000  H
  C37      1.0000 0.03634  0.32538  0.68822  Biso   1.000  C
  C38      1.0000 0.00635  0.40418  0.86490  Biso   1.000  C
  H33      1.0000 0.97540  0.38330  0.85880  Biso   1.000  H
  H34      1.0000 0.03640  0.38380  0.85040  Biso   1.000  H
  H35      1.0000 0.00950  0.41520  0.91960  Biso   1.000  H
  C39      1.0000 0.74265  0.48910  0.42840  Biso   1.000  C
  H36      1.0000 0.73310  0.50120  0.36560  Biso   1.000  H
  C40      1.0000 0.27980  0.16780  0.86160  Biso   1.000  C
  H37      1.0000 0.30920  0.18250  0.88810  Biso   1.000  H
  C41      1.0000 0.24000  0.20180  0.83740  Biso   1.000  C
  H38      1.0000 0.24260  0.23820  0.84840  Biso   1.000  H
  C42      1.0000 0.19570  0.12740  0.78240  Biso   1.000  C
  H39      1.0000 0.16660  0.11220  0.75580  Biso   1.000  H
  C43      1.0000 0.23840  0.09660  0.80790  Biso   1.000  C
  H40      1.0000 0.23850  0.06040  0.79500  Biso   1.000  H
  C44      1.0000 0.15050  0.26830  0.80310  Biso   1.000  C
  H41      1.0000 0.17430  0.27950  0.84330  Biso   1.000  H
  C45      1.0000 0.67590  0.54110  0.48760  Biso   1.000  C
  C46      1.0000 0.63750  0.53280  0.42580  Biso   1.000  C
  H42      1.0000 0.64220  0.50540  0.38790  Biso   1.000  H
  C47      1.0000 0.59210  0.56590  0.42130  Biso   1.000  C
  H43      1.0000 0.56680  0.56050  0.38050  Biso   1.000  H
  N5       1.0000 0.58500  0.60730  0.47860  Biso   1.000  N
  C48      1.0000 0.62340  0.61560  0.54040  Biso   1.000  C
  H44      1.0000 0.61870  0.64290  0.57830  Biso   1.000  H
  C49      1.0000 0.66880  0.58250  0.54490  Biso   1.000  C
  H45      1.0000 0.69410  0.58790  0.58570  Biso   1.000  H
  C50      1.0000 0.26470  0.15920  0.89470  Biso   1.000  C
  H46      1.0000 0.28200  0.16570  0.94400  Biso   1.000  H
  C51      1.0000 0.22590  0.19270  0.87060  Biso   1.000  C
  H47      1.0000 0.21770  0.22260  0.90200  Biso   1.000  H
  C52      1.0000 0.21300  0.14000  0.75760  Biso   1.000  C
  H48      1.0000 0.19590  0.13140  0.70880  Biso   1.000  H
  C53      1.0000 0.25280  0.10820  0.78530  Biso   1.000  C
  H49      1.0000 0.26130  0.07810  0.75450  Biso   1.000  H
  C54      1.0000 0.67770  0.54960  0.53450  Biso   1.000  C
  C55      1.0000 0.64380  0.54400  0.59580  Biso   1.000  C
  H50      1.0000 0.64880  0.51680  0.63380  Biso   1.000  H
  C56      1.0000 0.60290  0.57690  0.60320  Biso   1.000  C
  H51      1.0000 0.57910  0.57300  0.64640  Biso   1.000  H
  N6       1.0000 0.59590  0.61560  0.54940  Biso   1.000  N
  C57      1.0000 0.62970  0.62120  0.48800  Biso   1.000  C
  H52      1.0000 0.62480  0.64840  0.45010  Biso   1.000  H
  C58      1.0000 0.67060  0.58830  0.48060  Biso   1.000  C
  H53      1.0000 0.69450  0.59230  0.43740  Biso   1.000  H
  H54      1.0000 0.96440  0.23630  0.44490  Biso   1.000  H
  H55      1.0000 0.99010  0.24190  0.53180  Biso   1.000  H
  H56      1.0000 0.92920  0.22870  0.52330  Biso   1.000  H
  Co5      1.0000 0.33953  0.06729  0.09964  Biso   1.000  Co
  Co6      1.0000 0.43664  0.00307  0.18829  Biso   1.000  Co
  O13      1.0000 0.30588  0.00310  0.15538  Biso   1.000  O
  O14      1.0000 0.37370  0.95391  0.19768  Biso   1.000  O
  O15      1.0000 0.41036  0.01951  0.06701  Biso   1.000  O
  O16      1.0000 0.38724  0.06935  0.20283  Biso   1.000  O
  O17      1.0000 0.44916  0.99697  0.31402  Biso   1.000  O
  O18      1.0000 0.38161  0.13343  0.06721  Biso   1.000  O
  N7       1.0000 0.11636  0.72045  0.35026  Biso   1.000  N
  C59      1.0000 0.21801  0.84503  0.27200  Biso   1.000  C
  C60      1.0000 0.30220  0.88770  0.27700  Biso   1.000  C
  H57      1.0000 0.33190  0.89500  0.30710  Biso   1.000  H
  C61      1.0000 0.28759  0.92295  0.21900  Biso   1.000  C
  C62      1.0000 0.20329  0.88100  0.21530  Biso   1.000  C
  H58      1.0000 0.16910  0.87920  0.19310  Biso   1.000  H
  C63      1.0000 0.18267  0.80202  0.29830  Biso   1.000  C
  C64      1.0000 0.45293  0.21611  0.92810  Biso   1.000  C
  H59      1.0000 0.44090  0.20220  0.87870  Biso   1.000  H
  C65      1.0000 0.23753  0.92020  0.18950  Biso   1.000  C
  H60      1.0000 0.22630  0.94450  0.15180  Biso   1.000  H
  C66      1.0000 0.32538  0.96366  0.18822  Biso   1.000  C
  C67      1.0000 0.40418  0.99365  0.36490  Biso   1.000  C
  H61      1.0000 0.38330  0.02460  0.35880  Biso   1.000  H
  H62      1.0000 0.38380  0.96360  0.35040  Biso   1.000  H
  H63      1.0000 0.41520  0.99050  0.41960  Biso   1.000  H
  C68      1.0000 0.48910  0.25735  0.92840  Biso   1.000  C
  H64      1.0000 0.50120  0.26690  0.86560  Biso   1.000  H
  C69      1.0000 0.16780  0.72020  0.36160  Biso   1.000  C
  H65      1.0000 0.18250  0.69080  0.38810  Biso   1.000  H
  C70      1.0000 0.20180  0.76000  0.33740  Biso   1.000  C
  H66      1.0000 0.23820  0.75740  0.34840  Biso   1.000  H
  C71      1.0000 0.12740  0.80430  0.28240  Biso   1.000  C
  H67      1.0000 0.11220  0.83340  0.25580  Biso   1.000  H
  C72      1.0000 0.09660  0.76160  0.30790  Biso   1.000  C
  H68      1.0000 0.06040  0.76150  0.29500  Biso   1.000  H
  C73      1.0000 0.26830  0.84950  0.30310  Biso   1.000  C
  H69      1.0000 0.27950  0.82570  0.34330  Biso   1.000  H
  C74      1.0000 0.54110  0.32410  0.98760  Biso   1.000  C
  C75      1.0000 0.53280  0.36250  0.92580  Biso   1.000  C
  H70      1.0000 0.50540  0.35780  0.88790  Biso   1.000  H
  C76      1.0000 0.56590  0.40790  0.92130  Biso   1.000  C
  H71      1.0000 0.56050  0.43320  0.88050  Biso   1.000  H
  N8       1.0000 0.60730  0.41500  0.97860  Biso   1.000  N
  C77      1.0000 0.61560  0.37660  0.04040  Biso   1.000  C
  H72      1.0000 0.64290  0.38130  0.07830  Biso   1.000  H
  C78      1.0000 0.58250  0.33120  0.04490  Biso   1.000  C
  H73      1.0000 0.58790  0.30590  0.08570  Biso   1.000  H
  C79      1.0000 0.15920  0.73530  0.39470  Biso   1.000  C
  H74      1.0000 0.16570  0.71800  0.44400  Biso   1.000  H
  C80      1.0000 0.19270  0.77410  0.37060  Biso   1.000  C
  H75      1.0000 0.22260  0.78230  0.40200  Biso   1.000  H
  C81      1.0000 0.14000  0.78700  0.25760  Biso   1.000  C
  H76      1.0000 0.13140  0.80410  0.20880  Biso   1.000  H
  C82      1.0000 0.10820  0.74720  0.28530  Biso   1.000  C
  H77      1.0000 0.07810  0.73870  0.25450  Biso   1.000  H
  C83      1.0000 0.54960  0.32230  0.03450  Biso   1.000  C
  C84      1.0000 0.54400  0.35620  0.09580  Biso   1.000  C
  H78      1.0000 0.51680  0.35120  0.13380  Biso   1.000  H
  C85      1.0000 0.57690  0.39710  0.10320  Biso   1.000  C
  H79      1.0000 0.57300  0.42090  0.14640  Biso   1.000  H
  N9       1.0000 0.61560  0.40410  0.04940  Biso   1.000  N
  C86      1.0000 0.62120  0.37030  0.98800  Biso   1.000  C
  H80      1.0000 0.64840  0.37520  0.95010  Biso   1.000  H
  C87      1.0000 0.58830  0.32940  0.98060  Biso   1.000  C
  H81      1.0000 0.59230  0.30550  0.93740  Biso   1.000  H
  H82      1.0000 0.23630  0.03560  0.94490  Biso   1.000  H
  H83      1.0000 0.24190  0.00990  0.03180  Biso   1.000  H
  H84      1.0000 0.22870  0.07080  0.02330  Biso   1.000  H
  Co7      1.0000 0.66047  0.93271  0.09964  Biso   1.000  Co
  Co8      1.0000 0.56336  0.99693  0.18829  Biso   1.000  Co
  O19      1.0000 0.69412  0.99690  0.15538  Biso   1.000  O
  O20      1.0000 0.62630  0.04609  0.19768  Biso   1.000  O
  O21      1.0000 0.58964  0.98049  0.06701  Biso   1.000  O
  O22      1.0000 0.61276  0.93065  0.20283  Biso   1.000  O
  O23      1.0000 0.55084  0.00303  0.31402  Biso   1.000  O
  O24      1.0000 0.61839  0.86657  0.06721  Biso   1.000  O
  N10      1.0000 0.88364  0.27955  0.35026  Biso   1.000  N
  C88      1.0000 0.78199  0.15497  0.27200  Biso   1.000  C
  C89      1.0000 0.69780  0.11230  0.27700  Biso   1.000  C
  H85      1.0000 0.66810  0.10500  0.30710  Biso   1.000  H
  C90      1.0000 0.71241  0.07705  0.21900  Biso   1.000  C
  C91      1.0000 0.79671  0.11900  0.21530  Biso   1.000  C
  H86      1.0000 0.83090  0.12080  0.19310  Biso   1.000  H
  C92      1.0000 0.81733  0.19798  0.29830  Biso   1.000  C
  C93      1.0000 0.54707  0.78389  0.92810  Biso   1.000  C
  H87      1.0000 0.55910  0.79780  0.87870  Biso   1.000  H
  C94      1.0000 0.76247  0.07980  0.18950  Biso   1.000  C
  H88      1.0000 0.77370  0.05550  0.15180  Biso   1.000  H
  C95      1.0000 0.67462  0.03634  0.18822  Biso   1.000  C
  C96      1.0000 0.59582  0.00635  0.36490  Biso   1.000  C
  H89      1.0000 0.61670  0.97540  0.35880  Biso   1.000  H
  H90      1.0000 0.61620  0.03640  0.35040  Biso   1.000  H
  H91      1.0000 0.58480  0.00950  0.41960  Biso   1.000  H
  C97      1.0000 0.51090  0.74265  0.92840  Biso   1.000  C
  H92      1.0000 0.49880  0.73310  0.86560  Biso   1.000  H
  C98      1.0000 0.83220  0.27980  0.36160  Biso   1.000  C
  H93      1.0000 0.81750  0.30920  0.38810  Biso   1.000  H
  C99      1.0000 0.79820  0.24000  0.33740  Biso   1.000  C
  H94      1.0000 0.76180  0.24260  0.34840  Biso   1.000  H
  C100     1.0000 0.87260  0.19570  0.28240  Biso   1.000  C
  H95      1.0000 0.88780  0.16660  0.25580  Biso   1.000  H
  C101     1.0000 0.90340  0.23840  0.30790  Biso   1.000  C
  H96      1.0000 0.93960  0.23850  0.29500  Biso   1.000  H
  C102     1.0000 0.73170  0.15050  0.30310  Biso   1.000  C
  H97      1.0000 0.72050  0.17430  0.34330  Biso   1.000  H
  C103     1.0000 0.45890  0.67590  0.98760  Biso   1.000  C
  C104     1.0000 0.46720  0.63750  0.92580  Biso   1.000  C
  H98      1.0000 0.49460  0.64220  0.88790  Biso   1.000  H
  C105     1.0000 0.43410  0.59210  0.92130  Biso   1.000  C
  H99      1.0000 0.43950  0.56680  0.88050  Biso   1.000  H
  N11      1.0000 0.39270  0.58500  0.97860  Biso   1.000  N
  C106     1.0000 0.38440  0.62340  0.04040  Biso   1.000  C
  H100     1.0000 0.35710  0.61870  0.07830  Biso   1.000  H
  C107     1.0000 0.41750  0.66880  0.04490  Biso   1.000  C
  H101     1.0000 0.41210  0.69410  0.08570  Biso   1.000  H
  C108     1.0000 0.84080  0.26470  0.39470  Biso   1.000  C
  H102     1.0000 0.83430  0.28200  0.44400  Biso   1.000  H
  C109     1.0000 0.80730  0.22590  0.37060  Biso   1.000  C
  H103     1.0000 0.77740  0.21770  0.40200  Biso   1.000  H
  C110     1.0000 0.86000  0.21300  0.25760  Biso   1.000  C
  H104     1.0000 0.86860  0.19590  0.20880  Biso   1.000  H
  C111     1.0000 0.89180  0.25280  0.28530  Biso   1.000  C
  H105     1.0000 0.92190  0.26130  0.25450  Biso   1.000  H
  C112     1.0000 0.45040  0.67770  0.03450  Biso   1.000  C
  C113     1.0000 0.45600  0.64380  0.09580  Biso   1.000  C
  H106     1.0000 0.48320  0.64880  0.13380  Biso   1.000  H
  C114     1.0000 0.42310  0.60290  0.10320  Biso   1.000  C
  H107     1.0000 0.42700  0.57910  0.14640  Biso   1.000  H
  N12      1.0000 0.38440  0.59590  0.04940  Biso   1.000  N
  C115     1.0000 0.37880  0.62970  0.98800  Biso   1.000  C
  H108     1.0000 0.35160  0.62480  0.95010  Biso   1.000  H
  C116     1.0000 0.41170  0.67060  0.98060  Biso   1.000  C
  H109     1.0000 0.40770  0.69450  0.93740  Biso   1.000  H
  H110     1.0000 0.76370  0.96440  0.94490  Biso   1.000  H
  H111     1.0000 0.75810  0.99010  0.03180  Biso   1.000  H
  H112     1.0000 0.77130  0.92920  0.02330  Biso   1.000  H
  Co9      1.0000 0.43271  0.16047  0.40036  Biso   1.000  Co
  Co10     1.0000 0.49693  0.06336  0.31171  Biso   1.000  Co
  O25      1.0000 0.49690  0.19412  0.34462  Biso   1.000  O
  O26      1.0000 0.54609  0.12630  0.30232  Biso   1.000  O
  O27      1.0000 0.48049  0.08964  0.43299  Biso   1.000  O
  O28      1.0000 0.43065  0.11276  0.29717  Biso   1.000  O
  O29      1.0000 0.50303  0.05084  0.18598  Biso   1.000  O
  O30      1.0000 0.36657  0.11839  0.43279  Biso   1.000  O
  N13      1.0000 0.77955  0.38364  0.14974  Biso   1.000  N
  C117     1.0000 0.65497  0.28199  0.22800  Biso   1.000  C
  C118     1.0000 0.61230  0.19780  0.22300  Biso   1.000  C
  H113     1.0000 0.60500  0.16810  0.19290  Biso   1.000  H
  C119     1.0000 0.57705  0.21241  0.28100  Biso   1.000  C
  C120     1.0000 0.61900  0.29671  0.28470  Biso   1.000  C
  H114     1.0000 0.62080  0.33090  0.30690  Biso   1.000  H
  C121     1.0000 0.69798  0.31733  0.20170  Biso   1.000  C
  C122     1.0000 0.28389  0.04707  0.57190  Biso   1.000  C
  H115     1.0000 0.29780  0.05910  0.62130  Biso   1.000  H
  C123     1.0000 0.57980  0.26247  0.31050  Biso   1.000  C
  H116     1.0000 0.55550  0.27370  0.34820  Biso   1.000  H
  C124     1.0000 0.53634  0.17462  0.31178  Biso   1.000  C
  C125     1.0000 0.50635  0.09582  0.13510  Biso   1.000  C
  H117     1.0000 0.47540  0.11670  0.14120  Biso   1.000  H
  H118     1.0000 0.53640  0.11620  0.14960  Biso   1.000  H
  H119     1.0000 0.50950  0.08480  0.08040  Biso   1.000  H
  C126     1.0000 0.24265  0.01090  0.57160  Biso   1.000  C
  H120     1.0000 0.23310  0.99880  0.63440  Biso   1.000  H
  C127     1.0000 0.77980  0.33220  0.13840  Biso   1.000  C
  H121     1.0000 0.80920  0.31750  0.11190  Biso   1.000  H
  C128     1.0000 0.74000  0.29820  0.16260  Biso   1.000  C
  H122     1.0000 0.74260  0.26180  0.15160  Biso   1.000  H
  C129     1.0000 0.69570  0.37260  0.21760  Biso   1.000  C
  H123     1.0000 0.66660  0.38780  0.24420  Biso   1.000  H
  C130     1.0000 0.73840  0.40340  0.19210  Biso   1.000  C
  H124     1.0000 0.73850  0.43960  0.20500  Biso   1.000  H
  C131     1.0000 0.65050  0.23170  0.19690  Biso   1.000  C
  H125     1.0000 0.67430  0.22050  0.15670  Biso   1.000  H
  C132     1.0000 0.17590  0.95890  0.51240  Biso   1.000  C
  C133     1.0000 0.13750  0.96720  0.57420  Biso   1.000  C
  H126     1.0000 0.14220  0.99460  0.61210  Biso   1.000  H
  C134     1.0000 0.09210  0.93410  0.57870  Biso   1.000  C
  H127     1.0000 0.06680  0.93950  0.61950  Biso   1.000  H
  N14      1.0000 0.08500  0.89270  0.52140  Biso   1.000  N
  C135     1.0000 0.12340  0.88440  0.45960  Biso   1.000  C
  H128     1.0000 0.11870  0.85710  0.42170  Biso   1.000  H
  C136     1.0000 0.16880  0.91750  0.45510  Biso   1.000  C
  H129     1.0000 0.19410  0.91210  0.41430  Biso   1.000  H
  C137     1.0000 0.76470  0.34080  0.10530  Biso   1.000  C
  H130     1.0000 0.78200  0.33430  0.05600  Biso   1.000  H
  C138     1.0000 0.72590  0.30730  0.12940  Biso   1.000  C
  H131     1.0000 0.71770  0.27740  0.09800  Biso   1.000  H
  C139     1.0000 0.71300  0.36000  0.24240  Biso   1.000  C
  H132     1.0000 0.69590  0.36860  0.29120  Biso   1.000  H
  C140     1.0000 0.75280  0.39180  0.21470  Biso   1.000  C
  H133     1.0000 0.76130  0.42190  0.24550  Biso   1.000  H
  C141     1.0000 0.17770  0.95040  0.46550  Biso   1.000  C
  C142     1.0000 0.14380  0.95600  0.40420  Biso   1.000  C
  H134     1.0000 0.14880  0.98320  0.36620  Biso   1.000  H
  C143     1.0000 0.10290  0.92310  0.39680  Biso   1.000  C
  H135     1.0000 0.07910  0.92700  0.35360  Biso   1.000  H
  N15      1.0000 0.09590  0.88440  0.45060  Biso   1.000  N
  C144     1.0000 0.12970  0.87880  0.51200  Biso   1.000  C
  H136     1.0000 0.12480  0.85160  0.54990  Biso   1.000  H
  C145     1.0000 0.17060  0.91170  0.51940  Biso   1.000  C
  H137     1.0000 0.19450  0.90770  0.56260  Biso   1.000  H
  H138     1.0000 0.46440  0.26370  0.55510  Biso   1.000  H
  H139     1.0000 0.49010  0.25810  0.46820  Biso   1.000  H
  H140     1.0000 0.42920  0.27130  0.47670  Biso   1.000  H
  Co11     1.0000 0.56729  0.83953  0.40036  Biso   1.000  Co
  Co12     1.0000 0.50307  0.93664  0.31171  Biso   1.000  Co
  O31      1.0000 0.50310  0.80588  0.34462  Biso   1.000  O
  O32      1.0000 0.45391  0.87370  0.30232  Biso   1.000  O
  O33      1.0000 0.51951  0.91036  0.43299  Biso   1.000  O
  O34      1.0000 0.56935  0.88724  0.29717  Biso   1.000  O
  O35      1.0000 0.49697  0.94916  0.18598  Biso   1.000  O
  O36      1.0000 0.63343  0.88161  0.43279  Biso   1.000  O
  N16      1.0000 0.22045  0.61636  0.14974  Biso   1.000  N
  C146     1.0000 0.34503  0.71801  0.22800  Biso   1.000  C
  C147     1.0000 0.38770  0.80220  0.22300  Biso   1.000  C
  H141     1.0000 0.39500  0.83190  0.19290  Biso   1.000  H
  C148     1.0000 0.42295  0.78759  0.28100  Biso   1.000  C
  C149     1.0000 0.38100  0.70329  0.28470  Biso   1.000  C
  H142     1.0000 0.37920  0.66910  0.30690  Biso   1.000  H
  C150     1.0000 0.30202  0.68267  0.20170  Biso   1.000  C
  C151     1.0000 0.71611  0.95293  0.57190  Biso   1.000  C
  H143     1.0000 0.70220  0.94090  0.62130  Biso   1.000  H
  C152     1.0000 0.42020  0.73753  0.31050  Biso   1.000  C
  H144     1.0000 0.44450  0.72630  0.34820  Biso   1.000  H
  C153     1.0000 0.46366  0.82538  0.31178  Biso   1.000  C
  C154     1.0000 0.49365  0.90418  0.13510  Biso   1.000  C
  H145     1.0000 0.52460  0.88330  0.14120  Biso   1.000  H
  H146     1.0000 0.46360  0.88380  0.14960  Biso   1.000  H
  H147     1.0000 0.49050  0.91520  0.08040  Biso   1.000  H
  C155     1.0000 0.75735  0.98910  0.57160  Biso   1.000  C
  H148     1.0000 0.76690  0.00120  0.63440  Biso   1.000  H
  C156     1.0000 0.22020  0.66780  0.13840  Biso   1.000  C
  H149     1.0000 0.19080  0.68250  0.11190  Biso   1.000  H
  C157     1.0000 0.26000  0.70180  0.16260  Biso   1.000  C
  H150     1.0000 0.25740  0.73820  0.15160  Biso   1.000  H
  C158     1.0000 0.30430  0.62740  0.21760  Biso   1.000  C
  H151     1.0000 0.33340  0.61220  0.24420  Biso   1.000  H
  C159     1.0000 0.26160  0.59660  0.19210  Biso   1.000  C
  H152     1.0000 0.26150  0.56040  0.20500  Biso   1.000  H
  C160     1.0000 0.34950  0.76830  0.19690  Biso   1.000  C
  H153     1.0000 0.32570  0.77950  0.15670  Biso   1.000  H
  C161     1.0000 0.82410  0.04110  0.51240  Biso   1.000  C
  C162     1.0000 0.86250  0.03280  0.57420  Biso   1.000  C
  H154     1.0000 0.85780  0.00540  0.61210  Biso   1.000  H
  C163     1.0000 0.90790  0.06590  0.57870  Biso   1.000  C
  H155     1.0000 0.93320  0.06050  0.61950  Biso   1.000  H
  N17      1.0000 0.91500  0.10730  0.52140  Biso   1.000  N
  C164     1.0000 0.87660  0.11560  0.45960  Biso   1.000  C
  H156     1.0000 0.88130  0.14290  0.42170  Biso   1.000  H
  C165     1.0000 0.83120  0.08250  0.45510  Biso   1.000  C
  H157     1.0000 0.80590  0.08790  0.41430  Biso   1.000  H
  C166     1.0000 0.23530  0.65920  0.10530  Biso   1.000  C
  H158     1.0000 0.21800  0.66570  0.05600  Biso   1.000  H
  C167     1.0000 0.27410  0.69270  0.12940  Biso   1.000  C
  H159     1.0000 0.28230  0.72260  0.09800  Biso   1.000  H
  C168     1.0000 0.28700  0.64000  0.24240  Biso   1.000  C
  H160     1.0000 0.30410  0.63140  0.29120  Biso   1.000  H
  C169     1.0000 0.24720  0.60820  0.21470  Biso   1.000  C
  H161     1.0000 0.23870  0.57810  0.24550  Biso   1.000  H
  C170     1.0000 0.82230  0.04960  0.46550  Biso   1.000  C
  C171     1.0000 0.85620  0.04400  0.40420  Biso   1.000  C
  H162     1.0000 0.85120  0.01680  0.36620  Biso   1.000  H
  C172     1.0000 0.89710  0.07690  0.39680  Biso   1.000  C
  H163     1.0000 0.92090  0.07300  0.35360  Biso   1.000  H
  N18      1.0000 0.90410  0.11560  0.45060  Biso   1.000  N
  C173     1.0000 0.87030  0.12120  0.51200  Biso   1.000  C
  H164     1.0000 0.87520  0.14840  0.54990  Biso   1.000  H
  C174     1.0000 0.82940  0.08830  0.51940  Biso   1.000  C
  H165     1.0000 0.80550  0.09230  0.56260  Biso   1.000  H
  H166     1.0000 0.53560  0.73630  0.55510  Biso   1.000  H
  H167     1.0000 0.50990  0.74190  0.46820  Biso   1.000  H
  H168     1.0000 0.57080  0.72870  0.47670  Biso   1.000  H
  Co13     1.0000 0.16047  0.56729  0.90036  Biso   1.000  Co
  Co14     1.0000 0.06336  0.50307  0.81171  Biso   1.000  Co
  O37      1.0000 0.19412  0.50310  0.84462  Biso   1.000  O
  O38      1.0000 0.12630  0.45391  0.80232  Biso   1.000  O
  O39      1.0000 0.08964  0.51951  0.93299  Biso   1.000  O
  O40      1.0000 0.11276  0.56935  0.79717  Biso   1.000  O
  O41      1.0000 0.05084  0.49697  0.68598  Biso   1.000  O
  O42      1.0000 0.11839  0.63343  0.93279  Biso   1.000  O
  N19      1.0000 0.38364  0.22045  0.64974  Biso   1.000  N
  C175     1.0000 0.28199  0.34503  0.72800  Biso   1.000  C
  C176     1.0000 0.19780  0.38770  0.72300  Biso   1.000  C
  H169     1.0000 0.16810  0.39500  0.69290  Biso   1.000  H
  C177     1.0000 0.21241  0.42295  0.78100  Biso   1.000  C
  C178     1.0000 0.29671  0.38100  0.78470  Biso   1.000  C
  H170     1.0000 0.33090  0.37920  0.80690  Biso   1.000  H
  C179     1.0000 0.31733  0.30202  0.70170  Biso   1.000  C
  C180     1.0000 0.04707  0.71611  0.07190  Biso   1.000  C
  H171     1.0000 0.05910  0.70220  0.12130  Biso   1.000  H
  C181     1.0000 0.26247  0.42020  0.81050  Biso   1.000  C
  H172     1.0000 0.27370  0.44450  0.84820  Biso   1.000  H
  C182     1.0000 0.17462  0.46366  0.81178  Biso   1.000  C
  C183     1.0000 0.09582  0.49365  0.63510  Biso   1.000  C
  H173     1.0000 0.11670  0.52460  0.64120  Biso   1.000  H
  H174     1.0000 0.11620  0.46360  0.64960  Biso   1.000  H
  H175     1.0000 0.08480  0.49050  0.58040  Biso   1.000  H
  C184     1.0000 0.01090  0.75735  0.07160  Biso   1.000  C
  H176     1.0000 0.99880  0.76690  0.13440  Biso   1.000  H
  C185     1.0000 0.33220  0.22020  0.63840  Biso   1.000  C
  H177     1.0000 0.31750  0.19080  0.61190  Biso   1.000  H
  C186     1.0000 0.29820  0.26000  0.66260  Biso   1.000  C
  H178     1.0000 0.26180  0.25740  0.65160  Biso   1.000  H
  C187     1.0000 0.37260  0.30430  0.71760  Biso   1.000  C
  H179     1.0000 0.38780  0.33340  0.74420  Biso   1.000  H
  C188     1.0000 0.40340  0.26160  0.69210  Biso   1.000  C
  H180     1.0000 0.43960  0.26150  0.70500  Biso   1.000  H
  C189     1.0000 0.23170  0.34950  0.69690  Biso   1.000  C
  H181     1.0000 0.22050  0.32570  0.65670  Biso   1.000  H
  C190     1.0000 0.95890  0.82410  0.01240  Biso   1.000  C
  C191     1.0000 0.96720  0.86250  0.07420  Biso   1.000  C
  H182     1.0000 0.99460  0.85780  0.11210  Biso   1.000  H
  C192     1.0000 0.93410  0.90790  0.07870  Biso   1.000  C
  H183     1.0000 0.93950  0.93320  0.11950  Biso   1.000  H
  N20      1.0000 0.89270  0.91500  0.02140  Biso   1.000  N
  C193     1.0000 0.88440  0.87660  0.95960  Biso   1.000  C
  H184     1.0000 0.85710  0.88130  0.92170  Biso   1.000  H
  C194     1.0000 0.91750  0.83120  0.95510  Biso   1.000  C
  H185     1.0000 0.91210  0.80590  0.91430  Biso   1.000  H
  C195     1.0000 0.34080  0.23530  0.60530  Biso   1.000  C
  H186     1.0000 0.33430  0.21800  0.55600  Biso   1.000  H
  C196     1.0000 0.30730  0.27410  0.62940  Biso   1.000  C
  H187     1.0000 0.27740  0.28230  0.59800  Biso   1.000  H
  C197     1.0000 0.36000  0.28700  0.74240  Biso   1.000  C
  H188     1.0000 0.36860  0.30410  0.79120  Biso   1.000  H
  C198     1.0000 0.39180  0.24720  0.71470  Biso   1.000  C
  H189     1.0000 0.42190  0.23870  0.74550  Biso   1.000  H
  C199     1.0000 0.95040  0.82230  0.96550  Biso   1.000  C
  C200     1.0000 0.95600  0.85620  0.90420  Biso   1.000  C
  H190     1.0000 0.98320  0.85120  0.86620  Biso   1.000  H
  C201     1.0000 0.92310  0.89710  0.89680  Biso   1.000  C
  H191     1.0000 0.92700  0.92090  0.85360  Biso   1.000  H
  N21      1.0000 0.88440  0.90410  0.95060  Biso   1.000  N
  C202     1.0000 0.87880  0.87030  0.01200  Biso   1.000  C
  H192     1.0000 0.85160  0.87520  0.04990  Biso   1.000  H
  C203     1.0000 0.91170  0.82940  0.01940  Biso   1.000  C
  H193     1.0000 0.90770  0.80550  0.06260  Biso   1.000  H
  H194     1.0000 0.26370  0.53560  0.05510  Biso   1.000  H
  H195     1.0000 0.25810  0.50990  0.96820  Biso   1.000  H
  H196     1.0000 0.27130  0.57080  0.97670  Biso   1.000  H
  Co15     1.0000 0.83953  0.43271  0.90036  Biso   1.000  Co
  Co16     1.0000 0.93664  0.49693  0.81171  Biso   1.000  Co
  O43      1.0000 0.80588  0.49690  0.84462  Biso   1.000  O
  O44      1.0000 0.87370  0.54609  0.80232  Biso   1.000  O
  O45      1.0000 0.91036  0.48049  0.93299  Biso   1.000  O
  O46      1.0000 0.88724  0.43065  0.79717  Biso   1.000  O
  O47      1.0000 0.94916  0.50303  0.68598  Biso   1.000  O
  O48      1.0000 0.88161  0.36657  0.93279  Biso   1.000  O
  N22      1.0000 0.61636  0.77955  0.64974  Biso   1.000  N
  C204     1.0000 0.71801  0.65497  0.72800  Biso   1.000  C
  C205     1.0000 0.80220  0.61230  0.72300  Biso   1.000  C
  H197     1.0000 0.83190  0.60500  0.69290  Biso   1.000  H
  C206     1.0000 0.78759  0.57705  0.78100  Biso   1.000  C
  C207     1.0000 0.70329  0.61900  0.78470  Biso   1.000  C
  H198     1.0000 0.66910  0.62080  0.80690  Biso   1.000  H
  C208     1.0000 0.68267  0.69798  0.70170  Biso   1.000  C
  C209     1.0000 0.95293  0.28389  0.07190  Biso   1.000  C
  H199     1.0000 0.94090  0.29780  0.12130  Biso   1.000  H
  C210     1.0000 0.73753  0.57980  0.81050  Biso   1.000  C
  H200     1.0000 0.72630  0.55550  0.84820  Biso   1.000  H
  C211     1.0000 0.82538  0.53634  0.81178  Biso   1.000  C
  C212     1.0000 0.90418  0.50635  0.63510  Biso   1.000  C
  H201     1.0000 0.88330  0.47540  0.64120  Biso   1.000  H
  H202     1.0000 0.88380  0.53640  0.64960  Biso   1.000  H
  H203     1.0000 0.91520  0.50950  0.58040  Biso   1.000  H
  C213     1.0000 0.98910  0.24265  0.07160  Biso   1.000  C
  H204     1.0000 0.00120  0.23310  0.13440  Biso   1.000  H
  C214     1.0000 0.66780  0.77980  0.63840  Biso   1.000  C
  H205     1.0000 0.68250  0.80920  0.61190  Biso   1.000  H
  C215     1.0000 0.70180  0.74000  0.66260  Biso   1.000  C
  H206     1.0000 0.73820  0.74260  0.65160  Biso   1.000  H
  C216     1.0000 0.62740  0.69570  0.71760  Biso   1.000  C
  H207     1.0000 0.61220  0.66660  0.74420  Biso   1.000  H
  C217     1.0000 0.59660  0.73840  0.69210  Biso   1.000  C
  H208     1.0000 0.56040  0.73850  0.70500  Biso   1.000  H
  C218     1.0000 0.76830  0.65050  0.69690  Biso   1.000  C
  H209     1.0000 0.77950  0.67430  0.65670  Biso   1.000  H
  C219     1.0000 0.04110  0.17590  0.01240  Biso   1.000  C
  C220     1.0000 0.03280  0.13750  0.07420  Biso   1.000  C
  H210     1.0000 0.00540  0.14220  0.11210  Biso   1.000  H
  C221     1.0000 0.06590  0.09210  0.07870  Biso   1.000  C
  H211     1.0000 0.06050  0.06680  0.11950  Biso   1.000  H
  N23      1.0000 0.10730  0.08500  0.02140  Biso   1.000  N
  C222     1.0000 0.11560  0.12340  0.95960  Biso   1.000  C
  H212     1.0000 0.14290  0.11870  0.92170  Biso   1.000  H
  C223     1.0000 0.08250  0.16880  0.95510  Biso   1.000  C
  H213     1.0000 0.08790  0.19410  0.91430  Biso   1.000  H
  C224     1.0000 0.65920  0.76470  0.60530  Biso   1.000  C
  H214     1.0000 0.66570  0.78200  0.55600  Biso   1.000  H
  C225     1.0000 0.69270  0.72590  0.62940  Biso   1.000  C
  H215     1.0000 0.72260  0.71770  0.59800  Biso   1.000  H
  C226     1.0000 0.64000  0.71300  0.74240  Biso   1.000  C
  H216     1.0000 0.63140  0.69590  0.79120  Biso   1.000  H
  C227     1.0000 0.60820  0.75280  0.71470  Biso   1.000  C
  H217     1.0000 0.57810  0.76130  0.74550  Biso   1.000  H
  C228     1.0000 0.04960  0.17770  0.96550  Biso   1.000  C
  C229     1.0000 0.04400  0.14380  0.90420  Biso   1.000  C
  H218     1.0000 0.01680  0.14880  0.86620  Biso   1.000  H
  C230     1.0000 0.07690  0.10290  0.89680  Biso   1.000  C
  H219     1.0000 0.07300  0.07910  0.85360  Biso   1.000  H
  N24      1.0000 0.11560  0.09590  0.95060  Biso   1.000  N
  C231     1.0000 0.12120  0.12970  0.01200  Biso   1.000  C
  H220     1.0000 0.14840  0.12480  0.04990  Biso   1.000  H
  C232     1.0000 0.08830  0.17060  0.01940  Biso   1.000  C
  H221     1.0000 0.09230  0.19450  0.06260  Biso   1.000  H
  H222     1.0000 0.73630  0.46440  0.05510  Biso   1.000  H
  H223     1.0000 0.74190  0.49010  0.96820  Biso   1.000  H
  H224     1.0000 0.72870  0.42920  0.97670  Biso   1.000  H
  Co17     1.0000 0.93271  0.33953  0.40036  Biso   1.000  Co
  Co18     1.0000 0.99693  0.43664  0.31171  Biso   1.000  Co
  O49      1.0000 0.99690  0.30588  0.34462  Biso   1.000  O
  O50      1.0000 0.04609  0.37370  0.30232  Biso   1.000  O
  O51      1.0000 0.98049  0.41036  0.43299  Biso   1.000  O
  O52      1.0000 0.93065  0.38724  0.29717  Biso   1.000  O
  O53      1.0000 0.00303  0.44916  0.18598  Biso   1.000  O
  O54      1.0000 0.86657  0.38161  0.43279  Biso   1.000  O
  N25      1.0000 0.27955  0.11636  0.14974  Biso   1.000  N
  C233     1.0000 0.15497  0.21801  0.22800  Biso   1.000  C
  C234     1.0000 0.11230  0.30220  0.22300  Biso   1.000  C
  H225     1.0000 0.10500  0.33190  0.19290  Biso   1.000  H
  C235     1.0000 0.07705  0.28759  0.28100  Biso   1.000  C
  C236     1.0000 0.11900  0.20329  0.28470  Biso   1.000  C
  H226     1.0000 0.12080  0.16910  0.30690  Biso   1.000  H
  C237     1.0000 0.19798  0.18267  0.20170  Biso   1.000  C
  C238     1.0000 0.78389  0.45293  0.57190  Biso   1.000  C
  H227     1.0000 0.79780  0.44090  0.62130  Biso   1.000  H
  C239     1.0000 0.07980  0.23753  0.31050  Biso   1.000  C
  H228     1.0000 0.05550  0.22630  0.34820  Biso   1.000  H
  C240     1.0000 0.03634  0.32538  0.31178  Biso   1.000  C
  C241     1.0000 0.00635  0.40418  0.13510  Biso   1.000  C
  H229     1.0000 0.97540  0.38330  0.14120  Biso   1.000  H
  H230     1.0000 0.03640  0.38380  0.14960  Biso   1.000  H
  H231     1.0000 0.00950  0.41520  0.08040  Biso   1.000  H
  C242     1.0000 0.74265  0.48910  0.57160  Biso   1.000  C
  H232     1.0000 0.73310  0.50120  0.63440  Biso   1.000  H
  C243     1.0000 0.27980  0.16780  0.13840  Biso   1.000  C
  H233     1.0000 0.30920  0.18250  0.11190  Biso   1.000  H
  C244     1.0000 0.24000  0.20180  0.16260  Biso   1.000  C
  H234     1.0000 0.24260  0.23820  0.15160  Biso   1.000  H
  C245     1.0000 0.19570  0.12740  0.21760  Biso   1.000  C
  H235     1.0000 0.16660  0.11220  0.24420  Biso   1.000  H
  C246     1.0000 0.23840  0.09660  0.19210  Biso   1.000  C
  H236     1.0000 0.23850  0.06040  0.20500  Biso   1.000  H
  C247     1.0000 0.15050  0.26830  0.19690  Biso   1.000  C
  H237     1.0000 0.17430  0.27950  0.15670  Biso   1.000  H
  C248     1.0000 0.67590  0.54110  0.51240  Biso   1.000  C
  C249     1.0000 0.63750  0.53280  0.57420  Biso   1.000  C
  H238     1.0000 0.64220  0.50540  0.61210  Biso   1.000  H
  C250     1.0000 0.59210  0.56590  0.57870  Biso   1.000  C
  H239     1.0000 0.56680  0.56050  0.61950  Biso   1.000  H
  N26      1.0000 0.58500  0.60730  0.52140  Biso   1.000  N
  C251     1.0000 0.62340  0.61560  0.45960  Biso   1.000  C
  H240     1.0000 0.61870  0.64290  0.42170  Biso   1.000  H
  C252     1.0000 0.66880  0.58250  0.45510  Biso   1.000  C
  H241     1.0000 0.69410  0.58790  0.41430  Biso   1.000  H
  C253     1.0000 0.26470  0.15920  0.10530  Biso   1.000  C
  H242     1.0000 0.28200  0.16570  0.05600  Biso   1.000  H
  C254     1.0000 0.22590  0.19270  0.12940  Biso   1.000  C
  H243     1.0000 0.21770  0.22260  0.09800  Biso   1.000  H
  C255     1.0000 0.21300  0.14000  0.24240  Biso   1.000  C
  H244     1.0000 0.19590  0.13140  0.29120  Biso   1.000  H
  C256     1.0000 0.25280  0.10820  0.21470  Biso   1.000  C
  H245     1.0000 0.26130  0.07810  0.24550  Biso   1.000  H
  C257     1.0000 0.67770  0.54960  0.46550  Biso   1.000  C
  C258     1.0000 0.64380  0.54400  0.40420  Biso   1.000  C
  H246     1.0000 0.64880  0.51680  0.36620  Biso   1.000  H
  C259     1.0000 0.60290  0.57690  0.39680  Biso   1.000  C
  H247     1.0000 0.57910  0.57300  0.35360  Biso   1.000  H
  N27      1.0000 0.59590  0.61560  0.45060  Biso   1.000  N
  C260     1.0000 0.62970  0.62120  0.51200  Biso   1.000  C
  H248     1.0000 0.62480  0.64840  0.54990  Biso   1.000  H
  C261     1.0000 0.67060  0.58830  0.51940  Biso   1.000  C
  H249     1.0000 0.69450  0.59230  0.56260  Biso   1.000  H
  H250     1.0000 0.96440  0.23630  0.55510  Biso   1.000  H
  H251     1.0000 0.99010  0.24190  0.46820  Biso   1.000  H
  H252     1.0000 0.92920  0.22870  0.47670  Biso   1.000  H
  Co19     1.0000 0.06729  0.66047  0.40036  Biso   1.000  Co
  Co20     1.0000 0.00307  0.56336  0.31171  Biso   1.000  Co
  O55      1.0000 0.00310  0.69412  0.34462  Biso   1.000  O
  O56      1.0000 0.95391  0.62630  0.30232  Biso   1.000  O
  O57      1.0000 0.01951  0.58964  0.43299  Biso   1.000  O
  O58      1.0000 0.06935  0.61276  0.29717  Biso   1.000  O
  O59      1.0000 0.99697  0.55084  0.18598  Biso   1.000  O
  O60      1.0000 0.13343  0.61839  0.43279  Biso   1.000  O
  N28      1.0000 0.72045  0.88364  0.14974  Biso   1.000  N
  C262     1.0000 0.84503  0.78199  0.22800  Biso   1.000  C
  C263     1.0000 0.88770  0.69780  0.22300  Biso   1.000  C
  H253     1.0000 0.89500  0.66810  0.19290  Biso   1.000  H
  C264     1.0000 0.92295  0.71241  0.28100  Biso   1.000  C
  C265     1.0000 0.88100  0.79671  0.28470  Biso   1.000  C
  H254     1.0000 0.87920  0.83090  0.30690  Biso   1.000  H
  C266     1.0000 0.80202  0.81733  0.20170  Biso   1.000  C
  C267     1.0000 0.21611  0.54707  0.57190  Biso   1.000  C
  H255     1.0000 0.20220  0.55910  0.62130  Biso   1.000  H
  C268     1.0000 0.92020  0.76247  0.31050  Biso   1.000  C
  H256     1.0000 0.94450  0.77370  0.34820  Biso   1.000  H
  C269     1.0000 0.96366  0.67462  0.31178  Biso   1.000  C
  C270     1.0000 0.99365  0.59582  0.13510  Biso   1.000  C
  H257     1.0000 0.02460  0.61670  0.14120  Biso   1.000  H
  H258     1.0000 0.96360  0.61620  0.14960  Biso   1.000  H
  H259     1.0000 0.99050  0.58480  0.08040  Biso   1.000  H
  C271     1.0000 0.25735  0.51090  0.57160  Biso   1.000  C
  H260     1.0000 0.26690  0.49880  0.63440  Biso   1.000  H
  C272     1.0000 0.72020  0.83220  0.13840  Biso   1.000  C
  H261     1.0000 0.69080  0.81750  0.11190  Biso   1.000  H
  C273     1.0000 0.76000  0.79820  0.16260  Biso   1.000  C
  H262     1.0000 0.75740  0.76180  0.15160  Biso   1.000  H
  C274     1.0000 0.80430  0.87260  0.21760  Biso   1.000  C
  H263     1.0000 0.83340  0.88780  0.24420  Biso   1.000  H
  C275     1.0000 0.76160  0.90340  0.19210  Biso   1.000  C
  H264     1.0000 0.76150  0.93960  0.20500  Biso   1.000  H
  C276     1.0000 0.84950  0.73170  0.19690  Biso   1.000  C
  H265     1.0000 0.82570  0.72050  0.15670  Biso   1.000  H
  C277     1.0000 0.32410  0.45890  0.51240  Biso   1.000  C
  C278     1.0000 0.36250  0.46720  0.57420  Biso   1.000  C
  H266     1.0000 0.35780  0.49460  0.61210  Biso   1.000  H
  C279     1.0000 0.40790  0.43410  0.57870  Biso   1.000  C
  H267     1.0000 0.43320  0.43950  0.61950  Biso   1.000  H
  N29      1.0000 0.41500  0.39270  0.52140  Biso   1.000  N
  C280     1.0000 0.37660  0.38440  0.45960  Biso   1.000  C
  H268     1.0000 0.38130  0.35710  0.42170  Biso   1.000  H
  C281     1.0000 0.33120  0.41750  0.45510  Biso   1.000  C
  H269     1.0000 0.30590  0.41210  0.41430  Biso   1.000  H
  C282     1.0000 0.73530  0.84080  0.10530  Biso   1.000  C
  H270     1.0000 0.71800  0.83430  0.05600  Biso   1.000  H
  C283     1.0000 0.77410  0.80730  0.12940  Biso   1.000  C
  H271     1.0000 0.78230  0.77740  0.09800  Biso   1.000  H
  C284     1.0000 0.78700  0.86000  0.24240  Biso   1.000  C
  H272     1.0000 0.80410  0.86860  0.29120  Biso   1.000  H
  C285     1.0000 0.74720  0.89180  0.21470  Biso   1.000  C
  H273     1.0000 0.73870  0.92190  0.24550  Biso   1.000  H
  C286     1.0000 0.32230  0.45040  0.46550  Biso   1.000  C
  C287     1.0000 0.35620  0.45600  0.40420  Biso   1.000  C
  H274     1.0000 0.35120  0.48320  0.36620  Biso   1.000  H
  C288     1.0000 0.39710  0.42310  0.39680  Biso   1.000  C
  H275     1.0000 0.42090  0.42700  0.35360  Biso   1.000  H
  N30      1.0000 0.40410  0.38440  0.45060  Biso   1.000  N
  C289     1.0000 0.37030  0.37880  0.51200  Biso   1.000  C
  H276     1.0000 0.37520  0.35160  0.54990  Biso   1.000  H
  C290     1.0000 0.32940  0.41170  0.51940  Biso   1.000  C
  H277     1.0000 0.30550  0.40770  0.56260  Biso   1.000  H
  H278     1.0000 0.03560  0.76370  0.55510  Biso   1.000  H
  H279     1.0000 0.00990  0.75810  0.46820  Biso   1.000  H
  H280     1.0000 0.07080  0.77130  0.47670  Biso   1.000  H
  Co21     1.0000 0.66047  0.93271  0.90036  Biso   1.000  Co
  Co22     1.0000 0.56336  0.99693  0.81171  Biso   1.000  Co
  O61      1.0000 0.69412  0.99690  0.84462  Biso   1.000  O
  O62      1.0000 0.62630  0.04609  0.80232  Biso   1.000  O
  O63      1.0000 0.58964  0.98049  0.93299  Biso   1.000  O
  O64      1.0000 0.61276  0.93065  0.79717  Biso   1.000  O
  O65      1.0000 0.55084  0.00303  0.68598  Biso   1.000  O
  O66      1.0000 0.61839  0.86657  0.93279  Biso   1.000  O
  N31      1.0000 0.88364  0.27955  0.64974  Biso   1.000  N
  C291     1.0000 0.78199  0.15497  0.72800  Biso   1.000  C
  C292     1.0000 0.69780  0.11230  0.72300  Biso   1.000  C
  H281     1.0000 0.66810  0.10500  0.69290  Biso   1.000  H
  C293     1.0000 0.71241  0.07705  0.78100  Biso   1.000  C
  C294     1.0000 0.79671  0.11900  0.78470  Biso   1.000  C
  H282     1.0000 0.83090  0.12080  0.80690  Biso   1.000  H
  C295     1.0000 0.81733  0.19798  0.70170  Biso   1.000  C
  C296     1.0000 0.54707  0.78389  0.07190  Biso   1.000  C
  H283     1.0000 0.55910  0.79780  0.12130  Biso   1.000  H
  C297     1.0000 0.76247  0.07980  0.81050  Biso   1.000  C
  H284     1.0000 0.77370  0.05550  0.84820  Biso   1.000  H
  C298     1.0000 0.67462  0.03634  0.81178  Biso   1.000  C
  C299     1.0000 0.59582  0.00635  0.63510  Biso   1.000  C
  H285     1.0000 0.61670  0.97540  0.64120  Biso   1.000  H
  H286     1.0000 0.61620  0.03640  0.64960  Biso   1.000  H
  H287     1.0000 0.58480  0.00950  0.58040  Biso   1.000  H
  C300     1.0000 0.51090  0.74265  0.07160  Biso   1.000  C
  H288     1.0000 0.49880  0.73310  0.13440  Biso   1.000  H
  C301     1.0000 0.83220  0.27980  0.63840  Biso   1.000  C
  H289     1.0000 0.81750  0.30920  0.61190  Biso   1.000  H
  C302     1.0000 0.79820  0.24000  0.66260  Biso   1.000  C
  H290     1.0000 0.76180  0.24260  0.65160  Biso   1.000  H
  C303     1.0000 0.87260  0.19570  0.71760  Biso   1.000  C
  H291     1.0000 0.88780  0.16660  0.74420  Biso   1.000  H
  C304     1.0000 0.90340  0.23840  0.69210  Biso   1.000  C
  H292     1.0000 0.93960  0.23850  0.70500  Biso   1.000  H
  C305     1.0000 0.73170  0.15050  0.69690  Biso   1.000  C
  H293     1.0000 0.72050  0.17430  0.65670  Biso   1.000  H
  C306     1.0000 0.45890  0.67590  0.01240  Biso   1.000  C
  C307     1.0000 0.46720  0.63750  0.07420  Biso   1.000  C
  H294     1.0000 0.49460  0.64220  0.11210  Biso   1.000  H
  C308     1.0000 0.43410  0.59210  0.07870  Biso   1.000  C
  H295     1.0000 0.43950  0.56680  0.11950  Biso   1.000  H
  N32      1.0000 0.39270  0.58500  0.02140  Biso   1.000  N
  C309     1.0000 0.38440  0.62340  0.95960  Biso   1.000  C
  H296     1.0000 0.35710  0.61870  0.92170  Biso   1.000  H
  C310     1.0000 0.41750  0.66880  0.95510  Biso   1.000  C
  H297     1.0000 0.41210  0.69410  0.91430  Biso   1.000  H
  C311     1.0000 0.84080  0.26470  0.60530  Biso   1.000  C
  H298     1.0000 0.83430  0.28200  0.55600  Biso   1.000  H
  C312     1.0000 0.80730  0.22590  0.62940  Biso   1.000  C
  H299     1.0000 0.77740  0.21770  0.59800  Biso   1.000  H
  C313     1.0000 0.86000  0.21300  0.74240  Biso   1.000  C
  H300     1.0000 0.86860  0.19590  0.79120  Biso   1.000  H
  C314     1.0000 0.89180  0.25280  0.71470  Biso   1.000  C
  H301     1.0000 0.92190  0.26130  0.74550  Biso   1.000  H
  C315     1.0000 0.45040  0.67770  0.96550  Biso   1.000  C
  C316     1.0000 0.45600  0.64380  0.90420  Biso   1.000  C
  H302     1.0000 0.48320  0.64880  0.86620  Biso   1.000  H
  C317     1.0000 0.42310  0.60290  0.89680  Biso   1.000  C
  H303     1.0000 0.42700  0.57910  0.85360  Biso   1.000  H
  N33      1.0000 0.38440  0.59590  0.95060  Biso   1.000  N
  C318     1.0000 0.37880  0.62970  0.01200  Biso   1.000  C
  H304     1.0000 0.35160  0.62480  0.04990  Biso   1.000  H
  C319     1.0000 0.41170  0.67060  0.01940  Biso   1.000  C
  H305     1.0000 0.40770  0.69450  0.06260  Biso   1.000  H
  H306     1.0000 0.76370  0.96440  0.05510  Biso   1.000  H
  H307     1.0000 0.75810  0.99010  0.96820  Biso   1.000  H
  H308     1.0000 0.77130  0.92920  0.97670  Biso   1.000  H
  Co23     1.0000 0.33953  0.06729  0.90036  Biso   1.000  Co
  Co24     1.0000 0.43664  0.00307  0.81171  Biso   1.000  Co
  O67      1.0000 0.30588  0.00310  0.84462  Biso   1.000  O
  O68      1.0000 0.37370  0.95391  0.80232  Biso   1.000  O
  O69      1.0000 0.41036  0.01951  0.93299  Biso   1.000  O
  O70      1.0000 0.38724  0.06935  0.79717  Biso   1.000  O
  O71      1.0000 0.44916  0.99697  0.68598  Biso   1.000  O
  O72      1.0000 0.38161  0.13343  0.93279  Biso   1.000  O
  N34      1.0000 0.11636  0.72045  0.64974  Biso   1.000  N
  C320     1.0000 0.21801  0.84503  0.72800  Biso   1.000  C
  C321     1.0000 0.30220  0.88770  0.72300  Biso   1.000  C
  H309     1.0000 0.33190  0.89500  0.69290  Biso   1.000  H
  C322     1.0000 0.28759  0.92295  0.78100  Biso   1.000  C
  C323     1.0000 0.20329  0.88100  0.78470  Biso   1.000  C
  H310     1.0000 0.16910  0.87920  0.80690  Biso   1.000  H
  C324     1.0000 0.18267  0.80202  0.70170  Biso   1.000  C
  C325     1.0000 0.45293  0.21611  0.07190  Biso   1.000  C
  H311     1.0000 0.44090  0.20220  0.12130  Biso   1.000  H
  C326     1.0000 0.23753  0.92020  0.81050  Biso   1.000  C
  H312     1.0000 0.22630  0.94450  0.84820  Biso   1.000  H
  C327     1.0000 0.32538  0.96366  0.81178  Biso   1.000  C
  C328     1.0000 0.40418  0.99365  0.63510  Biso   1.000  C
  H313     1.0000 0.38330  0.02460  0.64120  Biso   1.000  H
  H314     1.0000 0.38380  0.96360  0.64960  Biso   1.000  H
  H315     1.0000 0.41520  0.99050  0.58040  Biso   1.000  H
  C329     1.0000 0.48910  0.25735  0.07160  Biso   1.000  C
  H316     1.0000 0.50120  0.26690  0.13440  Biso   1.000  H
  C330     1.0000 0.16780  0.72020  0.63840  Biso   1.000  C
  H317     1.0000 0.18250  0.69080  0.61190  Biso   1.000  H
  C331     1.0000 0.20180  0.76000  0.66260  Biso   1.000  C
  H318     1.0000 0.23820  0.75740  0.65160  Biso   1.000  H
  C332     1.0000 0.12740  0.80430  0.71760  Biso   1.000  C
  H319     1.0000 0.11220  0.83340  0.74420  Biso   1.000  H
  C333     1.0000 0.09660  0.76160  0.69210  Biso   1.000  C
  H320     1.0000 0.06040  0.76150  0.70500  Biso   1.000  H
  C334     1.0000 0.26830  0.84950  0.69690  Biso   1.000  C
  H321     1.0000 0.27950  0.82570  0.65670  Biso   1.000  H
  C335     1.0000 0.54110  0.32410  0.01240  Biso   1.000  C
  C336     1.0000 0.53280  0.36250  0.07420  Biso   1.000  C
  H322     1.0000 0.50540  0.35780  0.11210  Biso   1.000  H
  C337     1.0000 0.56590  0.40790  0.07870  Biso   1.000  C
  H323     1.0000 0.56050  0.43320  0.11950  Biso   1.000  H
  N35      1.0000 0.60730  0.41500  0.02140  Biso   1.000  N
  C338     1.0000 0.61560  0.37660  0.95960  Biso   1.000  C
  H324     1.0000 0.64290  0.38130  0.92170  Biso   1.000  H
  C339     1.0000 0.58250  0.33120  0.95510  Biso   1.000  C
  H325     1.0000 0.58790  0.30590  0.91430  Biso   1.000  H
  C340     1.0000 0.15920  0.73530  0.60530  Biso   1.000  C
  H326     1.0000 0.16570  0.71800  0.55600  Biso   1.000  H
  C341     1.0000 0.19270  0.77410  0.62940  Biso   1.000  C
  H327     1.0000 0.22260  0.78230  0.59800  Biso   1.000  H
  C342     1.0000 0.14000  0.78700  0.74240  Biso   1.000  C
  H328     1.0000 0.13140  0.80410  0.79120  Biso   1.000  H
  C343     1.0000 0.10820  0.74720  0.71470  Biso   1.000  C
  H329     1.0000 0.07810  0.73870  0.74550  Biso   1.000  H
  C344     1.0000 0.54960  0.32230  0.96550  Biso   1.000  C
  C345     1.0000 0.54400  0.35620  0.90420  Biso   1.000  C
  H330     1.0000 0.51680  0.35120  0.86620  Biso   1.000  H
  C346     1.0000 0.57690  0.39710  0.89680  Biso   1.000  C
  H331     1.0000 0.57300  0.42090  0.85360  Biso   1.000  H
  N36      1.0000 0.61560  0.40410  0.95060  Biso   1.000  N
  C347     1.0000 0.62120  0.37030  0.01200  Biso   1.000  C
  H332     1.0000 0.64840  0.37520  0.04990  Biso   1.000  H
  C348     1.0000 0.58830  0.32940  0.01940  Biso   1.000  C
  H333     1.0000 0.59230  0.30550  0.06260  Biso   1.000  H
  H334     1.0000 0.23630  0.03560  0.05510  Biso   1.000  H
  H335     1.0000 0.24190  0.00990  0.96820  Biso   1.000  H
  H336     1.0000 0.22870  0.07080  0.97670  Biso   1.000  H
  Co25     1.0000 0.56729  0.83953  0.59964  Biso   1.000  Co
  Co26     1.0000 0.50307  0.93664  0.68829  Biso   1.000  Co
  O73      1.0000 0.50310  0.80588  0.65538  Biso   1.000  O
  O74      1.0000 0.45391  0.87370  0.69768  Biso   1.000  O
  O75      1.0000 0.51951  0.91036  0.56701  Biso   1.000  O
  O76      1.0000 0.56935  0.88724  0.70283  Biso   1.000  O
  O77      1.0000 0.49697  0.94916  0.81402  Biso   1.000  O
  O78      1.0000 0.63343  0.88161  0.56721  Biso   1.000  O
  N37      1.0000 0.22045  0.61636  0.85026  Biso   1.000  N
  C349     1.0000 0.34503  0.71801  0.77200  Biso   1.000  C
  C350     1.0000 0.38770  0.80220  0.77700  Biso   1.000  C
  H337     1.0000 0.39500  0.83190  0.80710  Biso   1.000  H
  C351     1.0000 0.42295  0.78759  0.71900  Biso   1.000  C
  C352     1.0000 0.38100  0.70329  0.71530  Biso   1.000  C
  H338     1.0000 0.37920  0.66910  0.69310  Biso   1.000  H
  C353     1.0000 0.30202  0.68267  0.79830  Biso   1.000  C
  C354     1.0000 0.71611  0.95293  0.42810  Biso   1.000  C
  H339     1.0000 0.70220  0.94090  0.37870  Biso   1.000  H
  C355     1.0000 0.42020  0.73753  0.68950  Biso   1.000  C
  H340     1.0000 0.44450  0.72630  0.65180  Biso   1.000  H
  C356     1.0000 0.46366  0.82538  0.68822  Biso   1.000  C
  C357     1.0000 0.49365  0.90418  0.86490  Biso   1.000  C
  H341     1.0000 0.52460  0.88330  0.85880  Biso   1.000  H
  H342     1.0000 0.46360  0.88380  0.85040  Biso   1.000  H
  H343     1.0000 0.49050  0.91520  0.91960  Biso   1.000  H
  C358     1.0000 0.75735  0.98910  0.42840  Biso   1.000  C
  H344     1.0000 0.76690  0.00120  0.36560  Biso   1.000  H
  C359     1.0000 0.22020  0.66780  0.86160  Biso   1.000  C
  H345     1.0000 0.19080  0.68250  0.88810  Biso   1.000  H
  C360     1.0000 0.26000  0.70180  0.83740  Biso   1.000  C
  H346     1.0000 0.25740  0.73820  0.84840  Biso   1.000  H
  C361     1.0000 0.30430  0.62740  0.78240  Biso   1.000  C
  H347     1.0000 0.33340  0.61220  0.75580  Biso   1.000  H
  C362     1.0000 0.26160  0.59660  0.80790  Biso   1.000  C
  H348     1.0000 0.26150  0.56040  0.79500  Biso   1.000  H
  C363     1.0000 0.34950  0.76830  0.80310  Biso   1.000  C
  H349     1.0000 0.32570  0.77950  0.84330  Biso   1.000  H
  C364     1.0000 0.82410  0.04110  0.48760  Biso   1.000  C
  C365     1.0000 0.86250  0.03280  0.42580  Biso   1.000  C
  H350     1.0000 0.85780  0.00540  0.38790  Biso   1.000  H
  C366     1.0000 0.90790  0.06590  0.42130  Biso   1.000  C
  H351     1.0000 0.93320  0.06050  0.38050  Biso   1.000  H
  N38      1.0000 0.91500  0.10730  0.47860  Biso   1.000  N
  C367     1.0000 0.87660  0.11560  0.54040  Biso   1.000  C
  H352     1.0000 0.88130  0.14290  0.57830  Biso   1.000  H
  C368     1.0000 0.83120  0.08250  0.54490  Biso   1.000  C
  H353     1.0000 0.80590  0.08790  0.58570  Biso   1.000  H
  C369     1.0000 0.23530  0.65920  0.89470  Biso   1.000  C
  H354     1.0000 0.21800  0.66570  0.94400  Biso   1.000  H
  C370     1.0000 0.27410  0.69270  0.87060  Biso   1.000  C
  H355     1.0000 0.28230  0.72260  0.90200  Biso   1.000  H
  C371     1.0000 0.28700  0.64000  0.75760  Biso   1.000  C
  H356     1.0000 0.30410  0.63140  0.70880  Biso   1.000  H
  C372     1.0000 0.24720  0.60820  0.78530  Biso   1.000  C
  H357     1.0000 0.23870  0.57810  0.75450  Biso   1.000  H
  C373     1.0000 0.82230  0.04960  0.53450  Biso   1.000  C
  C374     1.0000 0.85620  0.04400  0.59580  Biso   1.000  C
  H358     1.0000 0.85120  0.01680  0.63380  Biso   1.000  H
  C375     1.0000 0.89710  0.07690  0.60320  Biso   1.000  C
  H359     1.0000 0.92090  0.07300  0.64640  Biso   1.000  H
  N39      1.0000 0.90410  0.11560  0.54940  Biso   1.000  N
  C376     1.0000 0.87030  0.12120  0.48800  Biso   1.000  C
  H360     1.0000 0.87520  0.14840  0.45010  Biso   1.000  H
  C377     1.0000 0.82940  0.08830  0.48060  Biso   1.000  C
  H361     1.0000 0.80550  0.09230  0.43740  Biso   1.000  H
  H362     1.0000 0.53560  0.73630  0.44490  Biso   1.000  H
  H363     1.0000 0.50990  0.74190  0.53180  Biso   1.000  H
  H364     1.0000 0.57080  0.72870  0.52330  Biso   1.000  H
  Co27     1.0000 0.43271  0.16047  0.59964  Biso   1.000  Co
  Co28     1.0000 0.49693  0.06336  0.68829  Biso   1.000  Co
  O79      1.0000 0.49690  0.19412  0.65538  Biso   1.000  O
  O80      1.0000 0.54609  0.12630  0.69768  Biso   1.000  O
  O81      1.0000 0.48049  0.08964  0.56701  Biso   1.000  O
  O82      1.0000 0.43065  0.11276  0.70283  Biso   1.000  O
  O83      1.0000 0.50303  0.05084  0.81402  Biso   1.000  O
  O84      1.0000 0.36657  0.11839  0.56721  Biso   1.000  O
  N40      1.0000 0.77955  0.38364  0.85026  Biso   1.000  N
  C378     1.0000 0.65497  0.28199  0.77200  Biso   1.000  C
  C379     1.0000 0.61230  0.19780  0.77700  Biso   1.000  C
  H365     1.0000 0.60500  0.16810  0.80710  Biso   1.000  H
  C380     1.0000 0.57705  0.21241  0.71900  Biso   1.000  C
  C381     1.0000 0.61900  0.29671  0.71530  Biso   1.000  C
  H366     1.0000 0.62080  0.33090  0.69310  Biso   1.000  H
  C382     1.0000 0.69798  0.31733  0.79830  Biso   1.000  C
  C383     1.0000 0.28389  0.04707  0.42810  Biso   1.000  C
  H367     1.0000 0.29780  0.05910  0.37870  Biso   1.000  H
  C384     1.0000 0.57980  0.26247  0.68950  Biso   1.000  C
  H368     1.0000 0.55550  0.27370  0.65180  Biso   1.000  H
  C385     1.0000 0.53634  0.17462  0.68822  Biso   1.000  C
  C386     1.0000 0.50635  0.09582  0.86490  Biso   1.000  C
  H369     1.0000 0.47540  0.11670  0.85880  Biso   1.000  H
  H370     1.0000 0.53640  0.11620  0.85040  Biso   1.000  H
  H371     1.0000 0.50950  0.08480  0.91960  Biso   1.000  H
  C387     1.0000 0.24265  0.01090  0.42840  Biso   1.000  C
  H372     1.0000 0.23310  0.99880  0.36560  Biso   1.000  H
  C388     1.0000 0.77980  0.33220  0.86160  Biso   1.000  C
  H373     1.0000 0.80920  0.31750  0.88810  Biso   1.000  H
  C389     1.0000 0.74000  0.29820  0.83740  Biso   1.000  C
  H374     1.0000 0.74260  0.26180  0.84840  Biso   1.000  H
  C390     1.0000 0.69570  0.37260  0.78240  Biso   1.000  C
  H375     1.0000 0.66660  0.38780  0.75580  Biso   1.000  H
  C391     1.0000 0.73840  0.40340  0.80790  Biso   1.000  C
  H376     1.0000 0.73850  0.43960  0.79500  Biso   1.000  H
  C392     1.0000 0.65050  0.23170  0.80310  Biso   1.000  C
  H377     1.0000 0.67430  0.22050  0.84330  Biso   1.000  H
  C393     1.0000 0.17590  0.95890  0.48760  Biso   1.000  C
  C394     1.0000 0.13750  0.96720  0.42580  Biso   1.000  C
  H378     1.0000 0.14220  0.99460  0.38790  Biso   1.000  H
  C395     1.0000 0.09210  0.93410  0.42130  Biso   1.000  C
  H379     1.0000 0.06680  0.93950  0.38050  Biso   1.000  H
  N41      1.0000 0.08500  0.89270  0.47860  Biso   1.000  N
  C396     1.0000 0.12340  0.88440  0.54040  Biso   1.000  C
  H380     1.0000 0.11870  0.85710  0.57830  Biso   1.000  H
  C397     1.0000 0.16880  0.91750  0.54490  Biso   1.000  C
  H381     1.0000 0.19410  0.91210  0.58570  Biso   1.000  H
  C398     1.0000 0.76470  0.34080  0.89470  Biso   1.000  C
  H382     1.0000 0.78200  0.33430  0.94400  Biso   1.000  H
  C399     1.0000 0.72590  0.30730  0.87060  Biso   1.000  C
  H383     1.0000 0.71770  0.27740  0.90200  Biso   1.000  H
  C400     1.0000 0.71300  0.36000  0.75760  Biso   1.000  C
  H384     1.0000 0.69590  0.36860  0.70880  Biso   1.000  H
  C401     1.0000 0.75280  0.39180  0.78530  Biso   1.000  C
  H385     1.0000 0.76130  0.42190  0.75450  Biso   1.000  H
  C402     1.0000 0.17770  0.95040  0.53450  Biso   1.000  C
  C403     1.0000 0.14380  0.95600  0.59580  Biso   1.000  C
  H386     1.0000 0.14880  0.98320  0.63380  Biso   1.000  H
  C404     1.0000 0.10290  0.92310  0.60320  Biso   1.000  C
  H387     1.0000 0.07910  0.92700  0.64640  Biso   1.000  H
  N42      1.0000 0.09590  0.88440  0.54940  Biso   1.000  N
  C405     1.0000 0.12970  0.87880  0.48800  Biso   1.000  C
  H388     1.0000 0.12480  0.85160  0.45010  Biso   1.000  H
  C406     1.0000 0.17060  0.91170  0.48060  Biso   1.000  C
  H389     1.0000 0.19450  0.90770  0.43740  Biso   1.000  H
  H390     1.0000 0.46440  0.26370  0.44490  Biso   1.000  H
  H391     1.0000 0.49010  0.25810  0.53180  Biso   1.000  H
  H392     1.0000 0.42920  0.27130  0.52330  Biso   1.000  H
  Co29     1.0000 0.83953  0.43271  0.09964  Biso   1.000  Co
  Co30     1.0000 0.93664  0.49693  0.18829  Biso   1.000  Co
  O85      1.0000 0.80588  0.49690  0.15538  Biso   1.000  O
  O86      1.0000 0.87370  0.54609  0.19768  Biso   1.000  O
  O87      1.0000 0.91036  0.48049  0.06701  Biso   1.000  O
  O88      1.0000 0.88724  0.43065  0.20283  Biso   1.000  O
  O89      1.0000 0.94916  0.50303  0.31402  Biso   1.000  O
  O90      1.0000 0.88161  0.36657  0.06721  Biso   1.000  O
  N43      1.0000 0.61636  0.77955  0.35026  Biso   1.000  N
  C407     1.0000 0.71801  0.65497  0.27200  Biso   1.000  C
  C408     1.0000 0.80220  0.61230  0.27700  Biso   1.000  C
  H393     1.0000 0.83190  0.60500  0.30710  Biso   1.000  H
  C409     1.0000 0.78759  0.57705  0.21900  Biso   1.000  C
  C410     1.0000 0.70329  0.61900  0.21530  Biso   1.000  C
  H394     1.0000 0.66910  0.62080  0.19310  Biso   1.000  H
  C411     1.0000 0.68267  0.69798  0.29830  Biso   1.000  C
  C412     1.0000 0.95293  0.28389  0.92810  Biso   1.000  C
  H395     1.0000 0.94090  0.29780  0.87870  Biso   1.000  H
  C413     1.0000 0.73753  0.57980  0.18950  Biso   1.000  C
  H396     1.0000 0.72630  0.55550  0.15180  Biso   1.000  H
  C414     1.0000 0.82538  0.53634  0.18822  Biso   1.000  C
  C415     1.0000 0.90418  0.50635  0.36490  Biso   1.000  C
  H397     1.0000 0.88330  0.47540  0.35880  Biso   1.000  H
  H398     1.0000 0.88380  0.53640  0.35040  Biso   1.000  H
  H399     1.0000 0.91520  0.50950  0.41960  Biso   1.000  H
  C416     1.0000 0.98910  0.24265  0.92840  Biso   1.000  C
  H400     1.0000 0.00120  0.23310  0.86560  Biso   1.000  H
  C417     1.0000 0.66780  0.77980  0.36160  Biso   1.000  C
  H401     1.0000 0.68250  0.80920  0.38810  Biso   1.000  H
  C418     1.0000 0.70180  0.74000  0.33740  Biso   1.000  C
  H402     1.0000 0.73820  0.74260  0.34840  Biso   1.000  H
  C419     1.0000 0.62740  0.69570  0.28240  Biso   1.000  C
  H403     1.0000 0.61220  0.66660  0.25580  Biso   1.000  H
  C420     1.0000 0.59660  0.73840  0.30790  Biso   1.000  C
  H404     1.0000 0.56040  0.73850  0.29500  Biso   1.000  H
  C421     1.0000 0.76830  0.65050  0.30310  Biso   1.000  C
  H405     1.0000 0.77950  0.67430  0.34330  Biso   1.000  H
  C422     1.0000 0.04110  0.17590  0.98760  Biso   1.000  C
  C423     1.0000 0.03280  0.13750  0.92580  Biso   1.000  C
  H406     1.0000 0.00540  0.14220  0.88790  Biso   1.000  H
  C424     1.0000 0.06590  0.09210  0.92130  Biso   1.000  C
  H407     1.0000 0.06050  0.06680  0.88050  Biso   1.000  H
  N44      1.0000 0.10730  0.08500  0.97860  Biso   1.000  N
  C425     1.0000 0.11560  0.12340  0.04040  Biso   1.000  C
  H408     1.0000 0.14290  0.11870  0.07830  Biso   1.000  H
  C426     1.0000 0.08250  0.16880  0.04490  Biso   1.000  C
  H409     1.0000 0.08790  0.19410  0.08570  Biso   1.000  H
  C427     1.0000 0.65920  0.76470  0.39470  Biso   1.000  C
  H410     1.0000 0.66570  0.78200  0.44400  Biso   1.000  H
  C428     1.0000 0.69270  0.72590  0.37060  Biso   1.000  C
  H411     1.0000 0.72260  0.71770  0.40200  Biso   1.000  H
  C429     1.0000 0.64000  0.71300  0.25760  Biso   1.000  C
  H412     1.0000 0.63140  0.69590  0.20880  Biso   1.000  H
  C430     1.0000 0.60820  0.75280  0.28530  Biso   1.000  C
  H413     1.0000 0.57810  0.76130  0.25450  Biso   1.000  H
  C431     1.0000 0.04960  0.17770  0.03450  Biso   1.000  C
  C432     1.0000 0.04400  0.14380  0.09580  Biso   1.000  C
  H414     1.0000 0.01680  0.14880  0.13380  Biso   1.000  H
  C433     1.0000 0.07690  0.10290  0.10320  Biso   1.000  C
  H415     1.0000 0.07300  0.07910  0.14640  Biso   1.000  H
  N45      1.0000 0.11560  0.09590  0.04940  Biso   1.000  N
  C434     1.0000 0.12120  0.12970  0.98800  Biso   1.000  C
  H416     1.0000 0.14840  0.12480  0.95010  Biso   1.000  H
  C435     1.0000 0.08830  0.17060  0.98060  Biso   1.000  C
  H417     1.0000 0.09230  0.19450  0.93740  Biso   1.000  H
  H418     1.0000 0.73630  0.46440  0.94490  Biso   1.000  H
  H419     1.0000 0.74190  0.49010  0.03180  Biso   1.000  H
  H420     1.0000 0.72870  0.42920  0.02330  Biso   1.000  H
  Co31     1.0000 0.16047  0.56729  0.09964  Biso   1.000  Co
  Co32     1.0000 0.06336  0.50307  0.18829  Biso   1.000  Co
  O91      1.0000 0.19412  0.50310  0.15538  Biso   1.000  O
  O92      1.0000 0.12630  0.45391  0.19768  Biso   1.000  O
  O93      1.0000 0.08964  0.51951  0.06701  Biso   1.000  O
  O94      1.0000 0.11276  0.56935  0.20283  Biso   1.000  O
  O95      1.0000 0.05084  0.49697  0.31402  Biso   1.000  O
  O96      1.0000 0.11839  0.63343  0.06721  Biso   1.000  O
  N46      1.0000 0.38364  0.22045  0.35026  Biso   1.000  N
  C436     1.0000 0.28199  0.34503  0.27200  Biso   1.000  C
  C437     1.0000 0.19780  0.38770  0.27700  Biso   1.000  C
  H421     1.0000 0.16810  0.39500  0.30710  Biso   1.000  H
  C438     1.0000 0.21241  0.42295  0.21900  Biso   1.000  C
  C439     1.0000 0.29671  0.38100  0.21530  Biso   1.000  C
  H422     1.0000 0.33090  0.37920  0.19310  Biso   1.000  H
  C440     1.0000 0.31733  0.30202  0.29830  Biso   1.000  C
  C441     1.0000 0.04707  0.71611  0.92810  Biso   1.000  C
  H423     1.0000 0.05910  0.70220  0.87870  Biso   1.000  H
  C442     1.0000 0.26247  0.42020  0.18950  Biso   1.000  C
  H424     1.0000 0.27370  0.44450  0.15180  Biso   1.000  H
  C443     1.0000 0.17462  0.46366  0.18822  Biso   1.000  C
  C444     1.0000 0.09582  0.49365  0.36490  Biso   1.000  C
  H425     1.0000 0.11670  0.52460  0.35880  Biso   1.000  H
  H426     1.0000 0.11620  0.46360  0.35040  Biso   1.000  H
  H427     1.0000 0.08480  0.49050  0.41960  Biso   1.000  H
  C445     1.0000 0.01090  0.75735  0.92840  Biso   1.000  C
  H428     1.0000 0.99880  0.76690  0.86560  Biso   1.000  H
  C446     1.0000 0.33220  0.22020  0.36160  Biso   1.000  C
  H429     1.0000 0.31750  0.19080  0.38810  Biso   1.000  H
  C447     1.0000 0.29820  0.26000  0.33740  Biso   1.000  C
  H430     1.0000 0.26180  0.25740  0.34840  Biso   1.000  H
  C448     1.0000 0.37260  0.30430  0.28240  Biso   1.000  C
  H431     1.0000 0.38780  0.33340  0.25580  Biso   1.000  H
  C449     1.0000 0.40340  0.26160  0.30790  Biso   1.000  C
  H432     1.0000 0.43960  0.26150  0.29500  Biso   1.000  H
  C450     1.0000 0.23170  0.34950  0.30310  Biso   1.000  C
  H433     1.0000 0.22050  0.32570  0.34330  Biso   1.000  H
  C451     1.0000 0.95890  0.82410  0.98760  Biso   1.000  C
  C452     1.0000 0.96720  0.86250  0.92580  Biso   1.000  C
  H434     1.0000 0.99460  0.85780  0.88790  Biso   1.000  H
  C453     1.0000 0.93410  0.90790  0.92130  Biso   1.000  C
  H435     1.0000 0.93950  0.93320  0.88050  Biso   1.000  H
  N47      1.0000 0.89270  0.91500  0.97860  Biso   1.000  N
  C454     1.0000 0.88440  0.87660  0.04040  Biso   1.000  C
  H436     1.0000 0.85710  0.88130  0.07830  Biso   1.000  H
  C455     1.0000 0.91750  0.83120  0.04490  Biso   1.000  C
  H437     1.0000 0.91210  0.80590  0.08570  Biso   1.000  H
  C456     1.0000 0.34080  0.23530  0.39470  Biso   1.000  C
  H438     1.0000 0.33430  0.21800  0.44400  Biso   1.000  H
  C457     1.0000 0.30730  0.27410  0.37060  Biso   1.000  C
  H439     1.0000 0.27740  0.28230  0.40200  Biso   1.000  H
  C458     1.0000 0.36000  0.28700  0.25760  Biso   1.000  C
  H440     1.0000 0.36860  0.30410  0.20880  Biso   1.000  H
  C459     1.0000 0.39180  0.24720  0.28530  Biso   1.000  C
  H441     1.0000 0.42190  0.23870  0.25450  Biso   1.000  H
  C460     1.0000 0.95040  0.82230  0.03450  Biso   1.000  C
  C461     1.0000 0.95600  0.85620  0.09580  Biso   1.000  C
  H442     1.0000 0.98320  0.85120  0.13380  Biso   1.000  H
  C462     1.0000 0.92310  0.89710  0.10320  Biso   1.000  C
  H443     1.0000 0.92700  0.92090  0.14640  Biso   1.000  H
  N48      1.0000 0.88440  0.90410  0.04940  Biso   1.000  N
  C463     1.0000 0.87880  0.87030  0.98800  Biso   1.000  C
  H444     1.0000 0.85160  0.87520  0.95010  Biso   1.000  H
  C464     1.0000 0.91170  0.82940  0.98060  Biso   1.000  C
  H445     1.0000 0.90770  0.80550  0.93740  Biso   1.000  H
  H446     1.0000 0.26370  0.53560  0.94490  Biso   1.000  H
  H447     1.0000 0.25810  0.50990  0.03180  Biso   1.000  H
  H448     1.0000 0.27130  0.57080  0.02330  Biso   1.000  H
  O97      1.0000 0.05310  0.69824  0.50000  Biso   1.000  O
  C465     1.0000 0.00603  0.57221  0.50000  Biso   1.000  C
  H449     1.0000 0.98330  0.54280  0.50000  Biso   1.000  H
  C466     1.0000 0.15078  0.60370  0.50000  Biso   1.000  C
  C467     1.0000 0.04150  0.75190  0.50000  Biso   1.000  C
  C468     1.0000 0.27860  0.49300  0.50000  Biso   1.000  C
  C469     1.0000 0.19544  0.56540  0.50000  Biso   1.000  C
  O98      1.0000 0.94690  0.30176  0.50000  Biso   1.000  O
  C470     1.0000 0.99397  0.42779  0.50000  Biso   1.000  C
  H450     1.0000 0.01670  0.45720  0.50000  Biso   1.000  H
  C471     1.0000 0.84922  0.39630  0.50000  Biso   1.000  C
  C472     1.0000 0.95850  0.24810  0.50000  Biso   1.000  C
  C473     1.0000 0.72140  0.50700  0.50000  Biso   1.000  C
  C474     1.0000 0.80456  0.43460  0.50000  Biso   1.000  C
  O99      1.0000 0.30176  0.05310  0.00000  Biso   1.000  O
  C475     1.0000 0.42779  0.00603  0.00000  Biso   1.000  C
  H451     1.0000 0.45720  0.98330  0.00000  Biso   1.000  H
  C476     1.0000 0.39630  0.15078  0.00000  Biso   1.000  C
  C477     1.0000 0.24810  0.04150  0.00000  Biso   1.000  C
  C478     1.0000 0.50700  0.27860  0.00000  Biso   1.000  C
  C479     1.0000 0.43460  0.19544  0.00000  Biso   1.000  C
  O100     1.0000 0.69824  0.94690  0.00000  Biso   1.000  O
  C480     1.0000 0.57221  0.99397  0.00000  Biso   1.000  C
  H452     1.0000 0.54280  0.01670  0.00000  Biso   1.000  H
  C481     1.0000 0.60370  0.84922  0.00000  Biso   1.000  C
  C482     1.0000 0.75190  0.95850  0.00000  Biso   1.000  C
  C483     1.0000 0.49300  0.72140  0.00000  Biso   1.000  C
  C484     1.0000 0.56540  0.80456  0.00000  Biso   1.000  C
  O101     1.0000 0.44690  0.19824  0.50000  Biso   1.000  O
  C485     1.0000 0.49397  0.07221  0.50000  Biso   1.000  C
  H453     1.0000 0.51670  0.04280  0.50000  Biso   1.000  H
  C486     1.0000 0.34922  0.10370  0.50000  Biso   1.000  C
  C487     1.0000 0.45850  0.25190  0.50000  Biso   1.000  C
  C488     1.0000 0.22140  0.99300  0.50000  Biso   1.000  C
  C489     1.0000 0.30456  0.06540  0.50000  Biso   1.000  C
  O102     1.0000 0.55310  0.80176  0.50000  Biso   1.000  O
  C490     1.0000 0.50603  0.92779  0.50000  Biso   1.000  C
  H454     1.0000 0.48330  0.95720  0.50000  Biso   1.000  H
  C491     1.0000 0.65078  0.89630  0.50000  Biso   1.000  C
  C492     1.0000 0.54150  0.74810  0.50000  Biso   1.000  C
  C493     1.0000 0.77860  0.00700  0.50000  Biso   1.000  C
  C494     1.0000 0.69544  0.93460  0.50000  Biso   1.000  C
  O103     1.0000 0.19824  0.55310  0.00000  Biso   1.000  O
  C495     1.0000 0.07221  0.50603  0.00000  Biso   1.000  C
  H455     1.0000 0.04280  0.48330  0.00000  Biso   1.000  H
  C496     1.0000 0.10370  0.65078  0.00000  Biso   1.000  C
  C497     1.0000 0.25190  0.54150  0.00000  Biso   1.000  C
  C498     1.0000 0.99300  0.77860  0.00000  Biso   1.000  C
  C499     1.0000 0.06540  0.69544  0.00000  Biso   1.000  C
  O104     1.0000 0.80176  0.44690  0.00000  Biso   1.000  O
  C500     1.0000 0.92779  0.49397  0.00000  Biso   1.000  C
  H456     1.0000 0.95720  0.51670  0.00000  Biso   1.000  H
  C501     1.0000 0.89630  0.34922  0.00000  Biso   1.000  C
  C502     1.0000 0.74810  0.45850  0.00000  Biso   1.000  C
  C503     1.0000 0.00700  0.22140  0.00000  Biso   1.000  C
  C504     1.0000 0.93460  0.30456  0.00000  Biso   1.000  C
  C505     1.0000 0.10736  0.60736  0.75000  Biso   1.000  C
  H457     1.0000 0.13400  0.63400  0.75000  Biso   1.000  H
  C506     1.0000 0.89264  0.39264  0.75000  Biso   1.000  C
  H458     1.0000 0.86600  0.36600  0.75000  Biso   1.000  H
  C507     1.0000 0.39264  0.10736  0.25000  Biso   1.000  C
  H459     1.0000 0.36600  0.13400  0.25000  Biso   1.000  H
  C508     1.0000 0.60736  0.89264  0.25000  Biso   1.000  C
  H460     1.0000 0.63400  0.86600  0.25000  Biso   1.000  H
  C509     1.0000 0.89264  0.39264  0.25000  Biso   1.000  C
  H461     1.0000 0.86600  0.36600  0.25000  Biso   1.000  H
  C510     1.0000 0.10736  0.60736  0.25000  Biso   1.000  C
  H462     1.0000 0.13400  0.63400  0.25000  Biso   1.000  H
  C511     1.0000 0.60736  0.89264  0.75000  Biso   1.000  C
  H463     1.0000 0.63400  0.86600  0.75000  Biso   1.000  H
  C512     1.0000 0.39264  0.10736  0.75000  Biso   1.000  C
  H464     1.0000 0.36600  0.13400  0.75000  Biso   1.000  H
