data_image0
_cell_length_a       34.1668
_cell_length_b       34.1668
_cell_length_c       19.3425
_cell_angle_alpha    90
_cell_angle_beta     90
_cell_angle_gamma    90

_symmetry_space_group_name_H-M    "P 1"
_symmetry_int_tables_number       1

loop_
  _symmetry_equiv_pos_as_xyz
  'x, y, z'

loop_
  _atom_site_label
  _atom_site_occupancy
  _atom_site_fract_x
  _atom_site_fract_y
  _atom_site_fract_z
  _atom_site_thermal_displace_type
  _atom_site_B_iso_or_equiv
  _atom_site_type_symbol
  Cu1      1.0000 0.24755  0.24618  0.81631  Biso   1.000  Cu
  O1       1.0000 0.27576  0.19798  0.80370  Biso   1.000  O
  O2       1.0000 0.53306  0.45959  0.92620  Biso   1.000  O
  O3       1.0000 0.45863  0.03549  0.56830  Biso   1.000  O
  O4       1.0000 0.30309  0.28098  0.69820  Biso   1.000  O
  O5       1.0000 0.27930  0.20243  0.68690  Biso   1.000  O
  O6       1.0000 0.29839  0.27229  0.81370  Biso   1.000  O
  C1       1.0000 0.46420  0.36130  0.80380  Biso   1.000  C
  C2       1.0000 0.31420  0.28440  0.75790  Biso   1.000  C
  C3       1.0000 0.39650  0.03520  0.65710  Biso   1.000  C
  H1       1.0000 0.40990  0.05820  0.64710  Biso   1.000  H
  C4       1.0000 0.34030  0.07610  0.71260  Biso   1.000  C
  C5       1.0000 0.36020  0.03490  0.69420  Biso   1.000  C
  C6       1.0000 0.28550  0.18510  0.74440  Biso   1.000  C
  C7       1.0000 0.40450  0.32910  0.84620  Biso   1.000  C
  H2       1.0000 0.41410  0.33260  0.89070  Biso   1.000  H
  C8       1.0000 0.33090  0.09640  0.65810  Biso   1.000  C
  H3       1.0000 0.33500  0.08640  0.61400  Biso   1.000  H
  H4       1.0000 0.47630  0.30000  0.73290  Biso   1.000  H
  C9       1.0000 0.42490  0.34010  0.79290  Biso   1.000  C
  C10      1.0000 0.46590  0.39470  0.84490  Biso   1.000  C
  H5       1.0000 0.44280  0.40680  0.85850  Biso   1.000  H
  C11      1.0000 0.31360  0.13540  0.66750  Biso   1.000  C
  H6       1.0000 0.30920  0.15210  0.63020  Biso   1.000  H
  C12      1.0000 0.30450  0.14600  0.73300  Biso   1.000  C
  C13      1.0000 0.33040  0.08680  0.77530  Biso   1.000  C
  H7       1.0000 0.33400  0.07000  0.81260  Biso   1.000  H
  C14      1.0000 0.31330  0.12680  0.78560  Biso   1.000  C
  H8       1.0000 0.30940  0.13700  0.82970  Biso   1.000  H
  C15      1.0000 0.36660  0.31140  0.83510  Biso   1.000  C
  H9       1.0000 0.35090  0.30470  0.87260  Biso   1.000  H
  C16      1.0000 0.35380  0.30460  0.76800  Biso   1.000  C
  C17      1.0000 0.41240  0.33420  0.72490  Biso   1.000  C
  H10      1.0000 0.42800  0.34220  0.68820  Biso   1.000  H
  C18      1.0000 0.37380  0.31490  0.71100  Biso   1.000  C
  H11      1.0000 0.36440  0.31050  0.66650  Biso   1.000  H
  N1       1.0000 0.24650  0.24400  0.92780  Biso   1.000  N
  C19      1.0000 0.25810  0.21220  0.95776  Biso   1.000  C
  H12      1.0000 0.26610  0.19050  0.93250  Biso   1.000  H
  C20      1.0000 0.22310  0.26230  0.96000  Biso   1.000  C
  H13      1.0000 0.20440  0.27690  0.93650  Biso   1.000  H
  H14      1.0000 0.29960  0.97800  0.77700  Biso   1.000  H
  O7       1.0000 0.51210  0.10250  0.47970  Biso   1.000  O
  Cu2      1.0000 0.74755  0.74618  0.31631  Biso   1.000  Cu
  O8       1.0000 0.77576  0.69798  0.30370  Biso   1.000  O
  O9       1.0000 0.03306  0.95959  0.42620  Biso   1.000  O
  O10      1.0000 0.95863  0.53549  0.06830  Biso   1.000  O
  O11      1.0000 0.80309  0.78098  0.19820  Biso   1.000  O
  O12      1.0000 0.77930  0.70243  0.18690  Biso   1.000  O
  O13      1.0000 0.79839  0.77229  0.31370  Biso   1.000  O
  C21      1.0000 0.96420  0.86130  0.30380  Biso   1.000  C
  C22      1.0000 0.81420  0.78440  0.25790  Biso   1.000  C
  C23      1.0000 0.89650  0.53520  0.15710  Biso   1.000  C
  H15      1.0000 0.90990  0.55820  0.14710  Biso   1.000  H
  C24      1.0000 0.84030  0.57610  0.21260  Biso   1.000  C
  C25      1.0000 0.86020  0.53490  0.19420  Biso   1.000  C
  C26      1.0000 0.78550  0.68510  0.24440  Biso   1.000  C
  C27      1.0000 0.90450  0.82910  0.34620  Biso   1.000  C
  H16      1.0000 0.91410  0.83260  0.39070  Biso   1.000  H
  C28      1.0000 0.83090  0.59640  0.15810  Biso   1.000  C
  H17      1.0000 0.83500  0.58640  0.11400  Biso   1.000  H
  H18      1.0000 0.97630  0.80000  0.23290  Biso   1.000  H
  C29      1.0000 0.92490  0.84010  0.29290  Biso   1.000  C
  C30      1.0000 0.96590  0.89470  0.34490  Biso   1.000  C
  H19      1.0000 0.94280  0.90680  0.35850  Biso   1.000  H
  C31      1.0000 0.81360  0.63540  0.16750  Biso   1.000  C
  H20      1.0000 0.80920  0.65210  0.13020  Biso   1.000  H
  C32      1.0000 0.80450  0.64600  0.23300  Biso   1.000  C
  C33      1.0000 0.83040  0.58680  0.27530  Biso   1.000  C
  H21      1.0000 0.83400  0.57000  0.31260  Biso   1.000  H
  C34      1.0000 0.81330  0.62680  0.28560  Biso   1.000  C
  H22      1.0000 0.80940  0.63700  0.32970  Biso   1.000  H
  C35      1.0000 0.86660  0.81140  0.33510  Biso   1.000  C
  H23      1.0000 0.85090  0.80470  0.37260  Biso   1.000  H
  C36      1.0000 0.85380  0.80460  0.26800  Biso   1.000  C
  C37      1.0000 0.91240  0.83420  0.22490  Biso   1.000  C
  H24      1.0000 0.92800  0.84220  0.18820  Biso   1.000  H
  C38      1.0000 0.87380  0.81490  0.21100  Biso   1.000  C
  H25      1.0000 0.86440  0.81050  0.16650  Biso   1.000  H
  N2       1.0000 0.74650  0.74400  0.42780  Biso   1.000  N
  C39      1.0000 0.75810  0.71220  0.45776  Biso   1.000  C
  H26      1.0000 0.76610  0.69050  0.43250  Biso   1.000  H
  C40      1.0000 0.72310  0.76230  0.46000  Biso   1.000  C
  H27      1.0000 0.70440  0.77690  0.43650  Biso   1.000  H
  H28      1.0000 0.79960  0.47800  0.27700  Biso   1.000  H
  O14      1.0000 0.01210  0.60250  0.97970  Biso   1.000  O
  Cu3      1.0000 0.75245  0.75382  0.81631  Biso   1.000  Cu
  O15      1.0000 0.72424  0.80202  0.80370  Biso   1.000  O
  O16      1.0000 0.46694  0.54041  0.92620  Biso   1.000  O
  O17      1.0000 0.54137  0.96451  0.56830  Biso   1.000  O
  O18      1.0000 0.69691  0.71902  0.69820  Biso   1.000  O
  O19      1.0000 0.72070  0.79757  0.68690  Biso   1.000  O
  O20      1.0000 0.70161  0.72771  0.81370  Biso   1.000  O
  C41      1.0000 0.53580  0.63870  0.80380  Biso   1.000  C
  C42      1.0000 0.68580  0.71560  0.75790  Biso   1.000  C
  C43      1.0000 0.60350  0.96480  0.65710  Biso   1.000  C
  H29      1.0000 0.59010  0.94180  0.64710  Biso   1.000  H
  C44      1.0000 0.65970  0.92390  0.71260  Biso   1.000  C
  C45      1.0000 0.63980  0.96510  0.69420  Biso   1.000  C
  C46      1.0000 0.71450  0.81490  0.74440  Biso   1.000  C
  C47      1.0000 0.59550  0.67090  0.84620  Biso   1.000  C
  H30      1.0000 0.58590  0.66740  0.89070  Biso   1.000  H
  C48      1.0000 0.66910  0.90360  0.65810  Biso   1.000  C
  H31      1.0000 0.66500  0.91360  0.61400  Biso   1.000  H
  H32      1.0000 0.52370  0.70000  0.73290  Biso   1.000  H
  C49      1.0000 0.57510  0.65990  0.79290  Biso   1.000  C
  C50      1.0000 0.53410  0.60530  0.84490  Biso   1.000  C
  H33      1.0000 0.55720  0.59320  0.85850  Biso   1.000  H
  C51      1.0000 0.68640  0.86460  0.66750  Biso   1.000  C
  H34      1.0000 0.69080  0.84790  0.63020  Biso   1.000  H
  C52      1.0000 0.69550  0.85400  0.73300  Biso   1.000  C
  C53      1.0000 0.66960  0.91320  0.77530  Biso   1.000  C
  H35      1.0000 0.66600  0.93000  0.81260  Biso   1.000  H
  C54      1.0000 0.68670  0.87320  0.78560  Biso   1.000  C
  H36      1.0000 0.69060  0.86300  0.82970  Biso   1.000  H
  C55      1.0000 0.63340  0.68860  0.83510  Biso   1.000  C
  H37      1.0000 0.64910  0.69530  0.87260  Biso   1.000  H
  C56      1.0000 0.64620  0.69540  0.76800  Biso   1.000  C
  C57      1.0000 0.58760  0.66580  0.72490  Biso   1.000  C
  H38      1.0000 0.57200  0.65780  0.68820  Biso   1.000  H
  C58      1.0000 0.62620  0.68510  0.71100  Biso   1.000  C
  H39      1.0000 0.63560  0.68950  0.66650  Biso   1.000  H
  N3       1.0000 0.75350  0.75600  0.92780  Biso   1.000  N
  C59      1.0000 0.74190  0.78780  0.95776  Biso   1.000  C
  H40      1.0000 0.73390  0.80950  0.93250  Biso   1.000  H
  C60      1.0000 0.77690  0.73770  0.96000  Biso   1.000  C
  H41      1.0000 0.79560  0.72310  0.93650  Biso   1.000  H
  H42      1.0000 0.70040  0.02200  0.77700  Biso   1.000  H
  O21      1.0000 0.48790  0.89750  0.47970  Biso   1.000  O
  Cu4      1.0000 0.25245  0.25382  0.31631  Biso   1.000  Cu
  O22      1.0000 0.22424  0.30202  0.30370  Biso   1.000  O
  O23      1.0000 0.96694  0.04041  0.42620  Biso   1.000  O
  O24      1.0000 0.04137  0.46451  0.06830  Biso   1.000  O
  O25      1.0000 0.19691  0.21902  0.19820  Biso   1.000  O
  O26      1.0000 0.22070  0.29757  0.18690  Biso   1.000  O
  O27      1.0000 0.20161  0.22771  0.31370  Biso   1.000  O
  C61      1.0000 0.03580  0.13870  0.30380  Biso   1.000  C
  C62      1.0000 0.18580  0.21560  0.25790  Biso   1.000  C
  C63      1.0000 0.10350  0.46480  0.15710  Biso   1.000  C
  H43      1.0000 0.09010  0.44180  0.14710  Biso   1.000  H
  C64      1.0000 0.15970  0.42390  0.21260  Biso   1.000  C
  C65      1.0000 0.13980  0.46510  0.19420  Biso   1.000  C
  C66      1.0000 0.21450  0.31490  0.24440  Biso   1.000  C
  C67      1.0000 0.09550  0.17090  0.34620  Biso   1.000  C
  H44      1.0000 0.08590  0.16740  0.39070  Biso   1.000  H
  C68      1.0000 0.16910  0.40360  0.15810  Biso   1.000  C
  H45      1.0000 0.16500  0.41360  0.11400  Biso   1.000  H
  H46      1.0000 0.02370  0.20000  0.23290  Biso   1.000  H
  C69      1.0000 0.07510  0.15990  0.29290  Biso   1.000  C
  C70      1.0000 0.03410  0.10530  0.34490  Biso   1.000  C
  H47      1.0000 0.05720  0.09320  0.35850  Biso   1.000  H
  C71      1.0000 0.18640  0.36460  0.16750  Biso   1.000  C
  H48      1.0000 0.19080  0.34790  0.13020  Biso   1.000  H
  C72      1.0000 0.19550  0.35400  0.23300  Biso   1.000  C
  C73      1.0000 0.16960  0.41320  0.27530  Biso   1.000  C
  H49      1.0000 0.16600  0.43000  0.31260  Biso   1.000  H
  C74      1.0000 0.18670  0.37320  0.28560  Biso   1.000  C
  H50      1.0000 0.19060  0.36300  0.32970  Biso   1.000  H
  C75      1.0000 0.13340  0.18860  0.33510  Biso   1.000  C
  H51      1.0000 0.14910  0.19530  0.37260  Biso   1.000  H
  C76      1.0000 0.14620  0.19540  0.26800  Biso   1.000  C
  C77      1.0000 0.08760  0.16580  0.22490  Biso   1.000  C
  H52      1.0000 0.07200  0.15780  0.18820  Biso   1.000  H
  C78      1.0000 0.12620  0.18510  0.21100  Biso   1.000  C
  H53      1.0000 0.13560  0.18950  0.16650  Biso   1.000  H
  N4       1.0000 0.25350  0.25600  0.42780  Biso   1.000  N
  C79      1.0000 0.24190  0.28780  0.45776  Biso   1.000  C
  H54      1.0000 0.23390  0.30950  0.43250  Biso   1.000  H
  C80      1.0000 0.27690  0.23770  0.46000  Biso   1.000  C
  H55      1.0000 0.29560  0.22310  0.43650  Biso   1.000  H
  H56      1.0000 0.20040  0.52200  0.27700  Biso   1.000  H
  O28      1.0000 0.98790  0.39750  0.97970  Biso   1.000  O
  Cu5      1.0000 0.75245  0.24618  0.18369  Biso   1.000  Cu
  O29      1.0000 0.72424  0.19798  0.19630  Biso   1.000  O
  O30      1.0000 0.46694  0.45959  0.07380  Biso   1.000  O
  O31      1.0000 0.54137  0.03549  0.43170  Biso   1.000  O
  O32      1.0000 0.69691  0.28098  0.30180  Biso   1.000  O
  O33      1.0000 0.72070  0.20243  0.31310  Biso   1.000  O
  O34      1.0000 0.70161  0.27229  0.18630  Biso   1.000  O
  C81      1.0000 0.53580  0.36130  0.19620  Biso   1.000  C
  C82      1.0000 0.68580  0.28440  0.24210  Biso   1.000  C
  C83      1.0000 0.60350  0.03520  0.34290  Biso   1.000  C
  H57      1.0000 0.59010  0.05820  0.35290  Biso   1.000  H
  C84      1.0000 0.65970  0.07610  0.28740  Biso   1.000  C
  C85      1.0000 0.63980  0.03490  0.30580  Biso   1.000  C
  C86      1.0000 0.71450  0.18510  0.25560  Biso   1.000  C
  C87      1.0000 0.59550  0.32910  0.15380  Biso   1.000  C
  H58      1.0000 0.58590  0.33260  0.10930  Biso   1.000  H
  C88      1.0000 0.66910  0.09640  0.34190  Biso   1.000  C
  H59      1.0000 0.66500  0.08640  0.38600  Biso   1.000  H
  H60      1.0000 0.52370  0.30000  0.26710  Biso   1.000  H
  C89      1.0000 0.57510  0.34010  0.20710  Biso   1.000  C
  C90      1.0000 0.53410  0.39470  0.15510  Biso   1.000  C
  H61      1.0000 0.55720  0.40680  0.14150  Biso   1.000  H
  C91      1.0000 0.68640  0.13540  0.33250  Biso   1.000  C
  H62      1.0000 0.69080  0.15210  0.36980  Biso   1.000  H
  C92      1.0000 0.69550  0.14600  0.26700  Biso   1.000  C
  C93      1.0000 0.66960  0.08680  0.22470  Biso   1.000  C
  H63      1.0000 0.66600  0.07000  0.18740  Biso   1.000  H
  C94      1.0000 0.68670  0.12680  0.21440  Biso   1.000  C
  H64      1.0000 0.69060  0.13700  0.17030  Biso   1.000  H
  C95      1.0000 0.63340  0.31140  0.16490  Biso   1.000  C
  H65      1.0000 0.64910  0.30470  0.12740  Biso   1.000  H
  C96      1.0000 0.64620  0.30460  0.23200  Biso   1.000  C
  C97      1.0000 0.58760  0.33420  0.27510  Biso   1.000  C
  H66      1.0000 0.57200  0.34220  0.31180  Biso   1.000  H
  C98      1.0000 0.62620  0.31490  0.28900  Biso   1.000  C
  H67      1.0000 0.63560  0.31050  0.33350  Biso   1.000  H
  N5       1.0000 0.75350  0.24400  0.07220  Biso   1.000  N
  C99      1.0000 0.74190  0.21220  0.04224  Biso   1.000  C
  H68      1.0000 0.73390  0.19050  0.06750  Biso   1.000  H
  C100     1.0000 0.77690  0.26230  0.04000  Biso   1.000  C
  H69      1.0000 0.79560  0.27690  0.06350  Biso   1.000  H
  H70      1.0000 0.70040  0.97800  0.22300  Biso   1.000  H
  O35      1.0000 0.48790  0.10250  0.52030  Biso   1.000  O
  Cu6      1.0000 0.25245  0.74618  0.68369  Biso   1.000  Cu
  O36      1.0000 0.22424  0.69798  0.69630  Biso   1.000  O
  O37      1.0000 0.96694  0.95959  0.57380  Biso   1.000  O
  O38      1.0000 0.04137  0.53549  0.93170  Biso   1.000  O
  O39      1.0000 0.19691  0.78098  0.80180  Biso   1.000  O
  O40      1.0000 0.22070  0.70243  0.81310  Biso   1.000  O
  O41      1.0000 0.20161  0.77229  0.68630  Biso   1.000  O
  C101     1.0000 0.03580  0.86130  0.69620  Biso   1.000  C
  C102     1.0000 0.18580  0.78440  0.74210  Biso   1.000  C
  C103     1.0000 0.10350  0.53520  0.84290  Biso   1.000  C
  H71      1.0000 0.09010  0.55820  0.85290  Biso   1.000  H
  C104     1.0000 0.15970  0.57610  0.78740  Biso   1.000  C
  C105     1.0000 0.13980  0.53490  0.80580  Biso   1.000  C
  C106     1.0000 0.21450  0.68510  0.75560  Biso   1.000  C
  C107     1.0000 0.09550  0.82910  0.65380  Biso   1.000  C
  H72      1.0000 0.08590  0.83260  0.60930  Biso   1.000  H
  C108     1.0000 0.16910  0.59640  0.84190  Biso   1.000  C
  H73      1.0000 0.16500  0.58640  0.88600  Biso   1.000  H
  H74      1.0000 0.02370  0.80000  0.76710  Biso   1.000  H
  C109     1.0000 0.07510  0.84010  0.70710  Biso   1.000  C
  C110     1.0000 0.03410  0.89470  0.65510  Biso   1.000  C
  H75      1.0000 0.05720  0.90680  0.64150  Biso   1.000  H
  C111     1.0000 0.18640  0.63540  0.83250  Biso   1.000  C
  H76      1.0000 0.19080  0.65210  0.86980  Biso   1.000  H
  C112     1.0000 0.19550  0.64600  0.76700  Biso   1.000  C
  C113     1.0000 0.16960  0.58680  0.72470  Biso   1.000  C
  H77      1.0000 0.16600  0.57000  0.68740  Biso   1.000  H
  C114     1.0000 0.18670  0.62680  0.71440  Biso   1.000  C
  H78      1.0000 0.19060  0.63700  0.67030  Biso   1.000  H
  C115     1.0000 0.13340  0.81140  0.66490  Biso   1.000  C
  H79      1.0000 0.14910  0.80470  0.62740  Biso   1.000  H
  C116     1.0000 0.14620  0.80460  0.73200  Biso   1.000  C
  C117     1.0000 0.08760  0.83420  0.77510  Biso   1.000  C
  H80      1.0000 0.07200  0.84220  0.81180  Biso   1.000  H
  C118     1.0000 0.12620  0.81490  0.78900  Biso   1.000  C
  H81      1.0000 0.13560  0.81050  0.83350  Biso   1.000  H
  N6       1.0000 0.25350  0.74400  0.57220  Biso   1.000  N
  C119     1.0000 0.24190  0.71220  0.54224  Biso   1.000  C
  H82      1.0000 0.23390  0.69050  0.56750  Biso   1.000  H
  C120     1.0000 0.27690  0.76230  0.54000  Biso   1.000  C
  H83      1.0000 0.29560  0.77690  0.56350  Biso   1.000  H
  H84      1.0000 0.20040  0.47800  0.72300  Biso   1.000  H
  O42      1.0000 0.98790  0.60250  0.02030  Biso   1.000  O
  Cu7      1.0000 0.24755  0.75382  0.18369  Biso   1.000  Cu
  O43      1.0000 0.27576  0.80202  0.19630  Biso   1.000  O
  O44      1.0000 0.53306  0.54041  0.07380  Biso   1.000  O
  O45      1.0000 0.45863  0.96451  0.43170  Biso   1.000  O
  O46      1.0000 0.30309  0.71902  0.30180  Biso   1.000  O
  O47      1.0000 0.27930  0.79757  0.31310  Biso   1.000  O
  O48      1.0000 0.29839  0.72771  0.18630  Biso   1.000  O
  C121     1.0000 0.46420  0.63870  0.19620  Biso   1.000  C
  C122     1.0000 0.31420  0.71560  0.24210  Biso   1.000  C
  C123     1.0000 0.39650  0.96480  0.34290  Biso   1.000  C
  H85      1.0000 0.40990  0.94180  0.35290  Biso   1.000  H
  C124     1.0000 0.34030  0.92390  0.28740  Biso   1.000  C
  C125     1.0000 0.36020  0.96510  0.30580  Biso   1.000  C
  C126     1.0000 0.28550  0.81490  0.25560  Biso   1.000  C
  C127     1.0000 0.40450  0.67090  0.15380  Biso   1.000  C
  H86      1.0000 0.41410  0.66740  0.10930  Biso   1.000  H
  C128     1.0000 0.33090  0.90360  0.34190  Biso   1.000  C
  H87      1.0000 0.33500  0.91360  0.38600  Biso   1.000  H
  H88      1.0000 0.47630  0.70000  0.26710  Biso   1.000  H
  C129     1.0000 0.42490  0.65990  0.20710  Biso   1.000  C
  C130     1.0000 0.46590  0.60530  0.15510  Biso   1.000  C
  H89      1.0000 0.44280  0.59320  0.14150  Biso   1.000  H
  C131     1.0000 0.31360  0.86460  0.33250  Biso   1.000  C
  H90      1.0000 0.30920  0.84790  0.36980  Biso   1.000  H
  C132     1.0000 0.30450  0.85400  0.26700  Biso   1.000  C
  C133     1.0000 0.33040  0.91320  0.22470  Biso   1.000  C
  H91      1.0000 0.33400  0.93000  0.18740  Biso   1.000  H
  C134     1.0000 0.31330  0.87320  0.21440  Biso   1.000  C
  H92      1.0000 0.30940  0.86300  0.17030  Biso   1.000  H
  C135     1.0000 0.36660  0.68860  0.16490  Biso   1.000  C
  H93      1.0000 0.35090  0.69530  0.12740  Biso   1.000  H
  C136     1.0000 0.35380  0.69540  0.23200  Biso   1.000  C
  C137     1.0000 0.41240  0.66580  0.27510  Biso   1.000  C
  H94      1.0000 0.42800  0.65780  0.31180  Biso   1.000  H
  C138     1.0000 0.37380  0.68510  0.28900  Biso   1.000  C
  H95      1.0000 0.36440  0.68950  0.33350  Biso   1.000  H
  N7       1.0000 0.24650  0.75600  0.07220  Biso   1.000  N
  C139     1.0000 0.25810  0.78780  0.04224  Biso   1.000  C
  H96      1.0000 0.26610  0.80950  0.06750  Biso   1.000  H
  C140     1.0000 0.22310  0.73770  0.04000  Biso   1.000  C
  H97      1.0000 0.20440  0.72310  0.06350  Biso   1.000  H
  H98      1.0000 0.29960  0.02200  0.22300  Biso   1.000  H
  O49      1.0000 0.51210  0.89750  0.52030  Biso   1.000  O
  Cu8      1.0000 0.74755  0.25382  0.68369  Biso   1.000  Cu
  O50      1.0000 0.77576  0.30202  0.69630  Biso   1.000  O
  O51      1.0000 0.03306  0.04041  0.57380  Biso   1.000  O
  O52      1.0000 0.95863  0.46451  0.93170  Biso   1.000  O
  O53      1.0000 0.80309  0.21902  0.80180  Biso   1.000  O
  O54      1.0000 0.77930  0.29757  0.81310  Biso   1.000  O
  O55      1.0000 0.79839  0.22771  0.68630  Biso   1.000  O
  C141     1.0000 0.96420  0.13870  0.69620  Biso   1.000  C
  C142     1.0000 0.81420  0.21560  0.74210  Biso   1.000  C
  C143     1.0000 0.89650  0.46480  0.84290  Biso   1.000  C
  H99      1.0000 0.90990  0.44180  0.85290  Biso   1.000  H
  C144     1.0000 0.84030  0.42390  0.78740  Biso   1.000  C
  C145     1.0000 0.86020  0.46510  0.80580  Biso   1.000  C
  C146     1.0000 0.78550  0.31490  0.75560  Biso   1.000  C
  C147     1.0000 0.90450  0.17090  0.65380  Biso   1.000  C
  H100     1.0000 0.91410  0.16740  0.60930  Biso   1.000  H
  C148     1.0000 0.83090  0.40360  0.84190  Biso   1.000  C
  H101     1.0000 0.83500  0.41360  0.88600  Biso   1.000  H
  H102     1.0000 0.97630  0.20000  0.76710  Biso   1.000  H
  C149     1.0000 0.92490  0.15990  0.70710  Biso   1.000  C
  C150     1.0000 0.96590  0.10530  0.65510  Biso   1.000  C
  H103     1.0000 0.94280  0.09320  0.64150  Biso   1.000  H
  C151     1.0000 0.81360  0.36460  0.83250  Biso   1.000  C
  H104     1.0000 0.80920  0.34790  0.86980  Biso   1.000  H
  C152     1.0000 0.80450  0.35400  0.76700  Biso   1.000  C
  C153     1.0000 0.83040  0.41320  0.72470  Biso   1.000  C
  H105     1.0000 0.83400  0.43000  0.68740  Biso   1.000  H
  C154     1.0000 0.81330  0.37320  0.71440  Biso   1.000  C
  H106     1.0000 0.80940  0.36300  0.67030  Biso   1.000  H
  C155     1.0000 0.86660  0.18860  0.66490  Biso   1.000  C
  H107     1.0000 0.85090  0.19530  0.62740  Biso   1.000  H
  C156     1.0000 0.85380  0.19540  0.73200  Biso   1.000  C
  C157     1.0000 0.91240  0.16580  0.77510  Biso   1.000  C
  H108     1.0000 0.92800  0.15780  0.81180  Biso   1.000  H
  C158     1.0000 0.87380  0.18510  0.78900  Biso   1.000  C
  H109     1.0000 0.86440  0.18950  0.83350  Biso   1.000  H
  N8       1.0000 0.74650  0.25600  0.57220  Biso   1.000  N
  C159     1.0000 0.75810  0.28780  0.54224  Biso   1.000  C
  H110     1.0000 0.76610  0.30950  0.56750  Biso   1.000  H
  C160     1.0000 0.72310  0.23770  0.54000  Biso   1.000  C
  H111     1.0000 0.70440  0.22310  0.56350  Biso   1.000  H
  H112     1.0000 0.79960  0.52200  0.72300  Biso   1.000  H
  O56      1.0000 0.01210  0.39750  0.02030  Biso   1.000  O
  Cu9      1.0000 0.75245  0.75382  0.18369  Biso   1.000  Cu
  O57      1.0000 0.72424  0.80202  0.19630  Biso   1.000  O
  O58      1.0000 0.46694  0.54041  0.07380  Biso   1.000  O
  O59      1.0000 0.54137  0.96451  0.43170  Biso   1.000  O
  O60      1.0000 0.69691  0.71902  0.30180  Biso   1.000  O
  O61      1.0000 0.72070  0.79757  0.31310  Biso   1.000  O
  O62      1.0000 0.70161  0.72771  0.18630  Biso   1.000  O
  C161     1.0000 0.53580  0.63870  0.19620  Biso   1.000  C
  C162     1.0000 0.68580  0.71560  0.24210  Biso   1.000  C
  C163     1.0000 0.60350  0.96480  0.34290  Biso   1.000  C
  H113     1.0000 0.59010  0.94180  0.35290  Biso   1.000  H
  C164     1.0000 0.65970  0.92390  0.28740  Biso   1.000  C
  C165     1.0000 0.63980  0.96510  0.30580  Biso   1.000  C
  C166     1.0000 0.71450  0.81490  0.25560  Biso   1.000  C
  C167     1.0000 0.59550  0.67090  0.15380  Biso   1.000  C
  H114     1.0000 0.58590  0.66740  0.10930  Biso   1.000  H
  C168     1.0000 0.66910  0.90360  0.34190  Biso   1.000  C
  H115     1.0000 0.66500  0.91360  0.38600  Biso   1.000  H
  H116     1.0000 0.52370  0.70000  0.26710  Biso   1.000  H
  C169     1.0000 0.57510  0.65990  0.20710  Biso   1.000  C
  C170     1.0000 0.53410  0.60530  0.15510  Biso   1.000  C
  H117     1.0000 0.55720  0.59320  0.14150  Biso   1.000  H
  C171     1.0000 0.68640  0.86460  0.33250  Biso   1.000  C
  H118     1.0000 0.69080  0.84790  0.36980  Biso   1.000  H
  C172     1.0000 0.69550  0.85400  0.26700  Biso   1.000  C
  C173     1.0000 0.66960  0.91320  0.22470  Biso   1.000  C
  H119     1.0000 0.66600  0.93000  0.18740  Biso   1.000  H
  C174     1.0000 0.68670  0.87320  0.21440  Biso   1.000  C
  H120     1.0000 0.69060  0.86300  0.17030  Biso   1.000  H
  C175     1.0000 0.63340  0.68860  0.16490  Biso   1.000  C
  H121     1.0000 0.64910  0.69530  0.12740  Biso   1.000  H
  C176     1.0000 0.64620  0.69540  0.23200  Biso   1.000  C
  C177     1.0000 0.58760  0.66580  0.27510  Biso   1.000  C
  H122     1.0000 0.57200  0.65780  0.31180  Biso   1.000  H
  C178     1.0000 0.62620  0.68510  0.28900  Biso   1.000  C
  H123     1.0000 0.63560  0.68950  0.33350  Biso   1.000  H
  N9       1.0000 0.75350  0.75600  0.07220  Biso   1.000  N
  C179     1.0000 0.74190  0.78780  0.04224  Biso   1.000  C
  H124     1.0000 0.73390  0.80950  0.06750  Biso   1.000  H
  C180     1.0000 0.77690  0.73770  0.04000  Biso   1.000  C
  H125     1.0000 0.79560  0.72310  0.06350  Biso   1.000  H
  H126     1.0000 0.70040  0.02200  0.22300  Biso   1.000  H
  O63      1.0000 0.48790  0.89750  0.52030  Biso   1.000  O
  Cu10     1.0000 0.25245  0.25382  0.68369  Biso   1.000  Cu
  O64      1.0000 0.22424  0.30202  0.69630  Biso   1.000  O
  O65      1.0000 0.96694  0.04041  0.57380  Biso   1.000  O
  O66      1.0000 0.04137  0.46451  0.93170  Biso   1.000  O
  O67      1.0000 0.19691  0.21902  0.80180  Biso   1.000  O
  O68      1.0000 0.22070  0.29757  0.81310  Biso   1.000  O
  O69      1.0000 0.20161  0.22771  0.68630  Biso   1.000  O
  C181     1.0000 0.03580  0.13870  0.69620  Biso   1.000  C
  C182     1.0000 0.18580  0.21560  0.74210  Biso   1.000  C
  C183     1.0000 0.10350  0.46480  0.84290  Biso   1.000  C
  H127     1.0000 0.09010  0.44180  0.85290  Biso   1.000  H
  C184     1.0000 0.15970  0.42390  0.78740  Biso   1.000  C
  C185     1.0000 0.13980  0.46510  0.80580  Biso   1.000  C
  C186     1.0000 0.21450  0.31490  0.75560  Biso   1.000  C
  C187     1.0000 0.09550  0.17090  0.65380  Biso   1.000  C
  H128     1.0000 0.08590  0.16740  0.60930  Biso   1.000  H
  C188     1.0000 0.16910  0.40360  0.84190  Biso   1.000  C
  H129     1.0000 0.16500  0.41360  0.88600  Biso   1.000  H
  H130     1.0000 0.02370  0.20000  0.76710  Biso   1.000  H
  C189     1.0000 0.07510  0.15990  0.70710  Biso   1.000  C
  C190     1.0000 0.03410  0.10530  0.65510  Biso   1.000  C
  H131     1.0000 0.05720  0.09320  0.64150  Biso   1.000  H
  C191     1.0000 0.18640  0.36460  0.83250  Biso   1.000  C
  H132     1.0000 0.19080  0.34790  0.86980  Biso   1.000  H
  C192     1.0000 0.19550  0.35400  0.76700  Biso   1.000  C
  C193     1.0000 0.16960  0.41320  0.72470  Biso   1.000  C
  H133     1.0000 0.16600  0.43000  0.68740  Biso   1.000  H
  C194     1.0000 0.18670  0.37320  0.71440  Biso   1.000  C
  H134     1.0000 0.19060  0.36300  0.67030  Biso   1.000  H
  C195     1.0000 0.13340  0.18860  0.66490  Biso   1.000  C
  H135     1.0000 0.14910  0.19530  0.62740  Biso   1.000  H
  C196     1.0000 0.14620  0.19540  0.73200  Biso   1.000  C
  C197     1.0000 0.08760  0.16580  0.77510  Biso   1.000  C
  H136     1.0000 0.07200  0.15780  0.81180  Biso   1.000  H
  C198     1.0000 0.12620  0.18510  0.78900  Biso   1.000  C
  H137     1.0000 0.13560  0.18950  0.83350  Biso   1.000  H
  N10      1.0000 0.25350  0.25600  0.57220  Biso   1.000  N
  C199     1.0000 0.24190  0.28780  0.54224  Biso   1.000  C
  H138     1.0000 0.23390  0.30950  0.56750  Biso   1.000  H
  C200     1.0000 0.27690  0.23770  0.54000  Biso   1.000  C
  H139     1.0000 0.29560  0.22310  0.56350  Biso   1.000  H
  H140     1.0000 0.20040  0.52200  0.72300  Biso   1.000  H
  O70      1.0000 0.98790  0.39750  0.02030  Biso   1.000  O
  Cu11     1.0000 0.24755  0.24618  0.18369  Biso   1.000  Cu
  O71      1.0000 0.27576  0.19798  0.19630  Biso   1.000  O
  O72      1.0000 0.53306  0.45959  0.07380  Biso   1.000  O
  O73      1.0000 0.45863  0.03549  0.43170  Biso   1.000  O
  O74      1.0000 0.30309  0.28098  0.30180  Biso   1.000  O
  O75      1.0000 0.27930  0.20243  0.31310  Biso   1.000  O
  O76      1.0000 0.29839  0.27229  0.18630  Biso   1.000  O
  C201     1.0000 0.46420  0.36130  0.19620  Biso   1.000  C
  C202     1.0000 0.31420  0.28440  0.24210  Biso   1.000  C
  C203     1.0000 0.39650  0.03520  0.34290  Biso   1.000  C
  H141     1.0000 0.40990  0.05820  0.35290  Biso   1.000  H
  C204     1.0000 0.34030  0.07610  0.28740  Biso   1.000  C
  C205     1.0000 0.36020  0.03490  0.30580  Biso   1.000  C
  C206     1.0000 0.28550  0.18510  0.25560  Biso   1.000  C
  C207     1.0000 0.40450  0.32910  0.15380  Biso   1.000  C
  H142     1.0000 0.41410  0.33260  0.10930  Biso   1.000  H
  C208     1.0000 0.33090  0.09640  0.34190  Biso   1.000  C
  H143     1.0000 0.33500  0.08640  0.38600  Biso   1.000  H
  H144     1.0000 0.47630  0.30000  0.26710  Biso   1.000  H
  C209     1.0000 0.42490  0.34010  0.20710  Biso   1.000  C
  C210     1.0000 0.46590  0.39470  0.15510  Biso   1.000  C
  H145     1.0000 0.44280  0.40680  0.14150  Biso   1.000  H
  C211     1.0000 0.31360  0.13540  0.33250  Biso   1.000  C
  H146     1.0000 0.30920  0.15210  0.36980  Biso   1.000  H
  C212     1.0000 0.30450  0.14600  0.26700  Biso   1.000  C
  C213     1.0000 0.33040  0.08680  0.22470  Biso   1.000  C
  H147     1.0000 0.33400  0.07000  0.18740  Biso   1.000  H
  C214     1.0000 0.31330  0.12680  0.21440  Biso   1.000  C
  H148     1.0000 0.30940  0.13700  0.17030  Biso   1.000  H
  C215     1.0000 0.36660  0.31140  0.16490  Biso   1.000  C
  H149     1.0000 0.35090  0.30470  0.12740  Biso   1.000  H
  C216     1.0000 0.35380  0.30460  0.23200  Biso   1.000  C
  C217     1.0000 0.41240  0.33420  0.27510  Biso   1.000  C
  H150     1.0000 0.42800  0.34220  0.31180  Biso   1.000  H
  C218     1.0000 0.37380  0.31490  0.28900  Biso   1.000  C
  H151     1.0000 0.36440  0.31050  0.33350  Biso   1.000  H
  N11      1.0000 0.24650  0.24400  0.07220  Biso   1.000  N
  C219     1.0000 0.25810  0.21220  0.04224  Biso   1.000  C
  H152     1.0000 0.26610  0.19050  0.06750  Biso   1.000  H
  C220     1.0000 0.22310  0.26230  0.04000  Biso   1.000  C
  H153     1.0000 0.20440  0.27690  0.06350  Biso   1.000  H
  H154     1.0000 0.29960  0.97800  0.22300  Biso   1.000  H
  O77      1.0000 0.51210  0.10250  0.52030  Biso   1.000  O
  Cu12     1.0000 0.74755  0.74618  0.68369  Biso   1.000  Cu
  O78      1.0000 0.77576  0.69798  0.69630  Biso   1.000  O
  O79      1.0000 0.03306  0.95959  0.57380  Biso   1.000  O
  O80      1.0000 0.95863  0.53549  0.93170  Biso   1.000  O
  O81      1.0000 0.80309  0.78098  0.80180  Biso   1.000  O
  O82      1.0000 0.77930  0.70243  0.81310  Biso   1.000  O
  O83      1.0000 0.79839  0.77229  0.68630  Biso   1.000  O
  C221     1.0000 0.96420  0.86130  0.69620  Biso   1.000  C
  C222     1.0000 0.81420  0.78440  0.74210  Biso   1.000  C
  C223     1.0000 0.89650  0.53520  0.84290  Biso   1.000  C
  H155     1.0000 0.90990  0.55820  0.85290  Biso   1.000  H
  C224     1.0000 0.84030  0.57610  0.78740  Biso   1.000  C
  C225     1.0000 0.86020  0.53490  0.80580  Biso   1.000  C
  C226     1.0000 0.78550  0.68510  0.75560  Biso   1.000  C
  C227     1.0000 0.90450  0.82910  0.65380  Biso   1.000  C
  H156     1.0000 0.91410  0.83260  0.60930  Biso   1.000  H
  C228     1.0000 0.83090  0.59640  0.84190  Biso   1.000  C
  H157     1.0000 0.83500  0.58640  0.88600  Biso   1.000  H
  H158     1.0000 0.97630  0.80000  0.76710  Biso   1.000  H
  C229     1.0000 0.92490  0.84010  0.70710  Biso   1.000  C
  C230     1.0000 0.96590  0.89470  0.65510  Biso   1.000  C
  H159     1.0000 0.94280  0.90680  0.64150  Biso   1.000  H
  C231     1.0000 0.81360  0.63540  0.83250  Biso   1.000  C
  H160     1.0000 0.80920  0.65210  0.86980  Biso   1.000  H
  C232     1.0000 0.80450  0.64600  0.76700  Biso   1.000  C
  C233     1.0000 0.83040  0.58680  0.72470  Biso   1.000  C
  H161     1.0000 0.83400  0.57000  0.68740  Biso   1.000  H
  C234     1.0000 0.81330  0.62680  0.71440  Biso   1.000  C
  H162     1.0000 0.80940  0.63700  0.67030  Biso   1.000  H
  C235     1.0000 0.86660  0.81140  0.66490  Biso   1.000  C
  H163     1.0000 0.85090  0.80470  0.62740  Biso   1.000  H
  C236     1.0000 0.85380  0.80460  0.73200  Biso   1.000  C
  C237     1.0000 0.91240  0.83420  0.77510  Biso   1.000  C
  H164     1.0000 0.92800  0.84220  0.81180  Biso   1.000  H
  C238     1.0000 0.87380  0.81490  0.78900  Biso   1.000  C
  H165     1.0000 0.86440  0.81050  0.83350  Biso   1.000  H
  N12      1.0000 0.74650  0.74400  0.57220  Biso   1.000  N
  C239     1.0000 0.75810  0.71220  0.54224  Biso   1.000  C
  H166     1.0000 0.76610  0.69050  0.56750  Biso   1.000  H
  C240     1.0000 0.72310  0.76230  0.54000  Biso   1.000  C
  H167     1.0000 0.70440  0.77690  0.56350  Biso   1.000  H
  H168     1.0000 0.79960  0.47800  0.72300  Biso   1.000  H
  O84      1.0000 0.01210  0.60250  0.02030  Biso   1.000  O
  Cu13     1.0000 0.24755  0.75382  0.81631  Biso   1.000  Cu
  O85      1.0000 0.27576  0.80202  0.80370  Biso   1.000  O
  O86      1.0000 0.53306  0.54041  0.92620  Biso   1.000  O
  O87      1.0000 0.45863  0.96451  0.56830  Biso   1.000  O
  O88      1.0000 0.30309  0.71902  0.69820  Biso   1.000  O
  O89      1.0000 0.27930  0.79757  0.68690  Biso   1.000  O
  O90      1.0000 0.29839  0.72771  0.81370  Biso   1.000  O
  C241     1.0000 0.46420  0.63870  0.80380  Biso   1.000  C
  C242     1.0000 0.31420  0.71560  0.75790  Biso   1.000  C
  C243     1.0000 0.39650  0.96480  0.65710  Biso   1.000  C
  H169     1.0000 0.40990  0.94180  0.64710  Biso   1.000  H
  C244     1.0000 0.34030  0.92390  0.71260  Biso   1.000  C
  C245     1.0000 0.36020  0.96510  0.69420  Biso   1.000  C
  C246     1.0000 0.28550  0.81490  0.74440  Biso   1.000  C
  C247     1.0000 0.40450  0.67090  0.84620  Biso   1.000  C
  H170     1.0000 0.41410  0.66740  0.89070  Biso   1.000  H
  C248     1.0000 0.33090  0.90360  0.65810  Biso   1.000  C
  H171     1.0000 0.33500  0.91360  0.61400  Biso   1.000  H
  H172     1.0000 0.47630  0.70000  0.73290  Biso   1.000  H
  C249     1.0000 0.42490  0.65990  0.79290  Biso   1.000  C
  C250     1.0000 0.46590  0.60530  0.84490  Biso   1.000  C
  H173     1.0000 0.44280  0.59320  0.85850  Biso   1.000  H
  C251     1.0000 0.31360  0.86460  0.66750  Biso   1.000  C
  H174     1.0000 0.30920  0.84790  0.63020  Biso   1.000  H
  C252     1.0000 0.30450  0.85400  0.73300  Biso   1.000  C
  C253     1.0000 0.33040  0.91320  0.77530  Biso   1.000  C
  H175     1.0000 0.33400  0.93000  0.81260  Biso   1.000  H
  C254     1.0000 0.31330  0.87320  0.78560  Biso   1.000  C
  H176     1.0000 0.30940  0.86300  0.82970  Biso   1.000  H
  C255     1.0000 0.36660  0.68860  0.83510  Biso   1.000  C
  H177     1.0000 0.35090  0.69530  0.87260  Biso   1.000  H
  C256     1.0000 0.35380  0.69540  0.76800  Biso   1.000  C
  C257     1.0000 0.41240  0.66580  0.72490  Biso   1.000  C
  H178     1.0000 0.42800  0.65780  0.68820  Biso   1.000  H
  C258     1.0000 0.37380  0.68510  0.71100  Biso   1.000  C
  H179     1.0000 0.36440  0.68950  0.66650  Biso   1.000  H
  N13      1.0000 0.24650  0.75600  0.92780  Biso   1.000  N
  C259     1.0000 0.25810  0.78780  0.95776  Biso   1.000  C
  H180     1.0000 0.26610  0.80950  0.93250  Biso   1.000  H
  C260     1.0000 0.22310  0.73770  0.96000  Biso   1.000  C
  H181     1.0000 0.20440  0.72310  0.93650  Biso   1.000  H
  H182     1.0000 0.29960  0.02200  0.77700  Biso   1.000  H
  O91      1.0000 0.51210  0.89750  0.47970  Biso   1.000  O
  Cu14     1.0000 0.74755  0.25382  0.31631  Biso   1.000  Cu
  O92      1.0000 0.77576  0.30202  0.30370  Biso   1.000  O
  O93      1.0000 0.03306  0.04041  0.42620  Biso   1.000  O
  O94      1.0000 0.95863  0.46451  0.06830  Biso   1.000  O
  O95      1.0000 0.80309  0.21902  0.19820  Biso   1.000  O
  O96      1.0000 0.77930  0.29757  0.18690  Biso   1.000  O
  O97      1.0000 0.79839  0.22771  0.31370  Biso   1.000  O
  C261     1.0000 0.96420  0.13870  0.30380  Biso   1.000  C
  C262     1.0000 0.81420  0.21560  0.25790  Biso   1.000  C
  C263     1.0000 0.89650  0.46480  0.15710  Biso   1.000  C
  H183     1.0000 0.90990  0.44180  0.14710  Biso   1.000  H
  C264     1.0000 0.84030  0.42390  0.21260  Biso   1.000  C
  C265     1.0000 0.86020  0.46510  0.19420  Biso   1.000  C
  C266     1.0000 0.78550  0.31490  0.24440  Biso   1.000  C
  C267     1.0000 0.90450  0.17090  0.34620  Biso   1.000  C
  H184     1.0000 0.91410  0.16740  0.39070  Biso   1.000  H
  C268     1.0000 0.83090  0.40360  0.15810  Biso   1.000  C
  H185     1.0000 0.83500  0.41360  0.11400  Biso   1.000  H
  H186     1.0000 0.97630  0.20000  0.23290  Biso   1.000  H
  C269     1.0000 0.92490  0.15990  0.29290  Biso   1.000  C
  C270     1.0000 0.96590  0.10530  0.34490  Biso   1.000  C
  H187     1.0000 0.94280  0.09320  0.35850  Biso   1.000  H
  C271     1.0000 0.81360  0.36460  0.16750  Biso   1.000  C
  H188     1.0000 0.80920  0.34790  0.13020  Biso   1.000  H
  C272     1.0000 0.80450  0.35400  0.23300  Biso   1.000  C
  C273     1.0000 0.83040  0.41320  0.27530  Biso   1.000  C
  H189     1.0000 0.83400  0.43000  0.31260  Biso   1.000  H
  C274     1.0000 0.81330  0.37320  0.28560  Biso   1.000  C
  H190     1.0000 0.80940  0.36300  0.32970  Biso   1.000  H
  C275     1.0000 0.86660  0.18860  0.33510  Biso   1.000  C
  H191     1.0000 0.85090  0.19530  0.37260  Biso   1.000  H
  C276     1.0000 0.85380  0.19540  0.26800  Biso   1.000  C
  C277     1.0000 0.91240  0.16580  0.22490  Biso   1.000  C
  H192     1.0000 0.92800  0.15780  0.18820  Biso   1.000  H
  C278     1.0000 0.87380  0.18510  0.21100  Biso   1.000  C
  H193     1.0000 0.86440  0.18950  0.16650  Biso   1.000  H
  N14      1.0000 0.74650  0.25600  0.42780  Biso   1.000  N
  C279     1.0000 0.75810  0.28780  0.45776  Biso   1.000  C
  H194     1.0000 0.76610  0.30950  0.43250  Biso   1.000  H
  C280     1.0000 0.72310  0.23770  0.46000  Biso   1.000  C
  H195     1.0000 0.70440  0.22310  0.43650  Biso   1.000  H
  H196     1.0000 0.79960  0.52200  0.27700  Biso   1.000  H
  O98      1.0000 0.01210  0.39750  0.97970  Biso   1.000  O
  Cu15     1.0000 0.75245  0.24618  0.81631  Biso   1.000  Cu
  O99      1.0000 0.72424  0.19798  0.80370  Biso   1.000  O
  O100     1.0000 0.46694  0.45959  0.92620  Biso   1.000  O
  O101     1.0000 0.54137  0.03549  0.56830  Biso   1.000  O
  O102     1.0000 0.69691  0.28098  0.69820  Biso   1.000  O
  O103     1.0000 0.72070  0.20243  0.68690  Biso   1.000  O
  O104     1.0000 0.70161  0.27229  0.81370  Biso   1.000  O
  C281     1.0000 0.53580  0.36130  0.80380  Biso   1.000  C
  C282     1.0000 0.68580  0.28440  0.75790  Biso   1.000  C
  C283     1.0000 0.60350  0.03520  0.65710  Biso   1.000  C
  H197     1.0000 0.59010  0.05820  0.64710  Biso   1.000  H
  C284     1.0000 0.65970  0.07610  0.71260  Biso   1.000  C
  C285     1.0000 0.63980  0.03490  0.69420  Biso   1.000  C
  C286     1.0000 0.71450  0.18510  0.74440  Biso   1.000  C
  C287     1.0000 0.59550  0.32910  0.84620  Biso   1.000  C
  H198     1.0000 0.58590  0.33260  0.89070  Biso   1.000  H
  C288     1.0000 0.66910  0.09640  0.65810  Biso   1.000  C
  H199     1.0000 0.66500  0.08640  0.61400  Biso   1.000  H
  H200     1.0000 0.52370  0.30000  0.73290  Biso   1.000  H
  C289     1.0000 0.57510  0.34010  0.79290  Biso   1.000  C
  C290     1.0000 0.53410  0.39470  0.84490  Biso   1.000  C
  H201     1.0000 0.55720  0.40680  0.85850  Biso   1.000  H
  C291     1.0000 0.68640  0.13540  0.66750  Biso   1.000  C
  H202     1.0000 0.69080  0.15210  0.63020  Biso   1.000  H
  C292     1.0000 0.69550  0.14600  0.73300  Biso   1.000  C
  C293     1.0000 0.66960  0.08680  0.77530  Biso   1.000  C
  H203     1.0000 0.66600  0.07000  0.81260  Biso   1.000  H
  C294     1.0000 0.68670  0.12680  0.78560  Biso   1.000  C
  H204     1.0000 0.69060  0.13700  0.82970  Biso   1.000  H
  C295     1.0000 0.63340  0.31140  0.83510  Biso   1.000  C
  H205     1.0000 0.64910  0.30470  0.87260  Biso   1.000  H
  C296     1.0000 0.64620  0.30460  0.76800  Biso   1.000  C
  C297     1.0000 0.58760  0.33420  0.72490  Biso   1.000  C
  H206     1.0000 0.57200  0.34220  0.68820  Biso   1.000  H
  C298     1.0000 0.62620  0.31490  0.71100  Biso   1.000  C
  H207     1.0000 0.63560  0.31050  0.66650  Biso   1.000  H
  N15      1.0000 0.75350  0.24400  0.92780  Biso   1.000  N
  C299     1.0000 0.74190  0.21220  0.95776  Biso   1.000  C
  H208     1.0000 0.73390  0.19050  0.93250  Biso   1.000  H
  C300     1.0000 0.77690  0.26230  0.96000  Biso   1.000  C
  H209     1.0000 0.79560  0.27690  0.93650  Biso   1.000  H
  H210     1.0000 0.70040  0.97800  0.77700  Biso   1.000  H
  O105     1.0000 0.48790  0.10250  0.47970  Biso   1.000  O
  Cu16     1.0000 0.25245  0.74618  0.31631  Biso   1.000  Cu
  O106     1.0000 0.22424  0.69798  0.30370  Biso   1.000  O
  O107     1.0000 0.96694  0.95959  0.42620  Biso   1.000  O
  O108     1.0000 0.04137  0.53549  0.06830  Biso   1.000  O
  O109     1.0000 0.19691  0.78098  0.19820  Biso   1.000  O
  O110     1.0000 0.22070  0.70243  0.18690  Biso   1.000  O
  O111     1.0000 0.20161  0.77229  0.31370  Biso   1.000  O
  C301     1.0000 0.03580  0.86130  0.30380  Biso   1.000  C
  C302     1.0000 0.18580  0.78440  0.25790  Biso   1.000  C
  C303     1.0000 0.10350  0.53520  0.15710  Biso   1.000  C
  H211     1.0000 0.09010  0.55820  0.14710  Biso   1.000  H
  C304     1.0000 0.15970  0.57610  0.21260  Biso   1.000  C
  C305     1.0000 0.13980  0.53490  0.19420  Biso   1.000  C
  C306     1.0000 0.21450  0.68510  0.24440  Biso   1.000  C
  C307     1.0000 0.09550  0.82910  0.34620  Biso   1.000  C
  H212     1.0000 0.08590  0.83260  0.39070  Biso   1.000  H
  C308     1.0000 0.16910  0.59640  0.15810  Biso   1.000  C
  H213     1.0000 0.16500  0.58640  0.11400  Biso   1.000  H
  H214     1.0000 0.02370  0.80000  0.23290  Biso   1.000  H
  C309     1.0000 0.07510  0.84010  0.29290  Biso   1.000  C
  C310     1.0000 0.03410  0.89470  0.34490  Biso   1.000  C
  H215     1.0000 0.05720  0.90680  0.35850  Biso   1.000  H
  C311     1.0000 0.18640  0.63540  0.16750  Biso   1.000  C
  H216     1.0000 0.19080  0.65210  0.13020  Biso   1.000  H
  C312     1.0000 0.19550  0.64600  0.23300  Biso   1.000  C
  C313     1.0000 0.16960  0.58680  0.27530  Biso   1.000  C
  H217     1.0000 0.16600  0.57000  0.31260  Biso   1.000  H
  C314     1.0000 0.18670  0.62680  0.28560  Biso   1.000  C
  H218     1.0000 0.19060  0.63700  0.32970  Biso   1.000  H
  C315     1.0000 0.13340  0.81140  0.33510  Biso   1.000  C
  H219     1.0000 0.14910  0.80470  0.37260  Biso   1.000  H
  C316     1.0000 0.14620  0.80460  0.26800  Biso   1.000  C
  C317     1.0000 0.08760  0.83420  0.22490  Biso   1.000  C
  H220     1.0000 0.07200  0.84220  0.18820  Biso   1.000  H
  C318     1.0000 0.12620  0.81490  0.21100  Biso   1.000  C
  H221     1.0000 0.13560  0.81050  0.16650  Biso   1.000  H
  N16      1.0000 0.25350  0.74400  0.42780  Biso   1.000  N
  C319     1.0000 0.24190  0.71220  0.45776  Biso   1.000  C
  H222     1.0000 0.23390  0.69050  0.43250  Biso   1.000  H
  C320     1.0000 0.27690  0.76230  0.46000  Biso   1.000  C
  H223     1.0000 0.29560  0.77690  0.43650  Biso   1.000  H
  H224     1.0000 0.20040  0.47800  0.27700  Biso   1.000  H
  O112     1.0000 0.98790  0.60250  0.97970  Biso   1.000  O
  Cu17     1.0000 0.50000  0.03849  0.50000  Biso   1.000  Cu
  O113     1.0000 0.50000  0.10380  0.50000  Biso   1.000  O
  Cu18     1.0000 0.00000  0.53849  0.00000  Biso   1.000  Cu
  O114     1.0000 0.00000  0.60380  0.00000  Biso   1.000  O
  Cu19     1.0000 0.50000  0.96151  0.50000  Biso   1.000  Cu
  O115     1.0000 0.50000  0.89620  0.50000  Biso   1.000  O
  Cu20     1.0000 0.00000  0.46151  0.00000  Biso   1.000  Cu
  O116     1.0000 0.00000  0.39620  0.00000  Biso   1.000  O
  Cu21     1.0000 0.53790  0.50000  0.00000  Biso   1.000  Cu
  Cu22     1.0000 0.03790  0.00000  0.50000  Biso   1.000  Cu
  Cu23     1.0000 0.46210  0.50000  0.00000  Biso   1.000  Cu
  Cu24     1.0000 0.96210  0.00000  0.50000  Biso   1.000  Cu
  C321     1.0000 0.50000  0.40970  0.86530  Biso   1.000  C
  C322     1.0000 0.50000  0.44500  0.91110  Biso   1.000  C
  N17      1.0000 0.50000  0.30690  0.74580  Biso   1.000  N
  C323     1.0000 0.50000  0.34300  0.77930  Biso   1.000  C
  C324     1.0000 0.00000  0.90970  0.36530  Biso   1.000  C
  C325     1.0000 0.00000  0.94500  0.41110  Biso   1.000  C
  N18      1.0000 0.00000  0.80690  0.24580  Biso   1.000  N
  C326     1.0000 0.00000  0.84300  0.27930  Biso   1.000  C
  C327     1.0000 0.50000  0.59030  0.86530  Biso   1.000  C
  C328     1.0000 0.50000  0.55500  0.91110  Biso   1.000  C
  N19      1.0000 0.50000  0.69310  0.74580  Biso   1.000  N
  C329     1.0000 0.50000  0.65700  0.77930  Biso   1.000  C
  C330     1.0000 0.00000  0.09030  0.36530  Biso   1.000  C
  C331     1.0000 0.00000  0.05500  0.41110  Biso   1.000  C
  N20      1.0000 0.00000  0.19310  0.24580  Biso   1.000  N
  C332     1.0000 0.00000  0.15700  0.27930  Biso   1.000  C
  C333     1.0000 0.50000  0.40970  0.13470  Biso   1.000  C
  C334     1.0000 0.50000  0.44500  0.08890  Biso   1.000  C
  N21      1.0000 0.50000  0.30690  0.25420  Biso   1.000  N
  C335     1.0000 0.50000  0.34300  0.22070  Biso   1.000  C
  C336     1.0000 0.00000  0.90970  0.63470  Biso   1.000  C
  C337     1.0000 0.00000  0.94500  0.58890  Biso   1.000  C
  N22      1.0000 0.00000  0.80690  0.75420  Biso   1.000  N
  C338     1.0000 0.00000  0.84300  0.72070  Biso   1.000  C
  C339     1.0000 0.50000  0.59030  0.13470  Biso   1.000  C
  C340     1.0000 0.50000  0.55500  0.08890  Biso   1.000  C
  N23      1.0000 0.50000  0.69310  0.25420  Biso   1.000  N
  C341     1.0000 0.50000  0.65700  0.22070  Biso   1.000  C
  C342     1.0000 0.00000  0.09030  0.63470  Biso   1.000  C
  C343     1.0000 0.00000  0.05500  0.58890  Biso   1.000  C
  N24      1.0000 0.00000  0.19310  0.75420  Biso   1.000  N
  C344     1.0000 0.00000  0.15700  0.72070  Biso   1.000  C
  N25      1.0000 0.30870  0.00000  0.75860  Biso   1.000  N
  C345     1.0000 0.40970  0.00000  0.63780  Biso   1.000  C
  C346     1.0000 0.44490  0.00000  0.58440  Biso   1.000  C
  C347     1.0000 0.34140  0.00000  0.71920  Biso   1.000  C
  N26      1.0000 0.80870  0.50000  0.25860  Biso   1.000  N
  C348     1.0000 0.90970  0.50000  0.13780  Biso   1.000  C
  C349     1.0000 0.94490  0.50000  0.08440  Biso   1.000  C
  C350     1.0000 0.84140  0.50000  0.21920  Biso   1.000  C
  N27      1.0000 0.69130  0.00000  0.75860  Biso   1.000  N
  C351     1.0000 0.59030  0.00000  0.63780  Biso   1.000  C
  C352     1.0000 0.55510  0.00000  0.58440  Biso   1.000  C
  C353     1.0000 0.65860  0.00000  0.71920  Biso   1.000  C
  N28      1.0000 0.19130  0.50000  0.25860  Biso   1.000  N
  C354     1.0000 0.09030  0.50000  0.13780  Biso   1.000  C
  C355     1.0000 0.05510  0.50000  0.08440  Biso   1.000  C
  C356     1.0000 0.15860  0.50000  0.21920  Biso   1.000  C
  N29      1.0000 0.69130  0.00000  0.24140  Biso   1.000  N
  C357     1.0000 0.59030  0.00000  0.36220  Biso   1.000  C
  C358     1.0000 0.55510  0.00000  0.41560  Biso   1.000  C
  C359     1.0000 0.65860  0.00000  0.28080  Biso   1.000  C
  N30      1.0000 0.19130  0.50000  0.74140  Biso   1.000  N
  C360     1.0000 0.09030  0.50000  0.86220  Biso   1.000  C
  C361     1.0000 0.05510  0.50000  0.91560  Biso   1.000  C
  C362     1.0000 0.15860  0.50000  0.78080  Biso   1.000  C
  N31      1.0000 0.30870  0.00000  0.24140  Biso   1.000  N
  C363     1.0000 0.40970  0.00000  0.36220  Biso   1.000  C
  C364     1.0000 0.44490  0.00000  0.41560  Biso   1.000  C
  C365     1.0000 0.34140  0.00000  0.28080  Biso   1.000  C
  N32      1.0000 0.80870  0.50000  0.74140  Biso   1.000  N
  C366     1.0000 0.90970  0.50000  0.86220  Biso   1.000  C
  C367     1.0000 0.94490  0.50000  0.91560  Biso   1.000  C
  C368     1.0000 0.84140  0.50000  0.78080  Biso   1.000  C
