data_image0
_cell_length_a       11.8454
_cell_length_b       28.3935
_cell_length_c       34.5364
_cell_angle_alpha    90
_cell_angle_beta     90
_cell_angle_gamma    90

_symmetry_space_group_name_H-M    "P 1"
_symmetry_int_tables_number       1

loop_
  _symmetry_equiv_pos_as_xyz
  'x, y, z'

loop_
  _atom_site_label
  _atom_site_occupancy
  _atom_site_fract_x
  _atom_site_fract_y
  _atom_site_fract_z
  _atom_site_thermal_displace_type
  _atom_site_B_iso_or_equiv
  _atom_site_type_symbol
  Ni1      1.0000 0.78365  0.39007  0.12687  Biso   1.000  Ni
  O1       1.0000 0.38420  0.60552  0.89038  Biso   1.000  O
  O2       1.0000 0.39430  0.54147  0.92795  Biso   1.000  O
  O3       1.0000 0.66929  0.54648  0.03824  Biso   1.000  O
  O4       1.0000 0.67130  0.61545  0.07015  Biso   1.000  O
  O5       1.0000 0.46890  0.74600  0.02849  Biso   1.000  O
  O6       1.0000 0.80776  0.45964  0.12429  Biso   1.000  O
  O7       1.0000 0.80240  0.45656  0.21139  Biso   1.000  O
  O8       1.0000 0.72720  0.39224  0.18425  Biso   1.000  O
  O9       1.0000 0.05310  0.37679  0.35425  Biso   1.000  O
  O10      1.0000 0.95440  0.44304  0.34686  Biso   1.000  O
  O11      1.0000 0.87240  0.23774  0.30055  Biso   1.000  O
  N1       1.0000 0.50380  0.73830  0.99234  Biso   1.000  N
  N2       1.0000 0.76710  0.31697  0.12621  Biso   1.000  N
  N3       1.0000 0.72820  0.07276  0.08854  Biso   1.000  N
  N4       1.0000 0.86390  0.25854  0.26716  Biso   1.000  N
  C1       1.0000 0.41050  0.58458  0.92107  Biso   1.000  C
  C2       1.0000 0.46490  0.61420  0.95470  Biso   1.000  C
  C3       1.0000 0.46140  0.66360  0.95590  Biso   1.000  C
  H1       1.0000 0.42440  0.68050  0.93670  Biso   1.000  H
  C4       1.0000 0.51450  0.68690  0.98670  Biso   1.000  C
  C5       1.0000 0.57380  0.66250  0.01400  Biso   1.000  C
  H2       1.0000 0.61170  0.67850  0.03360  Biso   1.000  H
  C6       1.0000 0.57700  0.61340  0.01210  Biso   1.000  C
  C7       1.0000 0.52680  0.58917  0.98159  Biso   1.000  C
  H3       1.0000 0.53480  0.55670  0.97940  Biso   1.000  H
  C8       1.0000 0.64650  0.58954  0.04234  Biso   1.000  C
  C9       1.0000 0.77880  0.41346  0.21097  Biso   1.000  C
  C10      1.0000 0.81810  0.38504  0.24470  Biso   1.000  C
  C11      1.0000 0.86710  0.40578  0.27700  Biso   1.000  C
  H4       1.0000 0.86760  0.43840  0.27940  Biso   1.000  H
  C12      1.0000 0.91530  0.37804  0.30564  Biso   1.000  C
  C13      1.0000 0.91300  0.32919  0.30208  Biso   1.000  C
  H5       1.0000 0.94510  0.31030  0.32110  Biso   1.000  H
  C14      1.0000 0.86250  0.30894  0.26985  Biso   1.000  C
  C15      1.0000 0.81460  0.33649  0.24116  Biso   1.000  C
  H6       1.0000 0.78060  0.32260  0.21980  Biso   1.000  H
  C16      1.0000 0.97840  0.40102  0.33833  Biso   1.000  C
  C17      1.0000 0.85010  0.29259  0.10960  Biso   1.000  C
  H7       1.0000 0.91580  0.30850  0.10280  Biso   1.000  H
  C18      1.0000 0.84340  0.24496  0.10194  Biso   1.000  C
  H8       1.0000 0.90310  0.22960  0.08990  Biso   1.000  H
  C19      1.0000 0.74750  0.22025  0.11228  Biso   1.000  C
  C20      1.0000 0.66290  0.24516  0.13099  Biso   1.000  C
  H9       1.0000 0.59800  0.22980  0.13940  Biso   1.000  H
  C21      1.0000 0.67570  0.29295  0.13711  Biso   1.000  C
  H10      1.0000 0.61770  0.30920  0.14940  Biso   1.000  H
  C22      1.0000 0.73750  0.16923  0.10361  Biso   1.000  C
  C23      1.0000 0.67430  0.13952  0.12653  Biso   1.000  C
  H11      1.0000 0.63400  0.15130  0.14750  Biso   1.000  H
  C24      1.0000 0.67130  0.09197  0.11805  Biso   1.000  C
  H12      1.0000 0.62770  0.07240  0.13360  Biso   1.000  H
  C25      1.0000 0.78720  0.10154  0.06575  Biso   1.000  C
  H13      1.0000 0.82570  0.08890  0.04470  Biso   1.000  H
  C26      1.0000 0.79330  0.14940  0.07216  Biso   1.000  C
  H14      1.0000 0.83480  0.16840  0.05550  Biso   1.000  H
  H15      1.0000 0.87600  0.46060  0.12720  Biso   1.000  H
  N5       1.0000 0.53230  0.73651  0.96771  Biso   1.000  N
  C27      1.0000 0.47540  0.61080  0.94940  Biso   1.000  C
  C28      1.0000 0.47540  0.65950  0.94650  Biso   1.000  C
  H16      1.0000 0.44050  0.67420  0.92560  Biso   1.000  H
  C29      1.0000 0.52780  0.68610  0.97488  Biso   1.000  C
  C30      1.0000 0.58550  0.66400  0.00560  Biso   1.000  C
  H17      1.0000 0.62110  0.68220  0.02440  Biso   1.000  H
  C31      1.0000 0.58920  0.61520  0.00780  Biso   1.000  C
  H18      1.0000 0.51870  0.55690  0.98520  Biso   1.000  H
  Ni2      1.0000 0.28365  0.89007  0.12687  Biso   1.000  Ni
  O12      1.0000 0.88420  0.10552  0.89038  Biso   1.000  O
  O13      1.0000 0.89430  0.04147  0.92795  Biso   1.000  O
  O14      1.0000 0.16929  0.04648  0.03824  Biso   1.000  O
  O15      1.0000 0.17130  0.11545  0.07015  Biso   1.000  O
  O16      1.0000 0.96890  0.24600  0.02849  Biso   1.000  O
  O17      1.0000 0.30776  0.95964  0.12429  Biso   1.000  O
  O18      1.0000 0.30240  0.95656  0.21139  Biso   1.000  O
  O19      1.0000 0.22720  0.89224  0.18425  Biso   1.000  O
  O20      1.0000 0.55310  0.87679  0.35425  Biso   1.000  O
  O21      1.0000 0.45440  0.94304  0.34686  Biso   1.000  O
  O22      1.0000 0.37240  0.73774  0.30055  Biso   1.000  O
  N6       1.0000 0.00380  0.23830  0.99234  Biso   1.000  N
  N7       1.0000 0.26710  0.81697  0.12621  Biso   1.000  N
  N8       1.0000 0.22820  0.57276  0.08854  Biso   1.000  N
  N9       1.0000 0.36390  0.75854  0.26716  Biso   1.000  N
  C32      1.0000 0.91050  0.08458  0.92107  Biso   1.000  C
  C33      1.0000 0.96490  0.11420  0.95470  Biso   1.000  C
  C34      1.0000 0.96140  0.16360  0.95590  Biso   1.000  C
  H19      1.0000 0.92440  0.18050  0.93670  Biso   1.000  H
  C35      1.0000 0.01450  0.18690  0.98670  Biso   1.000  C
  C36      1.0000 0.07380  0.16250  0.01400  Biso   1.000  C
  H20      1.0000 0.11170  0.17850  0.03360  Biso   1.000  H
  C37      1.0000 0.07700  0.11340  0.01210  Biso   1.000  C
  C38      1.0000 0.02680  0.08917  0.98159  Biso   1.000  C
  H21      1.0000 0.03480  0.05670  0.97940  Biso   1.000  H
  C39      1.0000 0.14650  0.08954  0.04234  Biso   1.000  C
  C40      1.0000 0.27880  0.91346  0.21097  Biso   1.000  C
  C41      1.0000 0.31810  0.88504  0.24470  Biso   1.000  C
  C42      1.0000 0.36710  0.90578  0.27700  Biso   1.000  C
  H22      1.0000 0.36760  0.93840  0.27940  Biso   1.000  H
  C43      1.0000 0.41530  0.87804  0.30564  Biso   1.000  C
  C44      1.0000 0.41300  0.82919  0.30208  Biso   1.000  C
  H23      1.0000 0.44510  0.81030  0.32110  Biso   1.000  H
  C45      1.0000 0.36250  0.80894  0.26985  Biso   1.000  C
  C46      1.0000 0.31460  0.83649  0.24116  Biso   1.000  C
  H24      1.0000 0.28060  0.82260  0.21980  Biso   1.000  H
  C47      1.0000 0.47840  0.90102  0.33833  Biso   1.000  C
  C48      1.0000 0.35010  0.79259  0.10960  Biso   1.000  C
  H25      1.0000 0.41580  0.80850  0.10280  Biso   1.000  H
  C49      1.0000 0.34340  0.74496  0.10194  Biso   1.000  C
  H26      1.0000 0.40310  0.72960  0.08990  Biso   1.000  H
  C50      1.0000 0.24750  0.72025  0.11228  Biso   1.000  C
  C51      1.0000 0.16290  0.74516  0.13099  Biso   1.000  C
  H27      1.0000 0.09800  0.72980  0.13940  Biso   1.000  H
  C52      1.0000 0.17570  0.79295  0.13711  Biso   1.000  C
  H28      1.0000 0.11770  0.80920  0.14940  Biso   1.000  H
  C53      1.0000 0.23750  0.66923  0.10361  Biso   1.000  C
  C54      1.0000 0.17430  0.63952  0.12653  Biso   1.000  C
  H29      1.0000 0.13400  0.65130  0.14750  Biso   1.000  H
  C55      1.0000 0.17130  0.59197  0.11805  Biso   1.000  C
  H30      1.0000 0.12770  0.57240  0.13360  Biso   1.000  H
  C56      1.0000 0.28720  0.60154  0.06575  Biso   1.000  C
  H31      1.0000 0.32570  0.58890  0.04470  Biso   1.000  H
  C57      1.0000 0.29330  0.64940  0.07216  Biso   1.000  C
  H32      1.0000 0.33480  0.66840  0.05550  Biso   1.000  H
  H33      1.0000 0.37600  0.96060  0.12720  Biso   1.000  H
  N10      1.0000 0.03230  0.23651  0.96771  Biso   1.000  N
  C58      1.0000 0.97540  0.11080  0.94940  Biso   1.000  C
  C59      1.0000 0.97540  0.15950  0.94650  Biso   1.000  C
  H34      1.0000 0.94050  0.17420  0.92560  Biso   1.000  H
  C60      1.0000 0.02780  0.18610  0.97488  Biso   1.000  C
  C61      1.0000 0.08550  0.16400  0.00560  Biso   1.000  C
  H35      1.0000 0.12110  0.18220  0.02440  Biso   1.000  H
  C62      1.0000 0.08920  0.11520  0.00780  Biso   1.000  C
  H36      1.0000 0.01870  0.05690  0.98520  Biso   1.000  H
  Ni3      1.0000 0.71635  0.60993  0.12687  Biso   1.000  Ni
  O23      1.0000 0.11580  0.39448  0.89038  Biso   1.000  O
  O24      1.0000 0.10570  0.45853  0.92795  Biso   1.000  O
  O25      1.0000 0.83071  0.45352  0.03824  Biso   1.000  O
  O26      1.0000 0.82870  0.38455  0.07015  Biso   1.000  O
  O27      1.0000 0.03110  0.25400  0.02849  Biso   1.000  O
  O28      1.0000 0.69224  0.54036  0.12429  Biso   1.000  O
  O29      1.0000 0.69760  0.54344  0.21139  Biso   1.000  O
  O30      1.0000 0.77280  0.60776  0.18425  Biso   1.000  O
  O31      1.0000 0.44690  0.62321  0.35425  Biso   1.000  O
  O32      1.0000 0.54560  0.55696  0.34686  Biso   1.000  O
  O33      1.0000 0.62760  0.76226  0.30055  Biso   1.000  O
  N11      1.0000 0.99620  0.26170  0.99234  Biso   1.000  N
  N12      1.0000 0.73290  0.68303  0.12621  Biso   1.000  N
  N13      1.0000 0.77180  0.92724  0.08854  Biso   1.000  N
  N14      1.0000 0.63610  0.74146  0.26716  Biso   1.000  N
  C63      1.0000 0.08950  0.41542  0.92107  Biso   1.000  C
  C64      1.0000 0.03510  0.38580  0.95470  Biso   1.000  C
  C65      1.0000 0.03860  0.33640  0.95590  Biso   1.000  C
  H37      1.0000 0.07560  0.31950  0.93670  Biso   1.000  H
  C66      1.0000 0.98550  0.31310  0.98670  Biso   1.000  C
  C67      1.0000 0.92620  0.33750  0.01400  Biso   1.000  C
  H38      1.0000 0.88830  0.32150  0.03360  Biso   1.000  H
  C68      1.0000 0.92300  0.38660  0.01210  Biso   1.000  C
  C69      1.0000 0.97320  0.41083  0.98159  Biso   1.000  C
  H39      1.0000 0.96520  0.44330  0.97940  Biso   1.000  H
  C70      1.0000 0.85350  0.41046  0.04234  Biso   1.000  C
  C71      1.0000 0.72120  0.58654  0.21097  Biso   1.000  C
  C72      1.0000 0.68190  0.61496  0.24470  Biso   1.000  C
  C73      1.0000 0.63290  0.59422  0.27700  Biso   1.000  C
  H40      1.0000 0.63240  0.56160  0.27940  Biso   1.000  H
  C74      1.0000 0.58470  0.62196  0.30564  Biso   1.000  C
  C75      1.0000 0.58700  0.67081  0.30208  Biso   1.000  C
  H41      1.0000 0.55490  0.68970  0.32110  Biso   1.000  H
  C76      1.0000 0.63750  0.69106  0.26985  Biso   1.000  C
  C77      1.0000 0.68540  0.66351  0.24116  Biso   1.000  C
  H42      1.0000 0.71940  0.67740  0.21980  Biso   1.000  H
  C78      1.0000 0.52160  0.59898  0.33833  Biso   1.000  C
  C79      1.0000 0.64990  0.70741  0.10960  Biso   1.000  C
  H43      1.0000 0.58420  0.69150  0.10280  Biso   1.000  H
  C80      1.0000 0.65660  0.75504  0.10194  Biso   1.000  C
  H44      1.0000 0.59690  0.77040  0.08990  Biso   1.000  H
  C81      1.0000 0.75250  0.77975  0.11228  Biso   1.000  C
  C82      1.0000 0.83710  0.75484  0.13099  Biso   1.000  C
  H45      1.0000 0.90200  0.77020  0.13940  Biso   1.000  H
  C83      1.0000 0.82430  0.70705  0.13711  Biso   1.000  C
  H46      1.0000 0.88230  0.69080  0.14940  Biso   1.000  H
  C84      1.0000 0.76250  0.83077  0.10361  Biso   1.000  C
  C85      1.0000 0.82570  0.86048  0.12653  Biso   1.000  C
  H47      1.0000 0.86600  0.84870  0.14750  Biso   1.000  H
  C86      1.0000 0.82870  0.90803  0.11805  Biso   1.000  C
  H48      1.0000 0.87230  0.92760  0.13360  Biso   1.000  H
  C87      1.0000 0.71280  0.89846  0.06575  Biso   1.000  C
  H49      1.0000 0.67430  0.91110  0.04470  Biso   1.000  H
  C88      1.0000 0.70670  0.85060  0.07216  Biso   1.000  C
  H50      1.0000 0.66520  0.83160  0.05550  Biso   1.000  H
  H51      1.0000 0.62400  0.53940  0.12720  Biso   1.000  H
  N15      1.0000 0.96770  0.26349  0.96771  Biso   1.000  N
  C89      1.0000 0.02460  0.38920  0.94940  Biso   1.000  C
  C90      1.0000 0.02460  0.34050  0.94650  Biso   1.000  C
  H52      1.0000 0.05950  0.32580  0.92560  Biso   1.000  H
  C91      1.0000 0.97220  0.31390  0.97488  Biso   1.000  C
  C92      1.0000 0.91450  0.33600  0.00560  Biso   1.000  C
  H53      1.0000 0.87890  0.31780  0.02440  Biso   1.000  H
  C93      1.0000 0.91080  0.38480  0.00780  Biso   1.000  C
  H54      1.0000 0.98130  0.44310  0.98520  Biso   1.000  H
  Ni4      1.0000 0.21635  0.10993  0.12687  Biso   1.000  Ni
  O34      1.0000 0.61580  0.89448  0.89038  Biso   1.000  O
  O35      1.0000 0.60570  0.95853  0.92795  Biso   1.000  O
  O36      1.0000 0.33071  0.95352  0.03824  Biso   1.000  O
  O37      1.0000 0.32870  0.88455  0.07015  Biso   1.000  O
  O38      1.0000 0.53110  0.75400  0.02849  Biso   1.000  O
  O39      1.0000 0.19224  0.04036  0.12429  Biso   1.000  O
  O40      1.0000 0.19760  0.04344  0.21139  Biso   1.000  O
  O41      1.0000 0.27280  0.10776  0.18425  Biso   1.000  O
  O42      1.0000 0.94690  0.12321  0.35425  Biso   1.000  O
  O43      1.0000 0.04560  0.05696  0.34686  Biso   1.000  O
  O44      1.0000 0.12760  0.26226  0.30055  Biso   1.000  O
  N16      1.0000 0.49620  0.76170  0.99234  Biso   1.000  N
  N17      1.0000 0.23290  0.18303  0.12621  Biso   1.000  N
  N18      1.0000 0.27180  0.42724  0.08854  Biso   1.000  N
  N19      1.0000 0.13610  0.24146  0.26716  Biso   1.000  N
  C94      1.0000 0.58950  0.91542  0.92107  Biso   1.000  C
  C95      1.0000 0.53510  0.88580  0.95470  Biso   1.000  C
  C96      1.0000 0.53860  0.83640  0.95590  Biso   1.000  C
  H55      1.0000 0.57560  0.81950  0.93670  Biso   1.000  H
  C97      1.0000 0.48550  0.81310  0.98670  Biso   1.000  C
  C98      1.0000 0.42620  0.83750  0.01400  Biso   1.000  C
  H56      1.0000 0.38830  0.82150  0.03360  Biso   1.000  H
  C99      1.0000 0.42300  0.88660  0.01210  Biso   1.000  C
  C100     1.0000 0.47320  0.91083  0.98159  Biso   1.000  C
  H57      1.0000 0.46520  0.94330  0.97940  Biso   1.000  H
  C101     1.0000 0.35350  0.91046  0.04234  Biso   1.000  C
  C102     1.0000 0.22120  0.08654  0.21097  Biso   1.000  C
  C103     1.0000 0.18190  0.11496  0.24470  Biso   1.000  C
  C104     1.0000 0.13290  0.09422  0.27700  Biso   1.000  C
  H58      1.0000 0.13240  0.06160  0.27940  Biso   1.000  H
  C105     1.0000 0.08470  0.12196  0.30564  Biso   1.000  C
  C106     1.0000 0.08700  0.17081  0.30208  Biso   1.000  C
  H59      1.0000 0.05490  0.18970  0.32110  Biso   1.000  H
  C107     1.0000 0.13750  0.19106  0.26985  Biso   1.000  C
  C108     1.0000 0.18540  0.16351  0.24116  Biso   1.000  C
  H60      1.0000 0.21940  0.17740  0.21980  Biso   1.000  H
  C109     1.0000 0.02160  0.09898  0.33833  Biso   1.000  C
  C110     1.0000 0.14990  0.20741  0.10960  Biso   1.000  C
  H61      1.0000 0.08420  0.19150  0.10280  Biso   1.000  H
  C111     1.0000 0.15660  0.25504  0.10194  Biso   1.000  C
  H62      1.0000 0.09690  0.27040  0.08990  Biso   1.000  H
  C112     1.0000 0.25250  0.27975  0.11228  Biso   1.000  C
  C113     1.0000 0.33710  0.25484  0.13099  Biso   1.000  C
  H63      1.0000 0.40200  0.27020  0.13940  Biso   1.000  H
  C114     1.0000 0.32430  0.20705  0.13711  Biso   1.000  C
  H64      1.0000 0.38230  0.19080  0.14940  Biso   1.000  H
  C115     1.0000 0.26250  0.33077  0.10361  Biso   1.000  C
  C116     1.0000 0.32570  0.36048  0.12653  Biso   1.000  C
  H65      1.0000 0.36600  0.34870  0.14750  Biso   1.000  H
  C117     1.0000 0.32870  0.40803  0.11805  Biso   1.000  C
  H66      1.0000 0.37230  0.42760  0.13360  Biso   1.000  H
  C118     1.0000 0.21280  0.39846  0.06575  Biso   1.000  C
  H67      1.0000 0.17430  0.41110  0.04470  Biso   1.000  H
  C119     1.0000 0.20670  0.35060  0.07216  Biso   1.000  C
  H68      1.0000 0.16520  0.33160  0.05550  Biso   1.000  H
  H69      1.0000 0.12400  0.03940  0.12720  Biso   1.000  H
  N20      1.0000 0.46770  0.76349  0.96771  Biso   1.000  N
  C120     1.0000 0.52460  0.88920  0.94940  Biso   1.000  C
  C121     1.0000 0.52460  0.84050  0.94650  Biso   1.000  C
  H70      1.0000 0.55950  0.82580  0.92560  Biso   1.000  H
  C122     1.0000 0.47220  0.81390  0.97488  Biso   1.000  C
  C123     1.0000 0.41450  0.83600  0.00560  Biso   1.000  C
  H71      1.0000 0.37890  0.81780  0.02440  Biso   1.000  H
  C124     1.0000 0.41080  0.88480  0.00780  Biso   1.000  C
  H72      1.0000 0.48130  0.94310  0.98520  Biso   1.000  H
  Ni5      1.0000 0.21635  0.39007  0.37313  Biso   1.000  Ni
  O45      1.0000 0.61580  0.60552  0.60962  Biso   1.000  O
  O46      1.0000 0.60570  0.54147  0.57205  Biso   1.000  O
  O47      1.0000 0.33071  0.54648  0.46176  Biso   1.000  O
  O48      1.0000 0.32870  0.61545  0.42985  Biso   1.000  O
  O49      1.0000 0.53110  0.74600  0.47151  Biso   1.000  O
  O50      1.0000 0.19224  0.45964  0.37571  Biso   1.000  O
  O51      1.0000 0.19760  0.45656  0.28861  Biso   1.000  O
  O52      1.0000 0.27280  0.39224  0.31575  Biso   1.000  O
  O53      1.0000 0.94690  0.37679  0.14575  Biso   1.000  O
  O54      1.0000 0.04560  0.44304  0.15314  Biso   1.000  O
  O55      1.0000 0.12760  0.23774  0.19945  Biso   1.000  O
  N21      1.0000 0.49620  0.73830  0.50766  Biso   1.000  N
  N22      1.0000 0.23290  0.31697  0.37379  Biso   1.000  N
  N23      1.0000 0.27180  0.07276  0.41146  Biso   1.000  N
  N24      1.0000 0.13610  0.25854  0.23284  Biso   1.000  N
  C125     1.0000 0.58950  0.58458  0.57893  Biso   1.000  C
  C126     1.0000 0.53510  0.61420  0.54530  Biso   1.000  C
  C127     1.0000 0.53860  0.66360  0.54410  Biso   1.000  C
  H73      1.0000 0.57560  0.68050  0.56330  Biso   1.000  H
  C128     1.0000 0.48550  0.68690  0.51330  Biso   1.000  C
  C129     1.0000 0.42620  0.66250  0.48600  Biso   1.000  C
  H74      1.0000 0.38830  0.67850  0.46640  Biso   1.000  H
  C130     1.0000 0.42300  0.61340  0.48790  Biso   1.000  C
  C131     1.0000 0.47320  0.58917  0.51841  Biso   1.000  C
  H75      1.0000 0.46520  0.55670  0.52060  Biso   1.000  H
  C132     1.0000 0.35350  0.58954  0.45766  Biso   1.000  C
  C133     1.0000 0.22120  0.41346  0.28903  Biso   1.000  C
  C134     1.0000 0.18190  0.38504  0.25530  Biso   1.000  C
  C135     1.0000 0.13290  0.40578  0.22300  Biso   1.000  C
  H76      1.0000 0.13240  0.43840  0.22060  Biso   1.000  H
  C136     1.0000 0.08470  0.37804  0.19436  Biso   1.000  C
  C137     1.0000 0.08700  0.32919  0.19792  Biso   1.000  C
  H77      1.0000 0.05490  0.31030  0.17890  Biso   1.000  H
  C138     1.0000 0.13750  0.30894  0.23015  Biso   1.000  C
  C139     1.0000 0.18540  0.33649  0.25884  Biso   1.000  C
  H78      1.0000 0.21940  0.32260  0.28020  Biso   1.000  H
  C140     1.0000 0.02160  0.40102  0.16167  Biso   1.000  C
  C141     1.0000 0.14990  0.29259  0.39040  Biso   1.000  C
  H79      1.0000 0.08420  0.30850  0.39720  Biso   1.000  H
  C142     1.0000 0.15660  0.24496  0.39806  Biso   1.000  C
  H80      1.0000 0.09690  0.22960  0.41010  Biso   1.000  H
  C143     1.0000 0.25250  0.22025  0.38772  Biso   1.000  C
  C144     1.0000 0.33710  0.24516  0.36901  Biso   1.000  C
  H81      1.0000 0.40200  0.22980  0.36060  Biso   1.000  H
  C145     1.0000 0.32430  0.29295  0.36289  Biso   1.000  C
  H82      1.0000 0.38230  0.30920  0.35060  Biso   1.000  H
  C146     1.0000 0.26250  0.16923  0.39639  Biso   1.000  C
  C147     1.0000 0.32570  0.13952  0.37347  Biso   1.000  C
  H83      1.0000 0.36600  0.15130  0.35250  Biso   1.000  H
  C148     1.0000 0.32870  0.09197  0.38195  Biso   1.000  C
  H84      1.0000 0.37230  0.07240  0.36640  Biso   1.000  H
  C149     1.0000 0.21280  0.10154  0.43425  Biso   1.000  C
  H85      1.0000 0.17430  0.08890  0.45530  Biso   1.000  H
  C150     1.0000 0.20670  0.14940  0.42784  Biso   1.000  C
  H86      1.0000 0.16520  0.16840  0.44450  Biso   1.000  H
  H87      1.0000 0.12400  0.46060  0.37280  Biso   1.000  H
  N25      1.0000 0.46770  0.73651  0.53229  Biso   1.000  N
  C151     1.0000 0.52460  0.61080  0.55060  Biso   1.000  C
  C152     1.0000 0.52460  0.65950  0.55350  Biso   1.000  C
  H88      1.0000 0.55950  0.67420  0.57440  Biso   1.000  H
  C153     1.0000 0.47220  0.68610  0.52512  Biso   1.000  C
  C154     1.0000 0.41450  0.66400  0.49440  Biso   1.000  C
  H89      1.0000 0.37890  0.68220  0.47560  Biso   1.000  H
  C155     1.0000 0.41080  0.61520  0.49220  Biso   1.000  C
  H90      1.0000 0.48130  0.55690  0.51480  Biso   1.000  H
  Ni6      1.0000 0.71635  0.89007  0.37313  Biso   1.000  Ni
  O56      1.0000 0.11580  0.10552  0.60962  Biso   1.000  O
  O57      1.0000 0.10570  0.04147  0.57205  Biso   1.000  O
  O58      1.0000 0.83071  0.04648  0.46176  Biso   1.000  O
  O59      1.0000 0.82870  0.11545  0.42985  Biso   1.000  O
  O60      1.0000 0.03110  0.24600  0.47151  Biso   1.000  O
  O61      1.0000 0.69224  0.95964  0.37571  Biso   1.000  O
  O62      1.0000 0.69760  0.95656  0.28861  Biso   1.000  O
  O63      1.0000 0.77280  0.89224  0.31575  Biso   1.000  O
  O64      1.0000 0.44690  0.87679  0.14575  Biso   1.000  O
  O65      1.0000 0.54560  0.94304  0.15314  Biso   1.000  O
  O66      1.0000 0.62760  0.73774  0.19945  Biso   1.000  O
  N26      1.0000 0.99620  0.23830  0.50766  Biso   1.000  N
  N27      1.0000 0.73290  0.81697  0.37379  Biso   1.000  N
  N28      1.0000 0.77180  0.57276  0.41146  Biso   1.000  N
  N29      1.0000 0.63610  0.75854  0.23284  Biso   1.000  N
  C156     1.0000 0.08950  0.08458  0.57893  Biso   1.000  C
  C157     1.0000 0.03510  0.11420  0.54530  Biso   1.000  C
  C158     1.0000 0.03860  0.16360  0.54410  Biso   1.000  C
  H91      1.0000 0.07560  0.18050  0.56330  Biso   1.000  H
  C159     1.0000 0.98550  0.18690  0.51330  Biso   1.000  C
  C160     1.0000 0.92620  0.16250  0.48600  Biso   1.000  C
  H92      1.0000 0.88830  0.17850  0.46640  Biso   1.000  H
  C161     1.0000 0.92300  0.11340  0.48790  Biso   1.000  C
  C162     1.0000 0.97320  0.08917  0.51841  Biso   1.000  C
  H93      1.0000 0.96520  0.05670  0.52060  Biso   1.000  H
  C163     1.0000 0.85350  0.08954  0.45766  Biso   1.000  C
  C164     1.0000 0.72120  0.91346  0.28903  Biso   1.000  C
  C165     1.0000 0.68190  0.88504  0.25530  Biso   1.000  C
  C166     1.0000 0.63290  0.90578  0.22300  Biso   1.000  C
  H94      1.0000 0.63240  0.93840  0.22060  Biso   1.000  H
  C167     1.0000 0.58470  0.87804  0.19436  Biso   1.000  C
  C168     1.0000 0.58700  0.82919  0.19792  Biso   1.000  C
  H95      1.0000 0.55490  0.81030  0.17890  Biso   1.000  H
  C169     1.0000 0.63750  0.80894  0.23015  Biso   1.000  C
  C170     1.0000 0.68540  0.83649  0.25884  Biso   1.000  C
  H96      1.0000 0.71940  0.82260  0.28020  Biso   1.000  H
  C171     1.0000 0.52160  0.90102  0.16167  Biso   1.000  C
  C172     1.0000 0.64990  0.79259  0.39040  Biso   1.000  C
  H97      1.0000 0.58420  0.80850  0.39720  Biso   1.000  H
  C173     1.0000 0.65660  0.74496  0.39806  Biso   1.000  C
  H98      1.0000 0.59690  0.72960  0.41010  Biso   1.000  H
  C174     1.0000 0.75250  0.72025  0.38772  Biso   1.000  C
  C175     1.0000 0.83710  0.74516  0.36901  Biso   1.000  C
  H99      1.0000 0.90200  0.72980  0.36060  Biso   1.000  H
  C176     1.0000 0.82430  0.79295  0.36289  Biso   1.000  C
  H100     1.0000 0.88230  0.80920  0.35060  Biso   1.000  H
  C177     1.0000 0.76250  0.66923  0.39639  Biso   1.000  C
  C178     1.0000 0.82570  0.63952  0.37347  Biso   1.000  C
  H101     1.0000 0.86600  0.65130  0.35250  Biso   1.000  H
  C179     1.0000 0.82870  0.59197  0.38195  Biso   1.000  C
  H102     1.0000 0.87230  0.57240  0.36640  Biso   1.000  H
  C180     1.0000 0.71280  0.60154  0.43425  Biso   1.000  C
  H103     1.0000 0.67430  0.58890  0.45530  Biso   1.000  H
  C181     1.0000 0.70670  0.64940  0.42784  Biso   1.000  C
  H104     1.0000 0.66520  0.66840  0.44450  Biso   1.000  H
  H105     1.0000 0.62400  0.96060  0.37280  Biso   1.000  H
  N30      1.0000 0.96770  0.23651  0.53229  Biso   1.000  N
  C182     1.0000 0.02460  0.11080  0.55060  Biso   1.000  C
  C183     1.0000 0.02460  0.15950  0.55350  Biso   1.000  C
  H106     1.0000 0.05950  0.17420  0.57440  Biso   1.000  H
  C184     1.0000 0.97220  0.18610  0.52512  Biso   1.000  C
  C185     1.0000 0.91450  0.16400  0.49440  Biso   1.000  C
  H107     1.0000 0.87890  0.18220  0.47560  Biso   1.000  H
  C186     1.0000 0.91080  0.11520  0.49220  Biso   1.000  C
  H108     1.0000 0.98130  0.05690  0.51480  Biso   1.000  H
  Ni7      1.0000 0.28365  0.60993  0.37313  Biso   1.000  Ni
  O67      1.0000 0.88420  0.39448  0.60962  Biso   1.000  O
  O68      1.0000 0.89430  0.45853  0.57205  Biso   1.000  O
  O69      1.0000 0.16929  0.45352  0.46176  Biso   1.000  O
  O70      1.0000 0.17130  0.38455  0.42985  Biso   1.000  O
  O71      1.0000 0.96890  0.25400  0.47151  Biso   1.000  O
  O72      1.0000 0.30776  0.54036  0.37571  Biso   1.000  O
  O73      1.0000 0.30240  0.54344  0.28861  Biso   1.000  O
  O74      1.0000 0.22720  0.60776  0.31575  Biso   1.000  O
  O75      1.0000 0.55310  0.62321  0.14575  Biso   1.000  O
  O76      1.0000 0.45440  0.55696  0.15314  Biso   1.000  O
  O77      1.0000 0.37240  0.76226  0.19945  Biso   1.000  O
  N31      1.0000 0.00380  0.26170  0.50766  Biso   1.000  N
  N32      1.0000 0.26710  0.68303  0.37379  Biso   1.000  N
  N33      1.0000 0.22820  0.92724  0.41146  Biso   1.000  N
  N34      1.0000 0.36390  0.74146  0.23284  Biso   1.000  N
  C187     1.0000 0.91050  0.41542  0.57893  Biso   1.000  C
  C188     1.0000 0.96490  0.38580  0.54530  Biso   1.000  C
  C189     1.0000 0.96140  0.33640  0.54410  Biso   1.000  C
  H109     1.0000 0.92440  0.31950  0.56330  Biso   1.000  H
  C190     1.0000 0.01450  0.31310  0.51330  Biso   1.000  C
  C191     1.0000 0.07380  0.33750  0.48600  Biso   1.000  C
  H110     1.0000 0.11170  0.32150  0.46640  Biso   1.000  H
  C192     1.0000 0.07700  0.38660  0.48790  Biso   1.000  C
  C193     1.0000 0.02680  0.41083  0.51841  Biso   1.000  C
  H111     1.0000 0.03480  0.44330  0.52060  Biso   1.000  H
  C194     1.0000 0.14650  0.41046  0.45766  Biso   1.000  C
  C195     1.0000 0.27880  0.58654  0.28903  Biso   1.000  C
  C196     1.0000 0.31810  0.61496  0.25530  Biso   1.000  C
  C197     1.0000 0.36710  0.59422  0.22300  Biso   1.000  C
  H112     1.0000 0.36760  0.56160  0.22060  Biso   1.000  H
  C198     1.0000 0.41530  0.62196  0.19436  Biso   1.000  C
  C199     1.0000 0.41300  0.67081  0.19792  Biso   1.000  C
  H113     1.0000 0.44510  0.68970  0.17890  Biso   1.000  H
  C200     1.0000 0.36250  0.69106  0.23015  Biso   1.000  C
  C201     1.0000 0.31460  0.66351  0.25884  Biso   1.000  C
  H114     1.0000 0.28060  0.67740  0.28020  Biso   1.000  H
  C202     1.0000 0.47840  0.59898  0.16167  Biso   1.000  C
  C203     1.0000 0.35010  0.70741  0.39040  Biso   1.000  C
  H115     1.0000 0.41580  0.69150  0.39720  Biso   1.000  H
  C204     1.0000 0.34340  0.75504  0.39806  Biso   1.000  C
  H116     1.0000 0.40310  0.77040  0.41010  Biso   1.000  H
  C205     1.0000 0.24750  0.77975  0.38772  Biso   1.000  C
  C206     1.0000 0.16290  0.75484  0.36901  Biso   1.000  C
  H117     1.0000 0.09800  0.77020  0.36060  Biso   1.000  H
  C207     1.0000 0.17570  0.70705  0.36289  Biso   1.000  C
  H118     1.0000 0.11770  0.69080  0.35060  Biso   1.000  H
  C208     1.0000 0.23750  0.83077  0.39639  Biso   1.000  C
  C209     1.0000 0.17430  0.86048  0.37347  Biso   1.000  C
  H119     1.0000 0.13400  0.84870  0.35250  Biso   1.000  H
  C210     1.0000 0.17130  0.90803  0.38195  Biso   1.000  C
  H120     1.0000 0.12770  0.92760  0.36640  Biso   1.000  H
  C211     1.0000 0.28720  0.89846  0.43425  Biso   1.000  C
  H121     1.0000 0.32570  0.91110  0.45530  Biso   1.000  H
  C212     1.0000 0.29330  0.85060  0.42784  Biso   1.000  C
  H122     1.0000 0.33480  0.83160  0.44450  Biso   1.000  H
  H123     1.0000 0.37600  0.53940  0.37280  Biso   1.000  H
  N35      1.0000 0.03230  0.26349  0.53229  Biso   1.000  N
  C213     1.0000 0.97540  0.38920  0.55060  Biso   1.000  C
  C214     1.0000 0.97540  0.34050  0.55350  Biso   1.000  C
  H124     1.0000 0.94050  0.32580  0.57440  Biso   1.000  H
  C215     1.0000 0.02780  0.31390  0.52512  Biso   1.000  C
  C216     1.0000 0.08550  0.33600  0.49440  Biso   1.000  C
  H125     1.0000 0.12110  0.31780  0.47560  Biso   1.000  H
  C217     1.0000 0.08920  0.38480  0.49220  Biso   1.000  C
  H126     1.0000 0.01870  0.44310  0.51480  Biso   1.000  H
  Ni8      1.0000 0.78365  0.10993  0.37313  Biso   1.000  Ni
  O78      1.0000 0.38420  0.89448  0.60962  Biso   1.000  O
  O79      1.0000 0.39430  0.95853  0.57205  Biso   1.000  O
  O80      1.0000 0.66929  0.95352  0.46176  Biso   1.000  O
  O81      1.0000 0.67130  0.88455  0.42985  Biso   1.000  O
  O82      1.0000 0.46890  0.75400  0.47151  Biso   1.000  O
  O83      1.0000 0.80776  0.04036  0.37571  Biso   1.000  O
  O84      1.0000 0.80240  0.04344  0.28861  Biso   1.000  O
  O85      1.0000 0.72720  0.10776  0.31575  Biso   1.000  O
  O86      1.0000 0.05310  0.12321  0.14575  Biso   1.000  O
  O87      1.0000 0.95440  0.05696  0.15314  Biso   1.000  O
  O88      1.0000 0.87240  0.26226  0.19945  Biso   1.000  O
  N36      1.0000 0.50380  0.76170  0.50766  Biso   1.000  N
  N37      1.0000 0.76710  0.18303  0.37379  Biso   1.000  N
  N38      1.0000 0.72820  0.42724  0.41146  Biso   1.000  N
  N39      1.0000 0.86390  0.24146  0.23284  Biso   1.000  N
  C218     1.0000 0.41050  0.91542  0.57893  Biso   1.000  C
  C219     1.0000 0.46490  0.88580  0.54530  Biso   1.000  C
  C220     1.0000 0.46140  0.83640  0.54410  Biso   1.000  C
  H127     1.0000 0.42440  0.81950  0.56330  Biso   1.000  H
  C221     1.0000 0.51450  0.81310  0.51330  Biso   1.000  C
  C222     1.0000 0.57380  0.83750  0.48600  Biso   1.000  C
  H128     1.0000 0.61170  0.82150  0.46640  Biso   1.000  H
  C223     1.0000 0.57700  0.88660  0.48790  Biso   1.000  C
  C224     1.0000 0.52680  0.91083  0.51841  Biso   1.000  C
  H129     1.0000 0.53480  0.94330  0.52060  Biso   1.000  H
  C225     1.0000 0.64650  0.91046  0.45766  Biso   1.000  C
  C226     1.0000 0.77880  0.08654  0.28903  Biso   1.000  C
  C227     1.0000 0.81810  0.11496  0.25530  Biso   1.000  C
  C228     1.0000 0.86710  0.09422  0.22300  Biso   1.000  C
  H130     1.0000 0.86760  0.06160  0.22060  Biso   1.000  H
  C229     1.0000 0.91530  0.12196  0.19436  Biso   1.000  C
  C230     1.0000 0.91300  0.17081  0.19792  Biso   1.000  C
  H131     1.0000 0.94510  0.18970  0.17890  Biso   1.000  H
  C231     1.0000 0.86250  0.19106  0.23015  Biso   1.000  C
  C232     1.0000 0.81460  0.16351  0.25884  Biso   1.000  C
  H132     1.0000 0.78060  0.17740  0.28020  Biso   1.000  H
  C233     1.0000 0.97840  0.09898  0.16167  Biso   1.000  C
  C234     1.0000 0.85010  0.20741  0.39040  Biso   1.000  C
  H133     1.0000 0.91580  0.19150  0.39720  Biso   1.000  H
  C235     1.0000 0.84340  0.25504  0.39806  Biso   1.000  C
  H134     1.0000 0.90310  0.27040  0.41010  Biso   1.000  H
  C236     1.0000 0.74750  0.27975  0.38772  Biso   1.000  C
  C237     1.0000 0.66290  0.25484  0.36901  Biso   1.000  C
  H135     1.0000 0.59800  0.27020  0.36060  Biso   1.000  H
  C238     1.0000 0.67570  0.20705  0.36289  Biso   1.000  C
  H136     1.0000 0.61770  0.19080  0.35060  Biso   1.000  H
  C239     1.0000 0.73750  0.33077  0.39639  Biso   1.000  C
  C240     1.0000 0.67430  0.36048  0.37347  Biso   1.000  C
  H137     1.0000 0.63400  0.34870  0.35250  Biso   1.000  H
  C241     1.0000 0.67130  0.40803  0.38195  Biso   1.000  C
  H138     1.0000 0.62770  0.42760  0.36640  Biso   1.000  H
  C242     1.0000 0.78720  0.39846  0.43425  Biso   1.000  C
  H139     1.0000 0.82570  0.41110  0.45530  Biso   1.000  H
  C243     1.0000 0.79330  0.35060  0.42784  Biso   1.000  C
  H140     1.0000 0.83480  0.33160  0.44450  Biso   1.000  H
  H141     1.0000 0.87600  0.03940  0.37280  Biso   1.000  H
  N40      1.0000 0.53230  0.76349  0.53229  Biso   1.000  N
  C244     1.0000 0.47540  0.88920  0.55060  Biso   1.000  C
  C245     1.0000 0.47540  0.84050  0.55350  Biso   1.000  C
  H142     1.0000 0.44050  0.82580  0.57440  Biso   1.000  H
  C246     1.0000 0.52780  0.81390  0.52512  Biso   1.000  C
  C247     1.0000 0.58550  0.83600  0.49440  Biso   1.000  C
  H143     1.0000 0.62110  0.81780  0.47560  Biso   1.000  H
  C248     1.0000 0.58920  0.88480  0.49220  Biso   1.000  C
  H144     1.0000 0.51870  0.94310  0.51480  Biso   1.000  H
  Ni9      1.0000 0.21635  0.60993  0.87313  Biso   1.000  Ni
  O89      1.0000 0.61580  0.39448  0.10962  Biso   1.000  O
  O90      1.0000 0.60570  0.45853  0.07205  Biso   1.000  O
  O91      1.0000 0.33071  0.45352  0.96176  Biso   1.000  O
  O92      1.0000 0.32870  0.38455  0.92985  Biso   1.000  O
  O93      1.0000 0.53110  0.25400  0.97151  Biso   1.000  O
  O94      1.0000 0.19224  0.54036  0.87571  Biso   1.000  O
  O95      1.0000 0.19760  0.54344  0.78861  Biso   1.000  O
  O96      1.0000 0.27280  0.60776  0.81575  Biso   1.000  O
  O97      1.0000 0.94690  0.62321  0.64575  Biso   1.000  O
  O98      1.0000 0.04560  0.55696  0.65314  Biso   1.000  O
  O99      1.0000 0.12760  0.76226  0.69945  Biso   1.000  O
  N41      1.0000 0.49620  0.26170  0.00766  Biso   1.000  N
  N42      1.0000 0.23290  0.68303  0.87379  Biso   1.000  N
  N43      1.0000 0.27180  0.92724  0.91146  Biso   1.000  N
  N44      1.0000 0.13610  0.74146  0.73284  Biso   1.000  N
  C249     1.0000 0.58950  0.41542  0.07893  Biso   1.000  C
  C250     1.0000 0.53510  0.38580  0.04530  Biso   1.000  C
  C251     1.0000 0.53860  0.33640  0.04410  Biso   1.000  C
  H145     1.0000 0.57560  0.31950  0.06330  Biso   1.000  H
  C252     1.0000 0.48550  0.31310  0.01330  Biso   1.000  C
  C253     1.0000 0.42620  0.33750  0.98600  Biso   1.000  C
  H146     1.0000 0.38830  0.32150  0.96640  Biso   1.000  H
  C254     1.0000 0.42300  0.38660  0.98790  Biso   1.000  C
  C255     1.0000 0.47320  0.41083  0.01841  Biso   1.000  C
  H147     1.0000 0.46520  0.44330  0.02060  Biso   1.000  H
  C256     1.0000 0.35350  0.41046  0.95766  Biso   1.000  C
  C257     1.0000 0.22120  0.58654  0.78903  Biso   1.000  C
  C258     1.0000 0.18190  0.61496  0.75530  Biso   1.000  C
  C259     1.0000 0.13290  0.59422  0.72300  Biso   1.000  C
  H148     1.0000 0.13240  0.56160  0.72060  Biso   1.000  H
  C260     1.0000 0.08470  0.62196  0.69436  Biso   1.000  C
  C261     1.0000 0.08700  0.67081  0.69792  Biso   1.000  C
  H149     1.0000 0.05490  0.68970  0.67890  Biso   1.000  H
  C262     1.0000 0.13750  0.69106  0.73015  Biso   1.000  C
  C263     1.0000 0.18540  0.66351  0.75884  Biso   1.000  C
  H150     1.0000 0.21940  0.67740  0.78020  Biso   1.000  H
  C264     1.0000 0.02160  0.59898  0.66167  Biso   1.000  C
  C265     1.0000 0.14990  0.70741  0.89040  Biso   1.000  C
  H151     1.0000 0.08420  0.69150  0.89720  Biso   1.000  H
  C266     1.0000 0.15660  0.75504  0.89806  Biso   1.000  C
  H152     1.0000 0.09690  0.77040  0.91010  Biso   1.000  H
  C267     1.0000 0.25250  0.77975  0.88772  Biso   1.000  C
  C268     1.0000 0.33710  0.75484  0.86901  Biso   1.000  C
  H153     1.0000 0.40200  0.77020  0.86060  Biso   1.000  H
  C269     1.0000 0.32430  0.70705  0.86289  Biso   1.000  C
  H154     1.0000 0.38230  0.69080  0.85060  Biso   1.000  H
  C270     1.0000 0.26250  0.83077  0.89639  Biso   1.000  C
  C271     1.0000 0.32570  0.86048  0.87347  Biso   1.000  C
  H155     1.0000 0.36600  0.84870  0.85250  Biso   1.000  H
  C272     1.0000 0.32870  0.90803  0.88195  Biso   1.000  C
  H156     1.0000 0.37230  0.92760  0.86640  Biso   1.000  H
  C273     1.0000 0.21280  0.89846  0.93425  Biso   1.000  C
  H157     1.0000 0.17430  0.91110  0.95530  Biso   1.000  H
  C274     1.0000 0.20670  0.85060  0.92784  Biso   1.000  C
  H158     1.0000 0.16520  0.83160  0.94450  Biso   1.000  H
  H159     1.0000 0.12400  0.53940  0.87280  Biso   1.000  H
  N45      1.0000 0.46770  0.26349  0.03229  Biso   1.000  N
  C275     1.0000 0.52460  0.38920  0.05060  Biso   1.000  C
  C276     1.0000 0.52460  0.34050  0.05350  Biso   1.000  C
  H160     1.0000 0.55950  0.32580  0.07440  Biso   1.000  H
  C277     1.0000 0.47220  0.31390  0.02512  Biso   1.000  C
  C278     1.0000 0.41450  0.33600  0.99440  Biso   1.000  C
  H161     1.0000 0.37890  0.31780  0.97560  Biso   1.000  H
  C279     1.0000 0.41080  0.38480  0.99220  Biso   1.000  C
  H162     1.0000 0.48130  0.44310  0.01480  Biso   1.000  H
  Ni10     1.0000 0.71635  0.10993  0.87313  Biso   1.000  Ni
  O100     1.0000 0.11580  0.89448  0.10962  Biso   1.000  O
  O101     1.0000 0.10570  0.95853  0.07205  Biso   1.000  O
  O102     1.0000 0.83071  0.95352  0.96176  Biso   1.000  O
  O103     1.0000 0.82870  0.88455  0.92985  Biso   1.000  O
  O104     1.0000 0.03110  0.75400  0.97151  Biso   1.000  O
  O105     1.0000 0.69224  0.04036  0.87571  Biso   1.000  O
  O106     1.0000 0.69760  0.04344  0.78861  Biso   1.000  O
  O107     1.0000 0.77280  0.10776  0.81575  Biso   1.000  O
  O108     1.0000 0.44690  0.12321  0.64575  Biso   1.000  O
  O109     1.0000 0.54560  0.05696  0.65314  Biso   1.000  O
  O110     1.0000 0.62760  0.26226  0.69945  Biso   1.000  O
  N46      1.0000 0.99620  0.76170  0.00766  Biso   1.000  N
  N47      1.0000 0.73290  0.18303  0.87379  Biso   1.000  N
  N48      1.0000 0.77180  0.42724  0.91146  Biso   1.000  N
  N49      1.0000 0.63610  0.24146  0.73284  Biso   1.000  N
  C280     1.0000 0.08950  0.91542  0.07893  Biso   1.000  C
  C281     1.0000 0.03510  0.88580  0.04530  Biso   1.000  C
  C282     1.0000 0.03860  0.83640  0.04410  Biso   1.000  C
  H163     1.0000 0.07560  0.81950  0.06330  Biso   1.000  H
  C283     1.0000 0.98550  0.81310  0.01330  Biso   1.000  C
  C284     1.0000 0.92620  0.83750  0.98600  Biso   1.000  C
  H164     1.0000 0.88830  0.82150  0.96640  Biso   1.000  H
  C285     1.0000 0.92300  0.88660  0.98790  Biso   1.000  C
  C286     1.0000 0.97320  0.91083  0.01841  Biso   1.000  C
  H165     1.0000 0.96520  0.94330  0.02060  Biso   1.000  H
  C287     1.0000 0.85350  0.91046  0.95766  Biso   1.000  C
  C288     1.0000 0.72120  0.08654  0.78903  Biso   1.000  C
  C289     1.0000 0.68190  0.11496  0.75530  Biso   1.000  C
  C290     1.0000 0.63290  0.09422  0.72300  Biso   1.000  C
  H166     1.0000 0.63240  0.06160  0.72060  Biso   1.000  H
  C291     1.0000 0.58470  0.12196  0.69436  Biso   1.000  C
  C292     1.0000 0.58700  0.17081  0.69792  Biso   1.000  C
  H167     1.0000 0.55490  0.18970  0.67890  Biso   1.000  H
  C293     1.0000 0.63750  0.19106  0.73015  Biso   1.000  C
  C294     1.0000 0.68540  0.16351  0.75884  Biso   1.000  C
  H168     1.0000 0.71940  0.17740  0.78020  Biso   1.000  H
  C295     1.0000 0.52160  0.09898  0.66167  Biso   1.000  C
  C296     1.0000 0.64990  0.20741  0.89040  Biso   1.000  C
  H169     1.0000 0.58420  0.19150  0.89720  Biso   1.000  H
  C297     1.0000 0.65660  0.25504  0.89806  Biso   1.000  C
  H170     1.0000 0.59690  0.27040  0.91010  Biso   1.000  H
  C298     1.0000 0.75250  0.27975  0.88772  Biso   1.000  C
  C299     1.0000 0.83710  0.25484  0.86901  Biso   1.000  C
  H171     1.0000 0.90200  0.27020  0.86060  Biso   1.000  H
  C300     1.0000 0.82430  0.20705  0.86289  Biso   1.000  C
  H172     1.0000 0.88230  0.19080  0.85060  Biso   1.000  H
  C301     1.0000 0.76250  0.33077  0.89639  Biso   1.000  C
  C302     1.0000 0.82570  0.36048  0.87347  Biso   1.000  C
  H173     1.0000 0.86600  0.34870  0.85250  Biso   1.000  H
  C303     1.0000 0.82870  0.40803  0.88195  Biso   1.000  C
  H174     1.0000 0.87230  0.42760  0.86640  Biso   1.000  H
  C304     1.0000 0.71280  0.39846  0.93425  Biso   1.000  C
  H175     1.0000 0.67430  0.41110  0.95530  Biso   1.000  H
  C305     1.0000 0.70670  0.35060  0.92784  Biso   1.000  C
  H176     1.0000 0.66520  0.33160  0.94450  Biso   1.000  H
  H177     1.0000 0.62400  0.03940  0.87280  Biso   1.000  H
  N50      1.0000 0.96770  0.76349  0.03229  Biso   1.000  N
  C306     1.0000 0.02460  0.88920  0.05060  Biso   1.000  C
  C307     1.0000 0.02460  0.84050  0.05350  Biso   1.000  C
  H178     1.0000 0.05950  0.82580  0.07440  Biso   1.000  H
  C308     1.0000 0.97220  0.81390  0.02512  Biso   1.000  C
  C309     1.0000 0.91450  0.83600  0.99440  Biso   1.000  C
  H179     1.0000 0.87890  0.81780  0.97560  Biso   1.000  H
  C310     1.0000 0.91080  0.88480  0.99220  Biso   1.000  C
  H180     1.0000 0.98130  0.94310  0.01480  Biso   1.000  H
  Ni11     1.0000 0.28365  0.39007  0.87313  Biso   1.000  Ni
  O111     1.0000 0.88420  0.60552  0.10962  Biso   1.000  O
  O112     1.0000 0.89430  0.54147  0.07205  Biso   1.000  O
  O113     1.0000 0.16929  0.54648  0.96176  Biso   1.000  O
  O114     1.0000 0.17130  0.61545  0.92985  Biso   1.000  O
  O115     1.0000 0.96890  0.74600  0.97151  Biso   1.000  O
  O116     1.0000 0.30776  0.45964  0.87571  Biso   1.000  O
  O117     1.0000 0.30240  0.45656  0.78861  Biso   1.000  O
  O118     1.0000 0.22720  0.39224  0.81575  Biso   1.000  O
  O119     1.0000 0.55310  0.37679  0.64575  Biso   1.000  O
  O120     1.0000 0.45440  0.44304  0.65314  Biso   1.000  O
  O121     1.0000 0.37240  0.23774  0.69945  Biso   1.000  O
  N51      1.0000 0.00380  0.73830  0.00766  Biso   1.000  N
  N52      1.0000 0.26710  0.31697  0.87379  Biso   1.000  N
  N53      1.0000 0.22820  0.07276  0.91146  Biso   1.000  N
  N54      1.0000 0.36390  0.25854  0.73284  Biso   1.000  N
  C311     1.0000 0.91050  0.58458  0.07893  Biso   1.000  C
  C312     1.0000 0.96490  0.61420  0.04530  Biso   1.000  C
  C313     1.0000 0.96140  0.66360  0.04410  Biso   1.000  C
  H181     1.0000 0.92440  0.68050  0.06330  Biso   1.000  H
  C314     1.0000 0.01450  0.68690  0.01330  Biso   1.000  C
  C315     1.0000 0.07380  0.66250  0.98600  Biso   1.000  C
  H182     1.0000 0.11170  0.67850  0.96640  Biso   1.000  H
  C316     1.0000 0.07700  0.61340  0.98790  Biso   1.000  C
  C317     1.0000 0.02680  0.58917  0.01841  Biso   1.000  C
  H183     1.0000 0.03480  0.55670  0.02060  Biso   1.000  H
  C318     1.0000 0.14650  0.58954  0.95766  Biso   1.000  C
  C319     1.0000 0.27880  0.41346  0.78903  Biso   1.000  C
  C320     1.0000 0.31810  0.38504  0.75530  Biso   1.000  C
  C321     1.0000 0.36710  0.40578  0.72300  Biso   1.000  C
  H184     1.0000 0.36760  0.43840  0.72060  Biso   1.000  H
  C322     1.0000 0.41530  0.37804  0.69436  Biso   1.000  C
  C323     1.0000 0.41300  0.32919  0.69792  Biso   1.000  C
  H185     1.0000 0.44510  0.31030  0.67890  Biso   1.000  H
  C324     1.0000 0.36250  0.30894  0.73015  Biso   1.000  C
  C325     1.0000 0.31460  0.33649  0.75884  Biso   1.000  C
  H186     1.0000 0.28060  0.32260  0.78020  Biso   1.000  H
  C326     1.0000 0.47840  0.40102  0.66167  Biso   1.000  C
  C327     1.0000 0.35010  0.29259  0.89040  Biso   1.000  C
  H187     1.0000 0.41580  0.30850  0.89720  Biso   1.000  H
  C328     1.0000 0.34340  0.24496  0.89806  Biso   1.000  C
  H188     1.0000 0.40310  0.22960  0.91010  Biso   1.000  H
  C329     1.0000 0.24750  0.22025  0.88772  Biso   1.000  C
  C330     1.0000 0.16290  0.24516  0.86901  Biso   1.000  C
  H189     1.0000 0.09800  0.22980  0.86060  Biso   1.000  H
  C331     1.0000 0.17570  0.29295  0.86289  Biso   1.000  C
  H190     1.0000 0.11770  0.30920  0.85060  Biso   1.000  H
  C332     1.0000 0.23750  0.16923  0.89639  Biso   1.000  C
  C333     1.0000 0.17430  0.13952  0.87347  Biso   1.000  C
  H191     1.0000 0.13400  0.15130  0.85250  Biso   1.000  H
  C334     1.0000 0.17130  0.09197  0.88195  Biso   1.000  C
  H192     1.0000 0.12770  0.07240  0.86640  Biso   1.000  H
  C335     1.0000 0.28720  0.10154  0.93425  Biso   1.000  C
  H193     1.0000 0.32570  0.08890  0.95530  Biso   1.000  H
  C336     1.0000 0.29330  0.14940  0.92784  Biso   1.000  C
  H194     1.0000 0.33480  0.16840  0.94450  Biso   1.000  H
  H195     1.0000 0.37600  0.46060  0.87280  Biso   1.000  H
  N55      1.0000 0.03230  0.73651  0.03229  Biso   1.000  N
  C337     1.0000 0.97540  0.61080  0.05060  Biso   1.000  C
  C338     1.0000 0.97540  0.65950  0.05350  Biso   1.000  C
  H196     1.0000 0.94050  0.67420  0.07440  Biso   1.000  H
  C339     1.0000 0.02780  0.68610  0.02512  Biso   1.000  C
  C340     1.0000 0.08550  0.66400  0.99440  Biso   1.000  C
  H197     1.0000 0.12110  0.68220  0.97560  Biso   1.000  H
  C341     1.0000 0.08920  0.61520  0.99220  Biso   1.000  C
  H198     1.0000 0.01870  0.55690  0.01480  Biso   1.000  H
  Ni12     1.0000 0.78365  0.89007  0.87313  Biso   1.000  Ni
  O122     1.0000 0.38420  0.10552  0.10962  Biso   1.000  O
  O123     1.0000 0.39430  0.04147  0.07205  Biso   1.000  O
  O124     1.0000 0.66929  0.04648  0.96176  Biso   1.000  O
  O125     1.0000 0.67130  0.11545  0.92985  Biso   1.000  O
  O126     1.0000 0.46890  0.24600  0.97151  Biso   1.000  O
  O127     1.0000 0.80776  0.95964  0.87571  Biso   1.000  O
  O128     1.0000 0.80240  0.95656  0.78861  Biso   1.000  O
  O129     1.0000 0.72720  0.89224  0.81575  Biso   1.000  O
  O130     1.0000 0.05310  0.87679  0.64575  Biso   1.000  O
  O131     1.0000 0.95440  0.94304  0.65314  Biso   1.000  O
  O132     1.0000 0.87240  0.73774  0.69945  Biso   1.000  O
  N56      1.0000 0.50380  0.23830  0.00766  Biso   1.000  N
  N57      1.0000 0.76710  0.81697  0.87379  Biso   1.000  N
  N58      1.0000 0.72820  0.57276  0.91146  Biso   1.000  N
  N59      1.0000 0.86390  0.75854  0.73284  Biso   1.000  N
  C342     1.0000 0.41050  0.08458  0.07893  Biso   1.000  C
  C343     1.0000 0.46490  0.11420  0.04530  Biso   1.000  C
  C344     1.0000 0.46140  0.16360  0.04410  Biso   1.000  C
  H199     1.0000 0.42440  0.18050  0.06330  Biso   1.000  H
  C345     1.0000 0.51450  0.18690  0.01330  Biso   1.000  C
  C346     1.0000 0.57380  0.16250  0.98600  Biso   1.000  C
  H200     1.0000 0.61170  0.17850  0.96640  Biso   1.000  H
  C347     1.0000 0.57700  0.11340  0.98790  Biso   1.000  C
  C348     1.0000 0.52680  0.08917  0.01841  Biso   1.000  C
  H201     1.0000 0.53480  0.05670  0.02060  Biso   1.000  H
  C349     1.0000 0.64650  0.08954  0.95766  Biso   1.000  C
  C350     1.0000 0.77880  0.91346  0.78903  Biso   1.000  C
  C351     1.0000 0.81810  0.88504  0.75530  Biso   1.000  C
  C352     1.0000 0.86710  0.90578  0.72300  Biso   1.000  C
  H202     1.0000 0.86760  0.93840  0.72060  Biso   1.000  H
  C353     1.0000 0.91530  0.87804  0.69436  Biso   1.000  C
  C354     1.0000 0.91300  0.82919  0.69792  Biso   1.000  C
  H203     1.0000 0.94510  0.81030  0.67890  Biso   1.000  H
  C355     1.0000 0.86250  0.80894  0.73015  Biso   1.000  C
  C356     1.0000 0.81460  0.83649  0.75884  Biso   1.000  C
  H204     1.0000 0.78060  0.82260  0.78020  Biso   1.000  H
  C357     1.0000 0.97840  0.90102  0.66167  Biso   1.000  C
  C358     1.0000 0.85010  0.79259  0.89040  Biso   1.000  C
  H205     1.0000 0.91580  0.80850  0.89720  Biso   1.000  H
  C359     1.0000 0.84340  0.74496  0.89806  Biso   1.000  C
  H206     1.0000 0.90310  0.72960  0.91010  Biso   1.000  H
  C360     1.0000 0.74750  0.72025  0.88772  Biso   1.000  C
  C361     1.0000 0.66290  0.74516  0.86901  Biso   1.000  C
  H207     1.0000 0.59800  0.72980  0.86060  Biso   1.000  H
  C362     1.0000 0.67570  0.79295  0.86289  Biso   1.000  C
  H208     1.0000 0.61770  0.80920  0.85060  Biso   1.000  H
  C363     1.0000 0.73750  0.66923  0.89639  Biso   1.000  C
  C364     1.0000 0.67430  0.63952  0.87347  Biso   1.000  C
  H209     1.0000 0.63400  0.65130  0.85250  Biso   1.000  H
  C365     1.0000 0.67130  0.59197  0.88195  Biso   1.000  C
  H210     1.0000 0.62770  0.57240  0.86640  Biso   1.000  H
  C366     1.0000 0.78720  0.60154  0.93425  Biso   1.000  C
  H211     1.0000 0.82570  0.58890  0.95530  Biso   1.000  H
  C367     1.0000 0.79330  0.64940  0.92784  Biso   1.000  C
  H212     1.0000 0.83480  0.66840  0.94450  Biso   1.000  H
  H213     1.0000 0.87600  0.96060  0.87280  Biso   1.000  H
  N60      1.0000 0.53230  0.23651  0.03229  Biso   1.000  N
  C368     1.0000 0.47540  0.11080  0.05060  Biso   1.000  C
  C369     1.0000 0.47540  0.15950  0.05350  Biso   1.000  C
  H214     1.0000 0.44050  0.17420  0.07440  Biso   1.000  H
  C370     1.0000 0.52780  0.18610  0.02512  Biso   1.000  C
  C371     1.0000 0.58550  0.16400  0.99440  Biso   1.000  C
  H215     1.0000 0.62110  0.18220  0.97560  Biso   1.000  H
  C372     1.0000 0.58920  0.11520  0.99220  Biso   1.000  C
  H216     1.0000 0.51870  0.05690  0.01480  Biso   1.000  H
  Ni13     1.0000 0.78365  0.60993  0.62687  Biso   1.000  Ni
  O133     1.0000 0.38420  0.39448  0.39038  Biso   1.000  O
  O134     1.0000 0.39430  0.45853  0.42795  Biso   1.000  O
  O135     1.0000 0.66929  0.45352  0.53824  Biso   1.000  O
  O136     1.0000 0.67130  0.38455  0.57015  Biso   1.000  O
  O137     1.0000 0.46890  0.25400  0.52849  Biso   1.000  O
  O138     1.0000 0.80776  0.54036  0.62429  Biso   1.000  O
  O139     1.0000 0.80240  0.54344  0.71139  Biso   1.000  O
  O140     1.0000 0.72720  0.60776  0.68425  Biso   1.000  O
  O141     1.0000 0.05310  0.62321  0.85425  Biso   1.000  O
  O142     1.0000 0.95440  0.55696  0.84686  Biso   1.000  O
  O143     1.0000 0.87240  0.76226  0.80055  Biso   1.000  O
  N61      1.0000 0.50380  0.26170  0.49234  Biso   1.000  N
  N62      1.0000 0.76710  0.68303  0.62621  Biso   1.000  N
  N63      1.0000 0.72820  0.92724  0.58854  Biso   1.000  N
  N64      1.0000 0.86390  0.74146  0.76716  Biso   1.000  N
  C373     1.0000 0.41050  0.41542  0.42107  Biso   1.000  C
  C374     1.0000 0.46490  0.38580  0.45470  Biso   1.000  C
  C375     1.0000 0.46140  0.33640  0.45590  Biso   1.000  C
  H217     1.0000 0.42440  0.31950  0.43670  Biso   1.000  H
  C376     1.0000 0.51450  0.31310  0.48670  Biso   1.000  C
  C377     1.0000 0.57380  0.33750  0.51400  Biso   1.000  C
  H218     1.0000 0.61170  0.32150  0.53360  Biso   1.000  H
  C378     1.0000 0.57700  0.38660  0.51210  Biso   1.000  C
  C379     1.0000 0.52680  0.41083  0.48159  Biso   1.000  C
  H219     1.0000 0.53480  0.44330  0.47940  Biso   1.000  H
  C380     1.0000 0.64650  0.41046  0.54234  Biso   1.000  C
  C381     1.0000 0.77880  0.58654  0.71097  Biso   1.000  C
  C382     1.0000 0.81810  0.61496  0.74470  Biso   1.000  C
  C383     1.0000 0.86710  0.59422  0.77700  Biso   1.000  C
  H220     1.0000 0.86760  0.56160  0.77940  Biso   1.000  H
  C384     1.0000 0.91530  0.62196  0.80564  Biso   1.000  C
  C385     1.0000 0.91300  0.67081  0.80208  Biso   1.000  C
  H221     1.0000 0.94510  0.68970  0.82110  Biso   1.000  H
  C386     1.0000 0.86250  0.69106  0.76985  Biso   1.000  C
  C387     1.0000 0.81460  0.66351  0.74116  Biso   1.000  C
  H222     1.0000 0.78060  0.67740  0.71980  Biso   1.000  H
  C388     1.0000 0.97840  0.59898  0.83833  Biso   1.000  C
  C389     1.0000 0.85010  0.70741  0.60960  Biso   1.000  C
  H223     1.0000 0.91580  0.69150  0.60280  Biso   1.000  H
  C390     1.0000 0.84340  0.75504  0.60194  Biso   1.000  C
  H224     1.0000 0.90310  0.77040  0.58990  Biso   1.000  H
  C391     1.0000 0.74750  0.77975  0.61228  Biso   1.000  C
  C392     1.0000 0.66290  0.75484  0.63099  Biso   1.000  C
  H225     1.0000 0.59800  0.77020  0.63940  Biso   1.000  H
  C393     1.0000 0.67570  0.70705  0.63711  Biso   1.000  C
  H226     1.0000 0.61770  0.69080  0.64940  Biso   1.000  H
  C394     1.0000 0.73750  0.83077  0.60361  Biso   1.000  C
  C395     1.0000 0.67430  0.86048  0.62653  Biso   1.000  C
  H227     1.0000 0.63400  0.84870  0.64750  Biso   1.000  H
  C396     1.0000 0.67130  0.90803  0.61805  Biso   1.000  C
  H228     1.0000 0.62770  0.92760  0.63360  Biso   1.000  H
  C397     1.0000 0.78720  0.89846  0.56575  Biso   1.000  C
  H229     1.0000 0.82570  0.91110  0.54470  Biso   1.000  H
  C398     1.0000 0.79330  0.85060  0.57216  Biso   1.000  C
  H230     1.0000 0.83480  0.83160  0.55550  Biso   1.000  H
  H231     1.0000 0.87600  0.53940  0.62720  Biso   1.000  H
  N65      1.0000 0.53230  0.26349  0.46771  Biso   1.000  N
  C399     1.0000 0.47540  0.38920  0.44940  Biso   1.000  C
  C400     1.0000 0.47540  0.34050  0.44650  Biso   1.000  C
  H232     1.0000 0.44050  0.32580  0.42560  Biso   1.000  H
  C401     1.0000 0.52780  0.31390  0.47488  Biso   1.000  C
  C402     1.0000 0.58550  0.33600  0.50560  Biso   1.000  C
  H233     1.0000 0.62110  0.31780  0.52440  Biso   1.000  H
  C403     1.0000 0.58920  0.38480  0.50780  Biso   1.000  C
  H234     1.0000 0.51870  0.44310  0.48520  Biso   1.000  H
  Ni14     1.0000 0.28365  0.10993  0.62687  Biso   1.000  Ni
  O144     1.0000 0.88420  0.89448  0.39038  Biso   1.000  O
  O145     1.0000 0.89430  0.95853  0.42795  Biso   1.000  O
  O146     1.0000 0.16929  0.95352  0.53824  Biso   1.000  O
  O147     1.0000 0.17130  0.88455  0.57015  Biso   1.000  O
  O148     1.0000 0.96890  0.75400  0.52849  Biso   1.000  O
  O149     1.0000 0.30776  0.04036  0.62429  Biso   1.000  O
  O150     1.0000 0.30240  0.04344  0.71139  Biso   1.000  O
  O151     1.0000 0.22720  0.10776  0.68425  Biso   1.000  O
  O152     1.0000 0.55310  0.12321  0.85425  Biso   1.000  O
  O153     1.0000 0.45440  0.05696  0.84686  Biso   1.000  O
  O154     1.0000 0.37240  0.26226  0.80055  Biso   1.000  O
  N66      1.0000 0.00380  0.76170  0.49234  Biso   1.000  N
  N67      1.0000 0.26710  0.18303  0.62621  Biso   1.000  N
  N68      1.0000 0.22820  0.42724  0.58854  Biso   1.000  N
  N69      1.0000 0.36390  0.24146  0.76716  Biso   1.000  N
  C404     1.0000 0.91050  0.91542  0.42107  Biso   1.000  C
  C405     1.0000 0.96490  0.88580  0.45470  Biso   1.000  C
  C406     1.0000 0.96140  0.83640  0.45590  Biso   1.000  C
  H235     1.0000 0.92440  0.81950  0.43670  Biso   1.000  H
  C407     1.0000 0.01450  0.81310  0.48670  Biso   1.000  C
  C408     1.0000 0.07380  0.83750  0.51400  Biso   1.000  C
  H236     1.0000 0.11170  0.82150  0.53360  Biso   1.000  H
  C409     1.0000 0.07700  0.88660  0.51210  Biso   1.000  C
  C410     1.0000 0.02680  0.91083  0.48159  Biso   1.000  C
  H237     1.0000 0.03480  0.94330  0.47940  Biso   1.000  H
  C411     1.0000 0.14650  0.91046  0.54234  Biso   1.000  C
  C412     1.0000 0.27880  0.08654  0.71097  Biso   1.000  C
  C413     1.0000 0.31810  0.11496  0.74470  Biso   1.000  C
  C414     1.0000 0.36710  0.09422  0.77700  Biso   1.000  C
  H238     1.0000 0.36760  0.06160  0.77940  Biso   1.000  H
  C415     1.0000 0.41530  0.12196  0.80564  Biso   1.000  C
  C416     1.0000 0.41300  0.17081  0.80208  Biso   1.000  C
  H239     1.0000 0.44510  0.18970  0.82110  Biso   1.000  H
  C417     1.0000 0.36250  0.19106  0.76985  Biso   1.000  C
  C418     1.0000 0.31460  0.16351  0.74116  Biso   1.000  C
  H240     1.0000 0.28060  0.17740  0.71980  Biso   1.000  H
  C419     1.0000 0.47840  0.09898  0.83833  Biso   1.000  C
  C420     1.0000 0.35010  0.20741  0.60960  Biso   1.000  C
  H241     1.0000 0.41580  0.19150  0.60280  Biso   1.000  H
  C421     1.0000 0.34340  0.25504  0.60194  Biso   1.000  C
  H242     1.0000 0.40310  0.27040  0.58990  Biso   1.000  H
  C422     1.0000 0.24750  0.27975  0.61228  Biso   1.000  C
  C423     1.0000 0.16290  0.25484  0.63099  Biso   1.000  C
  H243     1.0000 0.09800  0.27020  0.63940  Biso   1.000  H
  C424     1.0000 0.17570  0.20705  0.63711  Biso   1.000  C
  H244     1.0000 0.11770  0.19080  0.64940  Biso   1.000  H
  C425     1.0000 0.23750  0.33077  0.60361  Biso   1.000  C
  C426     1.0000 0.17430  0.36048  0.62653  Biso   1.000  C
  H245     1.0000 0.13400  0.34870  0.64750  Biso   1.000  H
  C427     1.0000 0.17130  0.40803  0.61805  Biso   1.000  C
  H246     1.0000 0.12770  0.42760  0.63360  Biso   1.000  H
  C428     1.0000 0.28720  0.39846  0.56575  Biso   1.000  C
  H247     1.0000 0.32570  0.41110  0.54470  Biso   1.000  H
  C429     1.0000 0.29330  0.35060  0.57216  Biso   1.000  C
  H248     1.0000 0.33480  0.33160  0.55550  Biso   1.000  H
  H249     1.0000 0.37600  0.03940  0.62720  Biso   1.000  H
  N70      1.0000 0.03230  0.76349  0.46771  Biso   1.000  N
  C430     1.0000 0.97540  0.88920  0.44940  Biso   1.000  C
  C431     1.0000 0.97540  0.84050  0.44650  Biso   1.000  C
  H250     1.0000 0.94050  0.82580  0.42560  Biso   1.000  H
  C432     1.0000 0.02780  0.81390  0.47488  Biso   1.000  C
  C433     1.0000 0.08550  0.83600  0.50560  Biso   1.000  C
  H251     1.0000 0.12110  0.81780  0.52440  Biso   1.000  H
  C434     1.0000 0.08920  0.88480  0.50780  Biso   1.000  C
  H252     1.0000 0.01870  0.94310  0.48520  Biso   1.000  H
  Ni15     1.0000 0.71635  0.39007  0.62687  Biso   1.000  Ni
  O155     1.0000 0.11580  0.60552  0.39038  Biso   1.000  O
  O156     1.0000 0.10570  0.54147  0.42795  Biso   1.000  O
  O157     1.0000 0.83071  0.54648  0.53824  Biso   1.000  O
  O158     1.0000 0.82870  0.61545  0.57015  Biso   1.000  O
  O159     1.0000 0.03110  0.74600  0.52849  Biso   1.000  O
  O160     1.0000 0.69224  0.45964  0.62429  Biso   1.000  O
  O161     1.0000 0.69760  0.45656  0.71139  Biso   1.000  O
  O162     1.0000 0.77280  0.39224  0.68425  Biso   1.000  O
  O163     1.0000 0.44690  0.37679  0.85425  Biso   1.000  O
  O164     1.0000 0.54560  0.44304  0.84686  Biso   1.000  O
  O165     1.0000 0.62760  0.23774  0.80055  Biso   1.000  O
  N71      1.0000 0.99620  0.73830  0.49234  Biso   1.000  N
  N72      1.0000 0.73290  0.31697  0.62621  Biso   1.000  N
  N73      1.0000 0.77180  0.07276  0.58854  Biso   1.000  N
  N74      1.0000 0.63610  0.25854  0.76716  Biso   1.000  N
  C435     1.0000 0.08950  0.58458  0.42107  Biso   1.000  C
  C436     1.0000 0.03510  0.61420  0.45470  Biso   1.000  C
  C437     1.0000 0.03860  0.66360  0.45590  Biso   1.000  C
  H253     1.0000 0.07560  0.68050  0.43670  Biso   1.000  H
  C438     1.0000 0.98550  0.68690  0.48670  Biso   1.000  C
  C439     1.0000 0.92620  0.66250  0.51400  Biso   1.000  C
  H254     1.0000 0.88830  0.67850  0.53360  Biso   1.000  H
  C440     1.0000 0.92300  0.61340  0.51210  Biso   1.000  C
  C441     1.0000 0.97320  0.58917  0.48159  Biso   1.000  C
  H255     1.0000 0.96520  0.55670  0.47940  Biso   1.000  H
  C442     1.0000 0.85350  0.58954  0.54234  Biso   1.000  C
  C443     1.0000 0.72120  0.41346  0.71097  Biso   1.000  C
  C444     1.0000 0.68190  0.38504  0.74470  Biso   1.000  C
  C445     1.0000 0.63290  0.40578  0.77700  Biso   1.000  C
  H256     1.0000 0.63240  0.43840  0.77940  Biso   1.000  H
  C446     1.0000 0.58470  0.37804  0.80564  Biso   1.000  C
  C447     1.0000 0.58700  0.32919  0.80208  Biso   1.000  C
  H257     1.0000 0.55490  0.31030  0.82110  Biso   1.000  H
  C448     1.0000 0.63750  0.30894  0.76985  Biso   1.000  C
  C449     1.0000 0.68540  0.33649  0.74116  Biso   1.000  C
  H258     1.0000 0.71940  0.32260  0.71980  Biso   1.000  H
  C450     1.0000 0.52160  0.40102  0.83833  Biso   1.000  C
  C451     1.0000 0.64990  0.29259  0.60960  Biso   1.000  C
  H259     1.0000 0.58420  0.30850  0.60280  Biso   1.000  H
  C452     1.0000 0.65660  0.24496  0.60194  Biso   1.000  C
  H260     1.0000 0.59690  0.22960  0.58990  Biso   1.000  H
  C453     1.0000 0.75250  0.22025  0.61228  Biso   1.000  C
  C454     1.0000 0.83710  0.24516  0.63099  Biso   1.000  C
  H261     1.0000 0.90200  0.22980  0.63940  Biso   1.000  H
  C455     1.0000 0.82430  0.29295  0.63711  Biso   1.000  C
  H262     1.0000 0.88230  0.30920  0.64940  Biso   1.000  H
  C456     1.0000 0.76250  0.16923  0.60361  Biso   1.000  C
  C457     1.0000 0.82570  0.13952  0.62653  Biso   1.000  C
  H263     1.0000 0.86600  0.15130  0.64750  Biso   1.000  H
  C458     1.0000 0.82870  0.09197  0.61805  Biso   1.000  C
  H264     1.0000 0.87230  0.07240  0.63360  Biso   1.000  H
  C459     1.0000 0.71280  0.10154  0.56575  Biso   1.000  C
  H265     1.0000 0.67430  0.08890  0.54470  Biso   1.000  H
  C460     1.0000 0.70670  0.14940  0.57216  Biso   1.000  C
  H266     1.0000 0.66520  0.16840  0.55550  Biso   1.000  H
  H267     1.0000 0.62400  0.46060  0.62720  Biso   1.000  H
  N75      1.0000 0.96770  0.73651  0.46771  Biso   1.000  N
  C461     1.0000 0.02460  0.61080  0.44940  Biso   1.000  C
  C462     1.0000 0.02460  0.65950  0.44650  Biso   1.000  C
  H268     1.0000 0.05950  0.67420  0.42560  Biso   1.000  H
  C463     1.0000 0.97220  0.68610  0.47488  Biso   1.000  C
  C464     1.0000 0.91450  0.66400  0.50560  Biso   1.000  C
  H269     1.0000 0.87890  0.68220  0.52440  Biso   1.000  H
  C465     1.0000 0.91080  0.61520  0.50780  Biso   1.000  C
  H270     1.0000 0.98130  0.55690  0.48520  Biso   1.000  H
  Ni16     1.0000 0.21635  0.89007  0.62687  Biso   1.000  Ni
  O166     1.0000 0.61580  0.10552  0.39038  Biso   1.000  O
  O167     1.0000 0.60570  0.04147  0.42795  Biso   1.000  O
  O168     1.0000 0.33071  0.04648  0.53824  Biso   1.000  O
  O169     1.0000 0.32870  0.11545  0.57015  Biso   1.000  O
  O170     1.0000 0.53110  0.24600  0.52849  Biso   1.000  O
  O171     1.0000 0.19224  0.95964  0.62429  Biso   1.000  O
  O172     1.0000 0.19760  0.95656  0.71139  Biso   1.000  O
  O173     1.0000 0.27280  0.89224  0.68425  Biso   1.000  O
  O174     1.0000 0.94690  0.87679  0.85425  Biso   1.000  O
  O175     1.0000 0.04560  0.94304  0.84686  Biso   1.000  O
  O176     1.0000 0.12760  0.73774  0.80055  Biso   1.000  O
  N76      1.0000 0.49620  0.23830  0.49234  Biso   1.000  N
  N77      1.0000 0.23290  0.81697  0.62621  Biso   1.000  N
  N78      1.0000 0.27180  0.57276  0.58854  Biso   1.000  N
  N79      1.0000 0.13610  0.75854  0.76716  Biso   1.000  N
  C466     1.0000 0.58950  0.08458  0.42107  Biso   1.000  C
  C467     1.0000 0.53510  0.11420  0.45470  Biso   1.000  C
  C468     1.0000 0.53860  0.16360  0.45590  Biso   1.000  C
  H271     1.0000 0.57560  0.18050  0.43670  Biso   1.000  H
  C469     1.0000 0.48550  0.18690  0.48670  Biso   1.000  C
  C470     1.0000 0.42620  0.16250  0.51400  Biso   1.000  C
  H272     1.0000 0.38830  0.17850  0.53360  Biso   1.000  H
  C471     1.0000 0.42300  0.11340  0.51210  Biso   1.000  C
  C472     1.0000 0.47320  0.08917  0.48159  Biso   1.000  C
  H273     1.0000 0.46520  0.05670  0.47940  Biso   1.000  H
  C473     1.0000 0.35350  0.08954  0.54234  Biso   1.000  C
  C474     1.0000 0.22120  0.91346  0.71097  Biso   1.000  C
  C475     1.0000 0.18190  0.88504  0.74470  Biso   1.000  C
  C476     1.0000 0.13290  0.90578  0.77700  Biso   1.000  C
  H274     1.0000 0.13240  0.93840  0.77940  Biso   1.000  H
  C477     1.0000 0.08470  0.87804  0.80564  Biso   1.000  C
  C478     1.0000 0.08700  0.82919  0.80208  Biso   1.000  C
  H275     1.0000 0.05490  0.81030  0.82110  Biso   1.000  H
  C479     1.0000 0.13750  0.80894  0.76985  Biso   1.000  C
  C480     1.0000 0.18540  0.83649  0.74116  Biso   1.000  C
  H276     1.0000 0.21940  0.82260  0.71980  Biso   1.000  H
  C481     1.0000 0.02160  0.90102  0.83833  Biso   1.000  C
  C482     1.0000 0.14990  0.79259  0.60960  Biso   1.000  C
  H277     1.0000 0.08420  0.80850  0.60280  Biso   1.000  H
  C483     1.0000 0.15660  0.74496  0.60194  Biso   1.000  C
  H278     1.0000 0.09690  0.72960  0.58990  Biso   1.000  H
  C484     1.0000 0.25250  0.72025  0.61228  Biso   1.000  C
  C485     1.0000 0.33710  0.74516  0.63099  Biso   1.000  C
  H279     1.0000 0.40200  0.72980  0.63940  Biso   1.000  H
  C486     1.0000 0.32430  0.79295  0.63711  Biso   1.000  C
  H280     1.0000 0.38230  0.80920  0.64940  Biso   1.000  H
  C487     1.0000 0.26250  0.66923  0.60361  Biso   1.000  C
  C488     1.0000 0.32570  0.63952  0.62653  Biso   1.000  C
  H281     1.0000 0.36600  0.65130  0.64750  Biso   1.000  H
  C489     1.0000 0.32870  0.59197  0.61805  Biso   1.000  C
  H282     1.0000 0.37230  0.57240  0.63360  Biso   1.000  H
  C490     1.0000 0.21280  0.60154  0.56575  Biso   1.000  C
  H283     1.0000 0.17430  0.58890  0.54470  Biso   1.000  H
  C491     1.0000 0.20670  0.64940  0.57216  Biso   1.000  C
  H284     1.0000 0.16520  0.66840  0.55550  Biso   1.000  H
  H285     1.0000 0.12400  0.96060  0.62720  Biso   1.000  H
  N80      1.0000 0.46770  0.23651  0.46771  Biso   1.000  N
  C492     1.0000 0.52460  0.11080  0.44940  Biso   1.000  C
  C493     1.0000 0.52460  0.15950  0.44650  Biso   1.000  C
  H286     1.0000 0.55950  0.17420  0.42560  Biso   1.000  H
  C494     1.0000 0.47220  0.18610  0.47488  Biso   1.000  C
  C495     1.0000 0.41450  0.16400  0.50560  Biso   1.000  C
  H287     1.0000 0.37890  0.18220  0.52440  Biso   1.000  H
  C496     1.0000 0.41080  0.11520  0.50780  Biso   1.000  C
  H288     1.0000 0.48130  0.05690  0.48520  Biso   1.000  H
  Ni17     1.0000 0.75000  0.50000  0.07962  Biso   1.000  Ni
  Ni18     1.0000 0.75000  0.50000  0.16855  Biso   1.000  Ni
  Ni19     1.0000 0.25000  0.00000  0.07962  Biso   1.000  Ni
  Ni20     1.0000 0.25000  0.00000  0.16855  Biso   1.000  Ni
  Ni21     1.0000 0.25000  0.50000  0.42038  Biso   1.000  Ni
  Ni22     1.0000 0.25000  0.50000  0.33145  Biso   1.000  Ni
  Ni23     1.0000 0.75000  0.00000  0.42038  Biso   1.000  Ni
  Ni24     1.0000 0.75000  0.00000  0.33145  Biso   1.000  Ni
  Ni25     1.0000 0.25000  0.50000  0.92038  Biso   1.000  Ni
  Ni26     1.0000 0.25000  0.50000  0.83145  Biso   1.000  Ni
  Ni27     1.0000 0.75000  0.00000  0.92038  Biso   1.000  Ni
  Ni28     1.0000 0.75000  0.00000  0.83145  Biso   1.000  Ni
  Ni29     1.0000 0.75000  0.50000  0.57962  Biso   1.000  Ni
  Ni30     1.0000 0.75000  0.50000  0.66855  Biso   1.000  Ni
  Ni31     1.0000 0.25000  0.00000  0.57962  Biso   1.000  Ni
  Ni32     1.0000 0.25000  0.00000  0.66855  Biso   1.000  Ni
  Ni33     1.0000 0.75000  0.00000  0.08514  Biso   1.000  Ni
  Ni34     1.0000 0.25000  0.50000  0.08514  Biso   1.000  Ni
  Ni35     1.0000 0.25000  0.00000  0.41486  Biso   1.000  Ni
  Ni36     1.0000 0.75000  0.50000  0.41486  Biso   1.000  Ni
  Ni37     1.0000 0.25000  0.00000  0.91486  Biso   1.000  Ni
  Ni38     1.0000 0.75000  0.50000  0.91486  Biso   1.000  Ni
  Ni39     1.0000 0.75000  0.00000  0.58514  Biso   1.000  Ni
  Ni40     1.0000 0.25000  0.50000  0.58514  Biso   1.000  Ni
