data_image0
_cell_length_a       32.989
_cell_length_b       39.08
_cell_length_c       27.682
_cell_angle_alpha    90
_cell_angle_beta     124.04
_cell_angle_gamma    90

_symmetry_space_group_name_H-M    "P 1"
_symmetry_int_tables_number       1

loop_
  _symmetry_equiv_pos_as_xyz
  'x, y, z'

loop_
  _atom_site_label
  _atom_site_occupancy
  _atom_site_fract_x
  _atom_site_fract_y
  _atom_site_fract_z
  _atom_site_thermal_displace_type
  _atom_site_B_iso_or_equiv
  _atom_site_type_symbol
  Co1      1.0000 0.63636  0.22943  0.03348  Biso   1.000  Co
  Co2      1.0000 0.72186  0.19013  0.15597  Biso   1.000  Co
  O1       1.0000 0.64691  0.02059  0.60812  Biso   1.000  O
  O2       1.0000 0.59426  0.21486  0.05910  Biso   1.000  O
  O3       1.0000 0.63654  0.18457  0.99951  Biso   1.000  O
  O4       1.0000 0.69056  0.15824  0.08295  Biso   1.000  O
  O5       1.0000 0.65699  0.19956  0.14660  Biso   1.000  O
  C1       1.0000 0.48745  0.17535  0.18877  Biso   1.000  C
  O6       1.0000 0.19323  0.24708  0.02401  Biso   1.000  O
  O7       1.0000 0.21325  0.26381  0.11054  Biso   1.000  O
  C2       1.0000 0.22184  0.25327  0.07740  Biso   1.000  C
  C3       1.0000 0.27616  0.23677  0.11160  Biso   1.000  C
  C4       1.0000 0.29129  0.22668  0.07770  Biso   1.000  C
  H1       1.0000 0.27130  0.22980  0.03750  Biso   1.000  H
  C5       1.0000 0.33747  0.21146  0.10339  Biso   1.000  C
  H2       1.0000 0.34820  0.20540  0.07980  Biso   1.000  H
  C6       1.0000 0.36720  0.20515  0.16198  Biso   1.000  C
  C7       1.0000 0.35135  0.21571  0.19750  Biso   1.000  C
  H3       1.0000 0.37090  0.21230  0.23760  Biso   1.000  H
  C8       1.0000 0.30579  0.23141  0.17140  Biso   1.000  C
  H4       1.0000 0.29500  0.23840  0.19440  Biso   1.000  H
  C9       1.0000 0.41418  0.18709  0.18665  Biso   1.000  C
  C10      1.0000 0.42907  0.16291  0.23078  Biso   1.000  C
  H5       1.0000 0.40930  0.15880  0.24430  Biso   1.000  H
  C11      1.0000 0.50121  0.15122  0.23295  Biso   1.000  C
  H6       1.0000 0.53010  0.13900  0.24810  Biso   1.000  H
  C12      1.0000 0.47243  0.14499  0.25495  Biso   1.000  C
  C13      1.0000 0.44350  0.19297  0.16624  Biso   1.000  C
  H7       1.0000 0.43370  0.20900  0.13690  Biso   1.000  H
  C14      1.0000 0.48894  0.11948  0.30236  Biso   1.000  C
  C15      1.0000 0.63914  0.03077  0.91030  Biso   1.000  C
  C16      1.0000 0.63206  0.03055  0.85561  Biso   1.000  C
  H8       1.0000 0.63000  0.05110  0.83750  Biso   1.000  H
  C17      1.0000 0.51816  0.18231  0.16664  Biso   1.000  C
  C18      1.0000 0.51975  0.07289  0.39374  Biso   1.000  C
  C19      1.0000 0.53585  0.04720  0.44210  Biso   1.000  C
  C20      1.0000 0.49882  0.19025  0.11024  Biso   1.000  C
  H9       1.0000 0.46500  0.19110  0.08390  Biso   1.000  H
  C21      1.0000 0.62257  0.12306  0.93714  Biso   1.000  C
  H10      1.0000 0.60380  0.14180  0.91520  Biso   1.000  H
  C22      1.0000 0.61835  0.09341  0.91090  Biso   1.000  C
  H11      1.0000 0.59660  0.09220  0.87060  Biso   1.000  H
  C23      1.0000 0.64455  0.06425  0.94019  Biso   1.000  C
  C24      1.0000 0.68297  0.09768  0.02830  Biso   1.000  C
  H12      1.0000 0.70590  0.09940  0.06830  Biso   1.000  H
  O8       1.0000 0.50340  0.03310  0.44610  Biso   1.000  O
  O9       1.0000 0.58170  0.04250  0.47600  Biso   1.000  O
  C25      1.0000 0.45450  0.09940  0.30480  Biso   1.000  C
  H13      1.0000 0.42140  0.10090  0.27500  Biso   1.000  H
  C26      1.0000 0.46940  0.07730  0.35150  Biso   1.000  C
  H14      1.0000 0.44640  0.06560  0.35460  Biso   1.000  H
  C27      1.0000 0.53800  0.11525  0.34910  Biso   1.000  C
  H15      1.0000 0.56140  0.12930  0.35050  Biso   1.000  H
  C28      1.0000 0.55340  0.09133  0.39300  Biso   1.000  C
  H16      1.0000 0.58660  0.08820  0.42140  Biso   1.000  H
  C29      1.0000 0.62278  0.99365  0.77008  Biso   1.000  C
  C30      1.0000 0.65292  0.97217  0.76342  Biso   1.000  C
  H17      1.0000 0.67540  0.95820  0.79400  Biso   1.000  H
  C31      1.0000 0.64943  0.97165  0.71101  Biso   1.000  C
  H18      1.0000 0.66960  0.95730  0.70660  Biso   1.000  H
  C32      1.0000 0.61581  0.99260  0.66525  Biso   1.000  C
  C33      1.0000 0.58567  0.01407  0.67191  Biso   1.000  C
  H19      1.0000 0.56320  0.02810  0.64130  Biso   1.000  H
  C34      1.0000 0.58915  0.01460  0.72432  Biso   1.000  C
  H20      1.0000 0.56900  0.02900  0.72880  Biso   1.000  H
  C35      1.0000 0.65522  0.12613  0.99766  Biso   1.000  C
  C36      1.0000 0.58010  0.19598  0.13010  Biso   1.000  C
  C37      1.0000 0.66108  0.15878  0.02941  Biso   1.000  C
  C38      1.0000 0.52877  0.19703  0.09160  Biso   1.000  C
  H21      1.0000 0.51490  0.20250  0.05260  Biso   1.000  H
  C39      1.0000 0.56941  0.18106  0.20628  Biso   1.000  C
  H22      1.0000 0.58360  0.17640  0.24550  Biso   1.000  H
  C40      1.0000 0.67730  0.06697  0.00097  Biso   1.000  C
  H23      1.0000 0.69520  0.04800  0.02270  Biso   1.000  H
  C41      1.0000 0.59872  0.18721  0.18430  Biso   1.000  C
  H24      1.0000 0.63250  0.18490  0.20940  Biso   1.000  H
  C42      1.0000 0.60790  0.20515  0.10180  Biso   1.000  C
  C43      1.0000 0.47160  0.88110  0.33640  Biso   1.000  C
  C44      1.0000 0.48610  0.90440  0.37910  Biso   1.000  C
  C45      1.0000 0.52040  0.90570  0.30870  Biso   1.000  C
  C46      1.0000 0.53880  0.92860  0.35690  Biso   1.000  C
  H25      1.0000 0.44870  0.86470  0.33020  Biso   1.000  H
  H26      1.0000 0.47100  0.90420  0.39910  Biso   1.000  H
  H27      1.0000 0.52950  0.90780  0.28250  Biso   1.000  H
  H28      1.0000 0.56290  0.94440  0.36490  Biso   1.000  H
  O10      1.0000 0.51250  0.95580  0.46190  Biso   1.000  O
  O11      1.0000 0.42490  0.96910  0.54610  Biso   1.000  O
  Co3      1.0000 0.13636  0.72943  0.03348  Biso   1.000  Co
  Co4      1.0000 0.22186  0.69013  0.15597  Biso   1.000  Co
  O12      1.0000 0.14691  0.52059  0.60812  Biso   1.000  O
  O13      1.0000 0.09426  0.71486  0.05910  Biso   1.000  O
  O14      1.0000 0.13654  0.68457  0.99951  Biso   1.000  O
  O15      1.0000 0.19056  0.65824  0.08295  Biso   1.000  O
  O16      1.0000 0.15699  0.69956  0.14660  Biso   1.000  O
  C47      1.0000 0.98745  0.67535  0.18877  Biso   1.000  C
  O17      1.0000 0.69323  0.74708  0.02401  Biso   1.000  O
  O18      1.0000 0.71325  0.76381  0.11054  Biso   1.000  O
  C48      1.0000 0.72184  0.75327  0.07740  Biso   1.000  C
  C49      1.0000 0.77616  0.73677  0.11160  Biso   1.000  C
  C50      1.0000 0.79129  0.72668  0.07770  Biso   1.000  C
  H29      1.0000 0.77130  0.72980  0.03750  Biso   1.000  H
  C51      1.0000 0.83747  0.71146  0.10339  Biso   1.000  C
  H30      1.0000 0.84820  0.70540  0.07980  Biso   1.000  H
  C52      1.0000 0.86720  0.70515  0.16198  Biso   1.000  C
  C53      1.0000 0.85135  0.71571  0.19750  Biso   1.000  C
  H31      1.0000 0.87090  0.71230  0.23760  Biso   1.000  H
  C54      1.0000 0.80579  0.73141  0.17140  Biso   1.000  C
  H32      1.0000 0.79500  0.73840  0.19440  Biso   1.000  H
  C55      1.0000 0.91418  0.68709  0.18665  Biso   1.000  C
  C56      1.0000 0.92907  0.66291  0.23078  Biso   1.000  C
  H33      1.0000 0.90930  0.65880  0.24430  Biso   1.000  H
  C57      1.0000 0.00121  0.65122  0.23295  Biso   1.000  C
  H34      1.0000 0.03010  0.63900  0.24810  Biso   1.000  H
  C58      1.0000 0.97243  0.64499  0.25495  Biso   1.000  C
  C59      1.0000 0.94350  0.69297  0.16624  Biso   1.000  C
  H35      1.0000 0.93370  0.70900  0.13690  Biso   1.000  H
  C60      1.0000 0.98894  0.61948  0.30236  Biso   1.000  C
  C61      1.0000 0.13914  0.53077  0.91030  Biso   1.000  C
  C62      1.0000 0.13206  0.53055  0.85561  Biso   1.000  C
  H36      1.0000 0.13000  0.55110  0.83750  Biso   1.000  H
  C63      1.0000 0.01816  0.68231  0.16664  Biso   1.000  C
  C64      1.0000 0.01975  0.57289  0.39374  Biso   1.000  C
  C65      1.0000 0.03585  0.54720  0.44210  Biso   1.000  C
  C66      1.0000 0.99882  0.69025  0.11024  Biso   1.000  C
  H37      1.0000 0.96500  0.69110  0.08390  Biso   1.000  H
  C67      1.0000 0.12257  0.62306  0.93714  Biso   1.000  C
  H38      1.0000 0.10380  0.64180  0.91520  Biso   1.000  H
  C68      1.0000 0.11835  0.59341  0.91090  Biso   1.000  C
  H39      1.0000 0.09660  0.59220  0.87060  Biso   1.000  H
  C69      1.0000 0.14455  0.56425  0.94019  Biso   1.000  C
  C70      1.0000 0.18297  0.59768  0.02830  Biso   1.000  C
  H40      1.0000 0.20590  0.59940  0.06830  Biso   1.000  H
  O19      1.0000 0.00340  0.53310  0.44610  Biso   1.000  O
  O20      1.0000 0.08170  0.54250  0.47600  Biso   1.000  O
  C71      1.0000 0.95450  0.59940  0.30480  Biso   1.000  C
  H41      1.0000 0.92140  0.60090  0.27500  Biso   1.000  H
  C72      1.0000 0.96940  0.57730  0.35150  Biso   1.000  C
  H42      1.0000 0.94640  0.56560  0.35460  Biso   1.000  H
  C73      1.0000 0.03800  0.61525  0.34910  Biso   1.000  C
  H43      1.0000 0.06140  0.62930  0.35050  Biso   1.000  H
  C74      1.0000 0.05340  0.59133  0.39300  Biso   1.000  C
  H44      1.0000 0.08660  0.58820  0.42140  Biso   1.000  H
  C75      1.0000 0.12278  0.49365  0.77008  Biso   1.000  C
  C76      1.0000 0.15292  0.47217  0.76342  Biso   1.000  C
  H45      1.0000 0.17540  0.45820  0.79400  Biso   1.000  H
  C77      1.0000 0.14943  0.47165  0.71101  Biso   1.000  C
  H46      1.0000 0.16960  0.45730  0.70660  Biso   1.000  H
  C78      1.0000 0.11581  0.49260  0.66525  Biso   1.000  C
  C79      1.0000 0.08567  0.51407  0.67191  Biso   1.000  C
  H47      1.0000 0.06320  0.52810  0.64130  Biso   1.000  H
  C80      1.0000 0.08915  0.51460  0.72432  Biso   1.000  C
  H48      1.0000 0.06900  0.52900  0.72880  Biso   1.000  H
  C81      1.0000 0.15522  0.62613  0.99766  Biso   1.000  C
  C82      1.0000 0.08010  0.69598  0.13010  Biso   1.000  C
  C83      1.0000 0.16108  0.65878  0.02941  Biso   1.000  C
  C84      1.0000 0.02877  0.69703  0.09160  Biso   1.000  C
  H49      1.0000 0.01490  0.70250  0.05260  Biso   1.000  H
  C85      1.0000 0.06941  0.68106  0.20628  Biso   1.000  C
  H50      1.0000 0.08360  0.67640  0.24550  Biso   1.000  H
  C86      1.0000 0.17730  0.56697  0.00097  Biso   1.000  C
  H51      1.0000 0.19520  0.54800  0.02270  Biso   1.000  H
  C87      1.0000 0.09872  0.68721  0.18430  Biso   1.000  C
  H52      1.0000 0.13250  0.68490  0.20940  Biso   1.000  H
  C88      1.0000 0.10790  0.70515  0.10180  Biso   1.000  C
  C89      1.0000 0.97160  0.38110  0.33640  Biso   1.000  C
  C90      1.0000 0.98610  0.40440  0.37910  Biso   1.000  C
  C91      1.0000 0.02040  0.40570  0.30870  Biso   1.000  C
  C92      1.0000 0.03880  0.42860  0.35690  Biso   1.000  C
  H53      1.0000 0.94870  0.36470  0.33020  Biso   1.000  H
  H54      1.0000 0.97100  0.40420  0.39910  Biso   1.000  H
  H55      1.0000 0.02950  0.40780  0.28250  Biso   1.000  H
  H56      1.0000 0.06290  0.44440  0.36490  Biso   1.000  H
  O21      1.0000 0.01250  0.45580  0.46190  Biso   1.000  O
  O22      1.0000 0.92490  0.46910  0.54610  Biso   1.000  O
  Co5      1.0000 0.36364  0.22943  0.96652  Biso   1.000  Co
  Co6      1.0000 0.27814  0.19013  0.84403  Biso   1.000  Co
  O23      1.0000 0.35309  0.02059  0.39188  Biso   1.000  O
  O24      1.0000 0.40574  0.21486  0.94090  Biso   1.000  O
  O25      1.0000 0.36346  0.18457  0.00049  Biso   1.000  O
  O26      1.0000 0.30944  0.15824  0.91705  Biso   1.000  O
  O27      1.0000 0.34301  0.19956  0.85340  Biso   1.000  O
  C93      1.0000 0.51255  0.17535  0.81123  Biso   1.000  C
  O28      1.0000 0.80677  0.24708  0.97599  Biso   1.000  O
  O29      1.0000 0.78675  0.26381  0.88946  Biso   1.000  O
  C94      1.0000 0.77816  0.25327  0.92260  Biso   1.000  C
  C95      1.0000 0.72384  0.23677  0.88840  Biso   1.000  C
  C96      1.0000 0.70871  0.22668  0.92230  Biso   1.000  C
  H57      1.0000 0.72870  0.22980  0.96250  Biso   1.000  H
  C97      1.0000 0.66253  0.21146  0.89661  Biso   1.000  C
  H58      1.0000 0.65180  0.20540  0.92020  Biso   1.000  H
  C98      1.0000 0.63280  0.20515  0.83802  Biso   1.000  C
  C99      1.0000 0.64865  0.21571  0.80250  Biso   1.000  C
  H59      1.0000 0.62910  0.21230  0.76240  Biso   1.000  H
  C100     1.0000 0.69421  0.23141  0.82860  Biso   1.000  C
  H60      1.0000 0.70500  0.23840  0.80560  Biso   1.000  H
  C101     1.0000 0.58582  0.18709  0.81335  Biso   1.000  C
  C102     1.0000 0.57093  0.16291  0.76922  Biso   1.000  C
  H61      1.0000 0.59070  0.15880  0.75570  Biso   1.000  H
  C103     1.0000 0.49879  0.15122  0.76705  Biso   1.000  C
  H62      1.0000 0.46990  0.13900  0.75190  Biso   1.000  H
  C104     1.0000 0.52757  0.14499  0.74505  Biso   1.000  C
  C105     1.0000 0.55650  0.19297  0.83376  Biso   1.000  C
  H63      1.0000 0.56630  0.20900  0.86310  Biso   1.000  H
  C106     1.0000 0.51106  0.11948  0.69764  Biso   1.000  C
  C107     1.0000 0.36086  0.03077  0.08970  Biso   1.000  C
  C108     1.0000 0.36794  0.03055  0.14439  Biso   1.000  C
  H64      1.0000 0.37000  0.05110  0.16250  Biso   1.000  H
  C109     1.0000 0.48184  0.18231  0.83336  Biso   1.000  C
  C110     1.0000 0.48025  0.07289  0.60626  Biso   1.000  C
  C111     1.0000 0.46415  0.04720  0.55790  Biso   1.000  C
  C112     1.0000 0.50118  0.19025  0.88976  Biso   1.000  C
  H65      1.0000 0.53500  0.19110  0.91610  Biso   1.000  H
  C113     1.0000 0.37743  0.12306  0.06286  Biso   1.000  C
  H66      1.0000 0.39620  0.14180  0.08480  Biso   1.000  H
  C114     1.0000 0.38165  0.09341  0.08910  Biso   1.000  C
  H67      1.0000 0.40340  0.09220  0.12940  Biso   1.000  H
  C115     1.0000 0.35545  0.06425  0.05981  Biso   1.000  C
  C116     1.0000 0.31703  0.09768  0.97170  Biso   1.000  C
  H68      1.0000 0.29410  0.09940  0.93170  Biso   1.000  H
  O30      1.0000 0.49660  0.03310  0.55390  Biso   1.000  O
  O31      1.0000 0.41830  0.04250  0.52400  Biso   1.000  O
  C117     1.0000 0.54550  0.09940  0.69520  Biso   1.000  C
  H69      1.0000 0.57860  0.10090  0.72500  Biso   1.000  H
  C118     1.0000 0.53060  0.07730  0.64850  Biso   1.000  C
  H70      1.0000 0.55360  0.06560  0.64540  Biso   1.000  H
  C119     1.0000 0.46200  0.11525  0.65090  Biso   1.000  C
  H71      1.0000 0.43860  0.12930  0.64950  Biso   1.000  H
  C120     1.0000 0.44660  0.09133  0.60700  Biso   1.000  C
  H72      1.0000 0.41340  0.08820  0.57860  Biso   1.000  H
  C121     1.0000 0.37722  0.99365  0.22992  Biso   1.000  C
  C122     1.0000 0.34708  0.97217  0.23658  Biso   1.000  C
  H73      1.0000 0.32460  0.95820  0.20600  Biso   1.000  H
  C123     1.0000 0.35057  0.97165  0.28899  Biso   1.000  C
  H74      1.0000 0.33040  0.95730  0.29340  Biso   1.000  H
  C124     1.0000 0.38419  0.99260  0.33475  Biso   1.000  C
  C125     1.0000 0.41433  0.01407  0.32809  Biso   1.000  C
  H75      1.0000 0.43680  0.02810  0.35870  Biso   1.000  H
  C126     1.0000 0.41085  0.01460  0.27568  Biso   1.000  C
  H76      1.0000 0.43100  0.02900  0.27120  Biso   1.000  H
  C127     1.0000 0.34478  0.12613  0.00234  Biso   1.000  C
  C128     1.0000 0.41990  0.19598  0.86990  Biso   1.000  C
  C129     1.0000 0.33892  0.15878  0.97059  Biso   1.000  C
  C130     1.0000 0.47123  0.19703  0.90840  Biso   1.000  C
  H77      1.0000 0.48510  0.20250  0.94740  Biso   1.000  H
  C131     1.0000 0.43059  0.18106  0.79372  Biso   1.000  C
  H78      1.0000 0.41640  0.17640  0.75450  Biso   1.000  H
  C132     1.0000 0.32270  0.06697  0.99903  Biso   1.000  C
  H79      1.0000 0.30480  0.04800  0.97730  Biso   1.000  H
  C133     1.0000 0.40128  0.18721  0.81570  Biso   1.000  C
  H80      1.0000 0.36750  0.18490  0.79060  Biso   1.000  H
  C134     1.0000 0.39210  0.20515  0.89820  Biso   1.000  C
  C135     1.0000 0.52840  0.88110  0.66360  Biso   1.000  C
  C136     1.0000 0.51390  0.90440  0.62090  Biso   1.000  C
  C137     1.0000 0.47960  0.90570  0.69130  Biso   1.000  C
  C138     1.0000 0.46120  0.92860  0.64310  Biso   1.000  C
  H81      1.0000 0.55130  0.86470  0.66980  Biso   1.000  H
  H82      1.0000 0.52900  0.90420  0.60090  Biso   1.000  H
  H83      1.0000 0.47050  0.90780  0.71750  Biso   1.000  H
  H84      1.0000 0.43710  0.94440  0.63510  Biso   1.000  H
  O32      1.0000 0.48750  0.95580  0.53810  Biso   1.000  O
  O33      1.0000 0.57510  0.96910  0.45390  Biso   1.000  O
  Co7      1.0000 0.86364  0.72943  0.96652  Biso   1.000  Co
  Co8      1.0000 0.77814  0.69013  0.84403  Biso   1.000  Co
  O34      1.0000 0.85309  0.52059  0.39188  Biso   1.000  O
  O35      1.0000 0.90574  0.71486  0.94090  Biso   1.000  O
  O36      1.0000 0.86346  0.68457  0.00049  Biso   1.000  O
  O37      1.0000 0.80944  0.65824  0.91705  Biso   1.000  O
  O38      1.0000 0.84301  0.69956  0.85340  Biso   1.000  O
  C139     1.0000 0.01255  0.67535  0.81123  Biso   1.000  C
  O39      1.0000 0.30677  0.74708  0.97599  Biso   1.000  O
  O40      1.0000 0.28675  0.76381  0.88946  Biso   1.000  O
  C140     1.0000 0.27816  0.75327  0.92260  Biso   1.000  C
  C141     1.0000 0.22384  0.73677  0.88840  Biso   1.000  C
  C142     1.0000 0.20871  0.72668  0.92230  Biso   1.000  C
  H85      1.0000 0.22870  0.72980  0.96250  Biso   1.000  H
  C143     1.0000 0.16253  0.71146  0.89661  Biso   1.000  C
  H86      1.0000 0.15180  0.70540  0.92020  Biso   1.000  H
  C144     1.0000 0.13280  0.70515  0.83802  Biso   1.000  C
  C145     1.0000 0.14865  0.71571  0.80250  Biso   1.000  C
  H87      1.0000 0.12910  0.71230  0.76240  Biso   1.000  H
  C146     1.0000 0.19421  0.73141  0.82860  Biso   1.000  C
  H88      1.0000 0.20500  0.73840  0.80560  Biso   1.000  H
  C147     1.0000 0.08582  0.68709  0.81335  Biso   1.000  C
  C148     1.0000 0.07093  0.66291  0.76922  Biso   1.000  C
  H89      1.0000 0.09070  0.65880  0.75570  Biso   1.000  H
  C149     1.0000 0.99879  0.65122  0.76705  Biso   1.000  C
  H90      1.0000 0.96990  0.63900  0.75190  Biso   1.000  H
  C150     1.0000 0.02757  0.64499  0.74505  Biso   1.000  C
  C151     1.0000 0.05650  0.69297  0.83376  Biso   1.000  C
  H91      1.0000 0.06630  0.70900  0.86310  Biso   1.000  H
  C152     1.0000 0.01106  0.61948  0.69764  Biso   1.000  C
  C153     1.0000 0.86086  0.53077  0.08970  Biso   1.000  C
  C154     1.0000 0.86794  0.53055  0.14439  Biso   1.000  C
  H92      1.0000 0.87000  0.55110  0.16250  Biso   1.000  H
  C155     1.0000 0.98184  0.68231  0.83336  Biso   1.000  C
  C156     1.0000 0.98025  0.57289  0.60626  Biso   1.000  C
  C157     1.0000 0.96415  0.54720  0.55790  Biso   1.000  C
  C158     1.0000 0.00118  0.69025  0.88976  Biso   1.000  C
  H93      1.0000 0.03500  0.69110  0.91610  Biso   1.000  H
  C159     1.0000 0.87743  0.62306  0.06286  Biso   1.000  C
  H94      1.0000 0.89620  0.64180  0.08480  Biso   1.000  H
  C160     1.0000 0.88165  0.59341  0.08910  Biso   1.000  C
  H95      1.0000 0.90340  0.59220  0.12940  Biso   1.000  H
  C161     1.0000 0.85545  0.56425  0.05981  Biso   1.000  C
  C162     1.0000 0.81703  0.59768  0.97170  Biso   1.000  C
  H96      1.0000 0.79410  0.59940  0.93170  Biso   1.000  H
  O41      1.0000 0.99660  0.53310  0.55390  Biso   1.000  O
  O42      1.0000 0.91830  0.54250  0.52400  Biso   1.000  O
  C163     1.0000 0.04550  0.59940  0.69520  Biso   1.000  C
  H97      1.0000 0.07860  0.60090  0.72500  Biso   1.000  H
  C164     1.0000 0.03060  0.57730  0.64850  Biso   1.000  C
  H98      1.0000 0.05360  0.56560  0.64540  Biso   1.000  H
  C165     1.0000 0.96200  0.61525  0.65090  Biso   1.000  C
  H99      1.0000 0.93860  0.62930  0.64950  Biso   1.000  H
  C166     1.0000 0.94660  0.59133  0.60700  Biso   1.000  C
  H100     1.0000 0.91340  0.58820  0.57860  Biso   1.000  H
  C167     1.0000 0.87722  0.49365  0.22992  Biso   1.000  C
  C168     1.0000 0.84708  0.47217  0.23658  Biso   1.000  C
  H101     1.0000 0.82460  0.45820  0.20600  Biso   1.000  H
  C169     1.0000 0.85057  0.47165  0.28899  Biso   1.000  C
  H102     1.0000 0.83040  0.45730  0.29340  Biso   1.000  H
  C170     1.0000 0.88419  0.49260  0.33475  Biso   1.000  C
  C171     1.0000 0.91433  0.51407  0.32809  Biso   1.000  C
  H103     1.0000 0.93680  0.52810  0.35870  Biso   1.000  H
  C172     1.0000 0.91085  0.51460  0.27568  Biso   1.000  C
  H104     1.0000 0.93100  0.52900  0.27120  Biso   1.000  H
  C173     1.0000 0.84478  0.62613  0.00234  Biso   1.000  C
  C174     1.0000 0.91990  0.69598  0.86990  Biso   1.000  C
  C175     1.0000 0.83892  0.65878  0.97059  Biso   1.000  C
  C176     1.0000 0.97123  0.69703  0.90840  Biso   1.000  C
  H105     1.0000 0.98510  0.70250  0.94740  Biso   1.000  H
  C177     1.0000 0.93059  0.68106  0.79372  Biso   1.000  C
  H106     1.0000 0.91640  0.67640  0.75450  Biso   1.000  H
  C178     1.0000 0.82270  0.56697  0.99903  Biso   1.000  C
  H107     1.0000 0.80480  0.54800  0.97730  Biso   1.000  H
  C179     1.0000 0.90128  0.68721  0.81570  Biso   1.000  C
  H108     1.0000 0.86750  0.68490  0.79060  Biso   1.000  H
  C180     1.0000 0.89210  0.70515  0.89820  Biso   1.000  C
  C181     1.0000 0.02840  0.38110  0.66360  Biso   1.000  C
  C182     1.0000 0.01390  0.40440  0.62090  Biso   1.000  C
  C183     1.0000 0.97960  0.40570  0.69130  Biso   1.000  C
  C184     1.0000 0.96120  0.42860  0.64310  Biso   1.000  C
  H109     1.0000 0.05130  0.36470  0.66980  Biso   1.000  H
  H110     1.0000 0.02900  0.40420  0.60090  Biso   1.000  H
  H111     1.0000 0.97050  0.40780  0.71750  Biso   1.000  H
  H112     1.0000 0.93710  0.44440  0.63510  Biso   1.000  H
  O43      1.0000 0.98750  0.45580  0.53810  Biso   1.000  O
  O44      1.0000 0.07510  0.46910  0.45390  Biso   1.000  O
  Co9      1.0000 0.36364  0.77057  0.96652  Biso   1.000  Co
  Co10     1.0000 0.27814  0.80987  0.84403  Biso   1.000  Co
  O45      1.0000 0.35309  0.97941  0.39188  Biso   1.000  O
  O46      1.0000 0.40574  0.78514  0.94090  Biso   1.000  O
  O47      1.0000 0.36346  0.81543  0.00049  Biso   1.000  O
  O48      1.0000 0.30944  0.84176  0.91705  Biso   1.000  O
  O49      1.0000 0.34301  0.80044  0.85340  Biso   1.000  O
  C185     1.0000 0.51255  0.82465  0.81123  Biso   1.000  C
  O50      1.0000 0.80677  0.75292  0.97599  Biso   1.000  O
  O51      1.0000 0.78675  0.73619  0.88946  Biso   1.000  O
  C186     1.0000 0.77816  0.74673  0.92260  Biso   1.000  C
  C187     1.0000 0.72384  0.76323  0.88840  Biso   1.000  C
  C188     1.0000 0.70871  0.77332  0.92230  Biso   1.000  C
  H113     1.0000 0.72870  0.77020  0.96250  Biso   1.000  H
  C189     1.0000 0.66253  0.78854  0.89661  Biso   1.000  C
  H114     1.0000 0.65180  0.79460  0.92020  Biso   1.000  H
  C190     1.0000 0.63280  0.79485  0.83802  Biso   1.000  C
  C191     1.0000 0.64865  0.78429  0.80250  Biso   1.000  C
  H115     1.0000 0.62910  0.78770  0.76240  Biso   1.000  H
  C192     1.0000 0.69421  0.76859  0.82860  Biso   1.000  C
  H116     1.0000 0.70500  0.76160  0.80560  Biso   1.000  H
  C193     1.0000 0.58582  0.81291  0.81335  Biso   1.000  C
  C194     1.0000 0.57093  0.83709  0.76922  Biso   1.000  C
  H117     1.0000 0.59070  0.84120  0.75570  Biso   1.000  H
  C195     1.0000 0.49879  0.84878  0.76705  Biso   1.000  C
  H118     1.0000 0.46990  0.86100  0.75190  Biso   1.000  H
  C196     1.0000 0.52757  0.85501  0.74505  Biso   1.000  C
  C197     1.0000 0.55650  0.80703  0.83376  Biso   1.000  C
  H119     1.0000 0.56630  0.79100  0.86310  Biso   1.000  H
  C198     1.0000 0.51106  0.88052  0.69764  Biso   1.000  C
  C199     1.0000 0.36086  0.96923  0.08970  Biso   1.000  C
  C200     1.0000 0.36794  0.96945  0.14439  Biso   1.000  C
  H120     1.0000 0.37000  0.94890  0.16250  Biso   1.000  H
  C201     1.0000 0.48184  0.81769  0.83336  Biso   1.000  C
  C202     1.0000 0.48025  0.92711  0.60626  Biso   1.000  C
  C203     1.0000 0.46415  0.95280  0.55790  Biso   1.000  C
  C204     1.0000 0.50118  0.80975  0.88976  Biso   1.000  C
  H121     1.0000 0.53500  0.80890  0.91610  Biso   1.000  H
  C205     1.0000 0.37743  0.87694  0.06286  Biso   1.000  C
  H122     1.0000 0.39620  0.85820  0.08480  Biso   1.000  H
  C206     1.0000 0.38165  0.90659  0.08910  Biso   1.000  C
  H123     1.0000 0.40340  0.90780  0.12940  Biso   1.000  H
  C207     1.0000 0.35545  0.93575  0.05981  Biso   1.000  C
  C208     1.0000 0.31703  0.90232  0.97170  Biso   1.000  C
  H124     1.0000 0.29410  0.90060  0.93170  Biso   1.000  H
  O52      1.0000 0.49660  0.96690  0.55390  Biso   1.000  O
  O53      1.0000 0.41830  0.95750  0.52400  Biso   1.000  O
  C209     1.0000 0.54550  0.90060  0.69520  Biso   1.000  C
  H125     1.0000 0.57860  0.89910  0.72500  Biso   1.000  H
  C210     1.0000 0.53060  0.92270  0.64850  Biso   1.000  C
  H126     1.0000 0.55360  0.93440  0.64540  Biso   1.000  H
  C211     1.0000 0.46200  0.88475  0.65090  Biso   1.000  C
  H127     1.0000 0.43860  0.87070  0.64950  Biso   1.000  H
  C212     1.0000 0.44660  0.90867  0.60700  Biso   1.000  C
  H128     1.0000 0.41340  0.91180  0.57860  Biso   1.000  H
  C213     1.0000 0.37722  0.00635  0.22992  Biso   1.000  C
  C214     1.0000 0.34708  0.02783  0.23658  Biso   1.000  C
  H129     1.0000 0.32460  0.04180  0.20600  Biso   1.000  H
  C215     1.0000 0.35057  0.02835  0.28899  Biso   1.000  C
  H130     1.0000 0.33040  0.04270  0.29340  Biso   1.000  H
  C216     1.0000 0.38419  0.00740  0.33475  Biso   1.000  C
  C217     1.0000 0.41433  0.98593  0.32809  Biso   1.000  C
  H131     1.0000 0.43680  0.97190  0.35870  Biso   1.000  H
  C218     1.0000 0.41085  0.98540  0.27568  Biso   1.000  C
  H132     1.0000 0.43100  0.97100  0.27120  Biso   1.000  H
  C219     1.0000 0.34478  0.87387  0.00234  Biso   1.000  C
  C220     1.0000 0.41990  0.80402  0.86990  Biso   1.000  C
  C221     1.0000 0.33892  0.84122  0.97059  Biso   1.000  C
  C222     1.0000 0.47123  0.80297  0.90840  Biso   1.000  C
  H133     1.0000 0.48510  0.79750  0.94740  Biso   1.000  H
  C223     1.0000 0.43059  0.81894  0.79372  Biso   1.000  C
  H134     1.0000 0.41640  0.82360  0.75450  Biso   1.000  H
  C224     1.0000 0.32270  0.93303  0.99903  Biso   1.000  C
  H135     1.0000 0.30480  0.95200  0.97730  Biso   1.000  H
  C225     1.0000 0.40128  0.81279  0.81570  Biso   1.000  C
  H136     1.0000 0.36750  0.81510  0.79060  Biso   1.000  H
  C226     1.0000 0.39210  0.79485  0.89820  Biso   1.000  C
  C227     1.0000 0.52840  0.11890  0.66360  Biso   1.000  C
  C228     1.0000 0.51390  0.09560  0.62090  Biso   1.000  C
  C229     1.0000 0.47960  0.09430  0.69130  Biso   1.000  C
  C230     1.0000 0.46120  0.07140  0.64310  Biso   1.000  C
  H137     1.0000 0.55130  0.13530  0.66980  Biso   1.000  H
  H138     1.0000 0.52900  0.09580  0.60090  Biso   1.000  H
  H139     1.0000 0.47050  0.09220  0.71750  Biso   1.000  H
  H140     1.0000 0.43710  0.05560  0.63510  Biso   1.000  H
  O54      1.0000 0.48750  0.04420  0.53810  Biso   1.000  O
  O55      1.0000 0.57510  0.03090  0.45390  Biso   1.000  O
  Co11     1.0000 0.86364  0.27057  0.96652  Biso   1.000  Co
  Co12     1.0000 0.77814  0.30987  0.84403  Biso   1.000  Co
  O56      1.0000 0.85309  0.47941  0.39188  Biso   1.000  O
  O57      1.0000 0.90574  0.28514  0.94090  Biso   1.000  O
  O58      1.0000 0.86346  0.31543  0.00049  Biso   1.000  O
  O59      1.0000 0.80944  0.34176  0.91705  Biso   1.000  O
  O60      1.0000 0.84301  0.30044  0.85340  Biso   1.000  O
  C231     1.0000 0.01255  0.32465  0.81123  Biso   1.000  C
  O61      1.0000 0.30677  0.25292  0.97599  Biso   1.000  O
  O62      1.0000 0.28675  0.23619  0.88946  Biso   1.000  O
  C232     1.0000 0.27816  0.24673  0.92260  Biso   1.000  C
  C233     1.0000 0.22384  0.26323  0.88840  Biso   1.000  C
  C234     1.0000 0.20871  0.27332  0.92230  Biso   1.000  C
  H141     1.0000 0.22870  0.27020  0.96250  Biso   1.000  H
  C235     1.0000 0.16253  0.28854  0.89661  Biso   1.000  C
  H142     1.0000 0.15180  0.29460  0.92020  Biso   1.000  H
  C236     1.0000 0.13280  0.29485  0.83802  Biso   1.000  C
  C237     1.0000 0.14865  0.28429  0.80250  Biso   1.000  C
  H143     1.0000 0.12910  0.28770  0.76240  Biso   1.000  H
  C238     1.0000 0.19421  0.26859  0.82860  Biso   1.000  C
  H144     1.0000 0.20500  0.26160  0.80560  Biso   1.000  H
  C239     1.0000 0.08582  0.31291  0.81335  Biso   1.000  C
  C240     1.0000 0.07093  0.33709  0.76922  Biso   1.000  C
  H145     1.0000 0.09070  0.34120  0.75570  Biso   1.000  H
  C241     1.0000 0.99879  0.34878  0.76705  Biso   1.000  C
  H146     1.0000 0.96990  0.36100  0.75190  Biso   1.000  H
  C242     1.0000 0.02757  0.35501  0.74505  Biso   1.000  C
  C243     1.0000 0.05650  0.30703  0.83376  Biso   1.000  C
  H147     1.0000 0.06630  0.29100  0.86310  Biso   1.000  H
  C244     1.0000 0.01106  0.38052  0.69764  Biso   1.000  C
  C245     1.0000 0.86086  0.46923  0.08970  Biso   1.000  C
  C246     1.0000 0.86794  0.46945  0.14439  Biso   1.000  C
  H148     1.0000 0.87000  0.44890  0.16250  Biso   1.000  H
  C247     1.0000 0.98184  0.31769  0.83336  Biso   1.000  C
  C248     1.0000 0.98025  0.42711  0.60626  Biso   1.000  C
  C249     1.0000 0.96415  0.45280  0.55790  Biso   1.000  C
  C250     1.0000 0.00118  0.30975  0.88976  Biso   1.000  C
  H149     1.0000 0.03500  0.30890  0.91610  Biso   1.000  H
  C251     1.0000 0.87743  0.37694  0.06286  Biso   1.000  C
  H150     1.0000 0.89620  0.35820  0.08480  Biso   1.000  H
  C252     1.0000 0.88165  0.40659  0.08910  Biso   1.000  C
  H151     1.0000 0.90340  0.40780  0.12940  Biso   1.000  H
  C253     1.0000 0.85545  0.43575  0.05981  Biso   1.000  C
  C254     1.0000 0.81703  0.40232  0.97170  Biso   1.000  C
  H152     1.0000 0.79410  0.40060  0.93170  Biso   1.000  H
  O63      1.0000 0.99660  0.46690  0.55390  Biso   1.000  O
  O64      1.0000 0.91830  0.45750  0.52400  Biso   1.000  O
  C255     1.0000 0.04550  0.40060  0.69520  Biso   1.000  C
  H153     1.0000 0.07860  0.39910  0.72500  Biso   1.000  H
  C256     1.0000 0.03060  0.42270  0.64850  Biso   1.000  C
  H154     1.0000 0.05360  0.43440  0.64540  Biso   1.000  H
  C257     1.0000 0.96200  0.38475  0.65090  Biso   1.000  C
  H155     1.0000 0.93860  0.37070  0.64950  Biso   1.000  H
  C258     1.0000 0.94660  0.40867  0.60700  Biso   1.000  C
  H156     1.0000 0.91340  0.41180  0.57860  Biso   1.000  H
  C259     1.0000 0.87722  0.50635  0.22992  Biso   1.000  C
  C260     1.0000 0.84708  0.52783  0.23658  Biso   1.000  C
  H157     1.0000 0.82460  0.54180  0.20600  Biso   1.000  H
  C261     1.0000 0.85057  0.52835  0.28899  Biso   1.000  C
  H158     1.0000 0.83040  0.54270  0.29340  Biso   1.000  H
  C262     1.0000 0.88419  0.50740  0.33475  Biso   1.000  C
  C263     1.0000 0.91433  0.48593  0.32809  Biso   1.000  C
  H159     1.0000 0.93680  0.47190  0.35870  Biso   1.000  H
  C264     1.0000 0.91085  0.48540  0.27568  Biso   1.000  C
  H160     1.0000 0.93100  0.47100  0.27120  Biso   1.000  H
  C265     1.0000 0.84478  0.37387  0.00234  Biso   1.000  C
  C266     1.0000 0.91990  0.30402  0.86990  Biso   1.000  C
  C267     1.0000 0.83892  0.34122  0.97059  Biso   1.000  C
  C268     1.0000 0.97123  0.30297  0.90840  Biso   1.000  C
  H161     1.0000 0.98510  0.29750  0.94740  Biso   1.000  H
  C269     1.0000 0.93059  0.31894  0.79372  Biso   1.000  C
  H162     1.0000 0.91640  0.32360  0.75450  Biso   1.000  H
  C270     1.0000 0.82270  0.43303  0.99903  Biso   1.000  C
  H163     1.0000 0.80480  0.45200  0.97730  Biso   1.000  H
  C271     1.0000 0.90128  0.31279  0.81570  Biso   1.000  C
  H164     1.0000 0.86750  0.31510  0.79060  Biso   1.000  H
  C272     1.0000 0.89210  0.29485  0.89820  Biso   1.000  C
  C273     1.0000 0.02840  0.61890  0.66360  Biso   1.000  C
  C274     1.0000 0.01390  0.59560  0.62090  Biso   1.000  C
  C275     1.0000 0.97960  0.59430  0.69130  Biso   1.000  C
  C276     1.0000 0.96120  0.57140  0.64310  Biso   1.000  C
  H165     1.0000 0.05130  0.63530  0.66980  Biso   1.000  H
  H166     1.0000 0.02900  0.59580  0.60090  Biso   1.000  H
  H167     1.0000 0.97050  0.59220  0.71750  Biso   1.000  H
  H168     1.0000 0.93710  0.55560  0.63510  Biso   1.000  H
  O65      1.0000 0.98750  0.54420  0.53810  Biso   1.000  O
  O66      1.0000 0.07510  0.53090  0.45390  Biso   1.000  O
  Co13     1.0000 0.63636  0.77057  0.03348  Biso   1.000  Co
  Co14     1.0000 0.72186  0.80987  0.15597  Biso   1.000  Co
  O67      1.0000 0.64691  0.97941  0.60812  Biso   1.000  O
  O68      1.0000 0.59426  0.78514  0.05910  Biso   1.000  O
  O69      1.0000 0.63654  0.81543  0.99951  Biso   1.000  O
  O70      1.0000 0.69056  0.84176  0.08295  Biso   1.000  O
  O71      1.0000 0.65699  0.80044  0.14660  Biso   1.000  O
  C277     1.0000 0.48745  0.82465  0.18877  Biso   1.000  C
  O72      1.0000 0.19323  0.75292  0.02401  Biso   1.000  O
  O73      1.0000 0.21325  0.73619  0.11054  Biso   1.000  O
  C278     1.0000 0.22184  0.74673  0.07740  Biso   1.000  C
  C279     1.0000 0.27616  0.76323  0.11160  Biso   1.000  C
  C280     1.0000 0.29129  0.77332  0.07770  Biso   1.000  C
  H169     1.0000 0.27130  0.77020  0.03750  Biso   1.000  H
  C281     1.0000 0.33747  0.78854  0.10339  Biso   1.000  C
  H170     1.0000 0.34820  0.79460  0.07980  Biso   1.000  H
  C282     1.0000 0.36720  0.79485  0.16198  Biso   1.000  C
  C283     1.0000 0.35135  0.78429  0.19750  Biso   1.000  C
  H171     1.0000 0.37090  0.78770  0.23760  Biso   1.000  H
  C284     1.0000 0.30579  0.76859  0.17140  Biso   1.000  C
  H172     1.0000 0.29500  0.76160  0.19440  Biso   1.000  H
  C285     1.0000 0.41418  0.81291  0.18665  Biso   1.000  C
  C286     1.0000 0.42907  0.83709  0.23078  Biso   1.000  C
  H173     1.0000 0.40930  0.84120  0.24430  Biso   1.000  H
  C287     1.0000 0.50121  0.84878  0.23295  Biso   1.000  C
  H174     1.0000 0.53010  0.86100  0.24810  Biso   1.000  H
  C288     1.0000 0.47243  0.85501  0.25495  Biso   1.000  C
  C289     1.0000 0.44350  0.80703  0.16624  Biso   1.000  C
  H175     1.0000 0.43370  0.79100  0.13690  Biso   1.000  H
  C290     1.0000 0.48894  0.88052  0.30236  Biso   1.000  C
  C291     1.0000 0.63914  0.96923  0.91030  Biso   1.000  C
  C292     1.0000 0.63206  0.96945  0.85561  Biso   1.000  C
  H176     1.0000 0.63000  0.94890  0.83750  Biso   1.000  H
  C293     1.0000 0.51816  0.81769  0.16664  Biso   1.000  C
  C294     1.0000 0.51975  0.92711  0.39374  Biso   1.000  C
  C295     1.0000 0.53585  0.95280  0.44210  Biso   1.000  C
  C296     1.0000 0.49882  0.80975  0.11024  Biso   1.000  C
  H177     1.0000 0.46500  0.80890  0.08390  Biso   1.000  H
  C297     1.0000 0.62257  0.87694  0.93714  Biso   1.000  C
  H178     1.0000 0.60380  0.85820  0.91520  Biso   1.000  H
  C298     1.0000 0.61835  0.90659  0.91090  Biso   1.000  C
  H179     1.0000 0.59660  0.90780  0.87060  Biso   1.000  H
  C299     1.0000 0.64455  0.93575  0.94019  Biso   1.000  C
  C300     1.0000 0.68297  0.90232  0.02830  Biso   1.000  C
  H180     1.0000 0.70590  0.90060  0.06830  Biso   1.000  H
  O74      1.0000 0.50340  0.96690  0.44610  Biso   1.000  O
  O75      1.0000 0.58170  0.95750  0.47600  Biso   1.000  O
  C301     1.0000 0.45450  0.90060  0.30480  Biso   1.000  C
  H181     1.0000 0.42140  0.89910  0.27500  Biso   1.000  H
  C302     1.0000 0.46940  0.92270  0.35150  Biso   1.000  C
  H182     1.0000 0.44640  0.93440  0.35460  Biso   1.000  H
  C303     1.0000 0.53800  0.88475  0.34910  Biso   1.000  C
  H183     1.0000 0.56140  0.87070  0.35050  Biso   1.000  H
  C304     1.0000 0.55340  0.90867  0.39300  Biso   1.000  C
  H184     1.0000 0.58660  0.91180  0.42140  Biso   1.000  H
  C305     1.0000 0.62278  0.00635  0.77008  Biso   1.000  C
  C306     1.0000 0.65292  0.02783  0.76342  Biso   1.000  C
  H185     1.0000 0.67540  0.04180  0.79400  Biso   1.000  H
  C307     1.0000 0.64943  0.02835  0.71101  Biso   1.000  C
  H186     1.0000 0.66960  0.04270  0.70660  Biso   1.000  H
  C308     1.0000 0.61581  0.00740  0.66525  Biso   1.000  C
  C309     1.0000 0.58567  0.98593  0.67191  Biso   1.000  C
  H187     1.0000 0.56320  0.97190  0.64130  Biso   1.000  H
  C310     1.0000 0.58915  0.98540  0.72432  Biso   1.000  C
  H188     1.0000 0.56900  0.97100  0.72880  Biso   1.000  H
  C311     1.0000 0.65522  0.87387  0.99766  Biso   1.000  C
  C312     1.0000 0.58010  0.80402  0.13010  Biso   1.000  C
  C313     1.0000 0.66108  0.84122  0.02941  Biso   1.000  C
  C314     1.0000 0.52877  0.80297  0.09160  Biso   1.000  C
  H189     1.0000 0.51490  0.79750  0.05260  Biso   1.000  H
  C315     1.0000 0.56941  0.81894  0.20628  Biso   1.000  C
  H190     1.0000 0.58360  0.82360  0.24550  Biso   1.000  H
  C316     1.0000 0.67730  0.93303  0.00097  Biso   1.000  C
  H191     1.0000 0.69520  0.95200  0.02270  Biso   1.000  H
  C317     1.0000 0.59872  0.81279  0.18430  Biso   1.000  C
  H192     1.0000 0.63250  0.81510  0.20940  Biso   1.000  H
  C318     1.0000 0.60790  0.79485  0.10180  Biso   1.000  C
  C319     1.0000 0.47160  0.11890  0.33640  Biso   1.000  C
  C320     1.0000 0.48610  0.09560  0.37910  Biso   1.000  C
  C321     1.0000 0.52040  0.09430  0.30870  Biso   1.000  C
  C322     1.0000 0.53880  0.07140  0.35690  Biso   1.000  C
  H193     1.0000 0.44870  0.13530  0.33020  Biso   1.000  H
  H194     1.0000 0.47100  0.09580  0.39910  Biso   1.000  H
  H195     1.0000 0.52950  0.09220  0.28250  Biso   1.000  H
  H196     1.0000 0.56290  0.05560  0.36490  Biso   1.000  H
  O76      1.0000 0.51250  0.04420  0.46190  Biso   1.000  O
  O77      1.0000 0.42490  0.03090  0.54610  Biso   1.000  O
  Co15     1.0000 0.13636  0.27057  0.03348  Biso   1.000  Co
  Co16     1.0000 0.22186  0.30987  0.15597  Biso   1.000  Co
  O78      1.0000 0.14691  0.47941  0.60812  Biso   1.000  O
  O79      1.0000 0.09426  0.28514  0.05910  Biso   1.000  O
  O80      1.0000 0.13654  0.31543  0.99951  Biso   1.000  O
  O81      1.0000 0.19056  0.34176  0.08295  Biso   1.000  O
  O82      1.0000 0.15699  0.30044  0.14660  Biso   1.000  O
  C323     1.0000 0.98745  0.32465  0.18877  Biso   1.000  C
  O83      1.0000 0.69323  0.25292  0.02401  Biso   1.000  O
  O84      1.0000 0.71325  0.23619  0.11054  Biso   1.000  O
  C324     1.0000 0.72184  0.24673  0.07740  Biso   1.000  C
  C325     1.0000 0.77616  0.26323  0.11160  Biso   1.000  C
  C326     1.0000 0.79129  0.27332  0.07770  Biso   1.000  C
  H197     1.0000 0.77130  0.27020  0.03750  Biso   1.000  H
  C327     1.0000 0.83747  0.28854  0.10339  Biso   1.000  C
  H198     1.0000 0.84820  0.29460  0.07980  Biso   1.000  H
  C328     1.0000 0.86720  0.29485  0.16198  Biso   1.000  C
  C329     1.0000 0.85135  0.28429  0.19750  Biso   1.000  C
  H199     1.0000 0.87090  0.28770  0.23760  Biso   1.000  H
  C330     1.0000 0.80579  0.26859  0.17140  Biso   1.000  C
  H200     1.0000 0.79500  0.26160  0.19440  Biso   1.000  H
  C331     1.0000 0.91418  0.31291  0.18665  Biso   1.000  C
  C332     1.0000 0.92907  0.33709  0.23078  Biso   1.000  C
  H201     1.0000 0.90930  0.34120  0.24430  Biso   1.000  H
  C333     1.0000 0.00121  0.34878  0.23295  Biso   1.000  C
  H202     1.0000 0.03010  0.36100  0.24810  Biso   1.000  H
  C334     1.0000 0.97243  0.35501  0.25495  Biso   1.000  C
  C335     1.0000 0.94350  0.30703  0.16624  Biso   1.000  C
  H203     1.0000 0.93370  0.29100  0.13690  Biso   1.000  H
  C336     1.0000 0.98894  0.38052  0.30236  Biso   1.000  C
  C337     1.0000 0.13914  0.46923  0.91030  Biso   1.000  C
  C338     1.0000 0.13206  0.46945  0.85561  Biso   1.000  C
  H204     1.0000 0.13000  0.44890  0.83750  Biso   1.000  H
  C339     1.0000 0.01816  0.31769  0.16664  Biso   1.000  C
  C340     1.0000 0.01975  0.42711  0.39374  Biso   1.000  C
  C341     1.0000 0.03585  0.45280  0.44210  Biso   1.000  C
  C342     1.0000 0.99882  0.30975  0.11024  Biso   1.000  C
  H205     1.0000 0.96500  0.30890  0.08390  Biso   1.000  H
  C343     1.0000 0.12257  0.37694  0.93714  Biso   1.000  C
  H206     1.0000 0.10380  0.35820  0.91520  Biso   1.000  H
  C344     1.0000 0.11835  0.40659  0.91090  Biso   1.000  C
  H207     1.0000 0.09660  0.40780  0.87060  Biso   1.000  H
  C345     1.0000 0.14455  0.43575  0.94019  Biso   1.000  C
  C346     1.0000 0.18297  0.40232  0.02830  Biso   1.000  C
  H208     1.0000 0.20590  0.40060  0.06830  Biso   1.000  H
  O85      1.0000 0.00340  0.46690  0.44610  Biso   1.000  O
  O86      1.0000 0.08170  0.45750  0.47600  Biso   1.000  O
  C347     1.0000 0.95450  0.40060  0.30480  Biso   1.000  C
  H209     1.0000 0.92140  0.39910  0.27500  Biso   1.000  H
  C348     1.0000 0.96940  0.42270  0.35150  Biso   1.000  C
  H210     1.0000 0.94640  0.43440  0.35460  Biso   1.000  H
  C349     1.0000 0.03800  0.38475  0.34910  Biso   1.000  C
  H211     1.0000 0.06140  0.37070  0.35050  Biso   1.000  H
  C350     1.0000 0.05340  0.40867  0.39300  Biso   1.000  C
  H212     1.0000 0.08660  0.41180  0.42140  Biso   1.000  H
  C351     1.0000 0.12278  0.50635  0.77008  Biso   1.000  C
  C352     1.0000 0.15292  0.52783  0.76342  Biso   1.000  C
  H213     1.0000 0.17540  0.54180  0.79400  Biso   1.000  H
  C353     1.0000 0.14943  0.52835  0.71101  Biso   1.000  C
  H214     1.0000 0.16960  0.54270  0.70660  Biso   1.000  H
  C354     1.0000 0.11581  0.50740  0.66525  Biso   1.000  C
  C355     1.0000 0.08567  0.48593  0.67191  Biso   1.000  C
  H215     1.0000 0.06320  0.47190  0.64130  Biso   1.000  H
  C356     1.0000 0.08915  0.48540  0.72432  Biso   1.000  C
  H216     1.0000 0.06900  0.47100  0.72880  Biso   1.000  H
  C357     1.0000 0.15522  0.37387  0.99766  Biso   1.000  C
  C358     1.0000 0.08010  0.30402  0.13010  Biso   1.000  C
  C359     1.0000 0.16108  0.34122  0.02941  Biso   1.000  C
  C360     1.0000 0.02877  0.30297  0.09160  Biso   1.000  C
  H217     1.0000 0.01490  0.29750  0.05260  Biso   1.000  H
  C361     1.0000 0.06941  0.31894  0.20628  Biso   1.000  C
  H218     1.0000 0.08360  0.32360  0.24550  Biso   1.000  H
  C362     1.0000 0.17730  0.43303  0.00097  Biso   1.000  C
  H219     1.0000 0.19520  0.45200  0.02270  Biso   1.000  H
  C363     1.0000 0.09872  0.31279  0.18430  Biso   1.000  C
  H220     1.0000 0.13250  0.31510  0.20940  Biso   1.000  H
  C364     1.0000 0.10790  0.29485  0.10180  Biso   1.000  C
  C365     1.0000 0.97160  0.61890  0.33640  Biso   1.000  C
  C366     1.0000 0.98610  0.59560  0.37910  Biso   1.000  C
  C367     1.0000 0.02040  0.59430  0.30870  Biso   1.000  C
  C368     1.0000 0.03880  0.57140  0.35690  Biso   1.000  C
  H221     1.0000 0.94870  0.63530  0.33020  Biso   1.000  H
  H222     1.0000 0.97100  0.59580  0.39910  Biso   1.000  H
  H223     1.0000 0.02950  0.59220  0.28250  Biso   1.000  H
  H224     1.0000 0.06290  0.55560  0.36490  Biso   1.000  H
  O87      1.0000 0.01250  0.54420  0.46190  Biso   1.000  O
  O88      1.0000 0.92490  0.53090  0.54610  Biso   1.000  O
  Co17     1.0000 0.50000  0.00000  0.50000  Biso   1.000  Co
  Co18     1.0000 0.00000  0.50000  0.50000  Biso   1.000  Co
  Co19     1.0000 0.61522  0.00000  0.52238  Biso   1.000  Co
  O89      1.0000 0.57753  0.00000  0.56457  Biso   1.000  O
  C369     1.0000 0.64260  0.00000  0.93705  Biso   1.000  C
  H225     1.0000 0.64730  0.00000  0.97350  Biso   1.000  H
  C370     1.0000 0.61165  0.00000  0.60950  Biso   1.000  C
  C371     1.0000 0.62814  0.00000  0.82833  Biso   1.000  C
  Co20     1.0000 0.11522  0.50000  0.52238  Biso   1.000  Co
  O90      1.0000 0.07753  0.50000  0.56457  Biso   1.000  O
  C372     1.0000 0.14260  0.50000  0.93705  Biso   1.000  C
  H226     1.0000 0.14730  0.50000  0.97350  Biso   1.000  H
  C373     1.0000 0.11165  0.50000  0.60950  Biso   1.000  C
  C374     1.0000 0.12814  0.50000  0.82833  Biso   1.000  C
  Co21     1.0000 0.38478  0.00000  0.47762  Biso   1.000  Co
  O91      1.0000 0.42247  0.00000  0.43543  Biso   1.000  O
  C375     1.0000 0.35740  0.00000  0.06295  Biso   1.000  C
  H227     1.0000 0.35270  0.00000  0.02650  Biso   1.000  H
  C376     1.0000 0.38835  0.00000  0.39050  Biso   1.000  C
  C377     1.0000 0.37186  0.00000  0.17167  Biso   1.000  C
  Co22     1.0000 0.88478  0.50000  0.47762  Biso   1.000  Co
  O92      1.0000 0.92247  0.50000  0.43543  Biso   1.000  O
  C378     1.0000 0.85740  0.50000  0.06295  Biso   1.000  C
  H228     1.0000 0.85270  0.50000  0.02650  Biso   1.000  H
  C379     1.0000 0.88835  0.50000  0.39050  Biso   1.000  C
  C380     1.0000 0.87186  0.50000  0.17167  Biso   1.000  C
