data_image0
_cell_length_a       31.1292
_cell_length_b       31.1292
_cell_length_c       12.052
_cell_angle_alpha    90
_cell_angle_beta     90
_cell_angle_gamma    120

_symmetry_space_group_name_H-M    "P 1"
_symmetry_int_tables_number       1

loop_
  _symmetry_equiv_pos_as_xyz
  'x, y, z'

loop_
  _atom_site_label
  _atom_site_occupancy
  _atom_site_fract_x
  _atom_site_fract_y
  _atom_site_fract_z
  _atom_site_thermal_displace_type
  _atom_site_B_iso_or_equiv
  _atom_site_type_symbol
  Tb1      1.0000 0.33288  0.99331  0.70039  Biso   1.000  Tb
  O1       1.0000 0.33800  0.04770  0.54290  Biso   1.000  O
  O2       1.0000 0.27820  0.02860  0.66310  Biso   1.000  O
  O3       1.0000 0.41970  0.03390  0.65010  Biso   1.000  O
  O4       1.0000 0.37370  0.98180  0.51850  Biso   1.000  O
  O5       1.0000 0.26580  0.92990  0.59900  Biso   1.000  O
  O6       1.0000 0.37080  0.07600  0.77360  Biso   1.000  O
  C1       1.0000 0.30620  0.05680  0.58680  Biso   1.000  C
  C2       1.0000 0.41630  0.00830  0.56710  Biso   1.000  C
  C3       1.0000 0.30470  0.10270  0.55560  Biso   1.000  C
  C4       1.0000 0.45910  0.00470  0.52930  Biso   1.000  C
  C5       1.0000 0.34240  0.13740  0.48950  Biso   1.000  C
  C6       1.0000 0.26980  0.11260  0.60050  Biso   1.000  C
  C7       1.0000 0.50720  0.04120  0.55970  Biso   1.000  C
  C8       1.0000 0.45250  0.96370  0.46890  Biso   1.000  C
  H1       1.0000 0.36700  0.13070  0.46170  Biso   1.000  H
  C9       1.0000 0.34450  0.18100  0.46380  Biso   1.000  C
  C10      1.0000 0.27150  0.15810  0.57500  Biso   1.000  C
  H2       1.0000 0.24470  0.08910  0.64800  Biso   1.000  H
  H3       1.0000 0.51220  0.06950  0.60030  Biso   1.000  H
  N1       1.0000 0.40650  0.92380  0.44100  Biso   1.000  N
  H4       1.0000 0.37000  0.20390  0.41620  Biso   1.000  H
  C11      1.0000 0.30920  0.19270  0.50700  Biso   1.000  C
  N2       1.0000 0.23580  0.16900  0.62100  Biso   1.000  N
  H5       1.0000 0.38180  0.92940  0.45300  Biso   1.000  H
  C12      1.0000 0.39180  0.87790  0.40000  Biso   1.000  C
  C13      1.0000 0.31290  0.24120  0.48790  Biso   1.000  C
  H6       1.0000 0.24470  0.20030  0.63260  Biso   1.000  H
  C14      1.0000 0.18810  0.13300  0.64900  Biso   1.000  C
  C15      1.0000 0.33530  0.84130  0.41500  Biso   1.000  C
  O7       1.0000 0.42010  0.86400  0.36600  Biso   1.000  O
  O8       1.0000 0.18690  0.10330  0.72100  Biso   1.000  O
  C16      1.0000 0.17170  0.17130  0.68700  Biso   1.000  C
  H7       1.0000 0.31620  0.84210  0.34850  Biso   1.000  H
  C17      1.0000 0.33110  0.79050  0.42700  Biso   1.000  C
  O9       1.0000 0.31760  0.85360  0.51700  Biso   1.000  O
  O10      1.0000 0.20860  0.20370  0.76700  Biso   1.000  O
  H8       1.0000 0.14380  0.14990  0.73870  Biso   1.000  H
  C18      1.0000 0.14290  0.17560  0.59100  Biso   1.000  C
  H9       1.0000 0.35220  0.79100  0.48620  Biso   1.000  H
  H10      1.0000 0.29750  0.76540  0.44240  Biso   1.000  H
  H11      1.0000 0.34160  0.78330  0.35850  Biso   1.000  H
  H12      1.0000 0.30260  0.86890  0.50070  Biso   1.000  H
  H13      1.0000 0.22620  0.19150  0.78570  Biso   1.000  H
  H14      1.0000 0.10940  0.14660  0.59010  Biso   1.000  H
  H15      1.0000 0.15980  0.17710  0.52140  Biso   1.000  H
  H16      1.0000 0.14070  0.20580  0.59940  Biso   1.000  H
  H17      1.0000 0.57990  0.06110  0.55270  Biso   1.000  H
  Tb2      1.0000 0.99955  0.32664  0.03372  Biso   1.000  Tb
  O11      1.0000 0.00467  0.38103  0.87623  Biso   1.000  O
  O12      1.0000 0.94487  0.36193  0.99643  Biso   1.000  O
  O13      1.0000 0.08637  0.36723  0.98343  Biso   1.000  O
  O14      1.0000 0.04037  0.31513  0.85183  Biso   1.000  O
  O15      1.0000 0.93247  0.26323  0.93233  Biso   1.000  O
  O16      1.0000 0.03747  0.40933  0.10693  Biso   1.000  O
  C19      1.0000 0.97287  0.39013  0.92013  Biso   1.000  C
  C20      1.0000 0.08297  0.34163  0.90043  Biso   1.000  C
  C21      1.0000 0.97137  0.43603  0.88893  Biso   1.000  C
  C22      1.0000 0.12577  0.33803  0.86263  Biso   1.000  C
  C23      1.0000 0.00907  0.47073  0.82283  Biso   1.000  C
  C24      1.0000 0.93647  0.44593  0.93383  Biso   1.000  C
  C25      1.0000 0.17387  0.37453  0.89303  Biso   1.000  C
  C26      1.0000 0.11917  0.29703  0.80223  Biso   1.000  C
  H18      1.0000 0.03367  0.46403  0.79503  Biso   1.000  H
  C27      1.0000 0.01117  0.51433  0.79713  Biso   1.000  C
  C28      1.0000 0.93817  0.49143  0.90833  Biso   1.000  C
  H19      1.0000 0.91137  0.42243  0.98133  Biso   1.000  H
  H20      1.0000 0.17887  0.40283  0.93363  Biso   1.000  H
  N3       1.0000 0.07317  0.25713  0.77433  Biso   1.000  N
  H21      1.0000 0.03667  0.53723  0.74953  Biso   1.000  H
  C29      1.0000 0.97587  0.52603  0.84033  Biso   1.000  C
  N4       1.0000 0.90247  0.50233  0.95433  Biso   1.000  N
  H22      1.0000 0.04847  0.26273  0.78633  Biso   1.000  H
  C30      1.0000 0.05847  0.21123  0.73333  Biso   1.000  C
  C31      1.0000 0.97957  0.57453  0.82123  Biso   1.000  C
  H23      1.0000 0.91137  0.53363  0.96593  Biso   1.000  H
  C32      1.0000 0.85477  0.46633  0.98233  Biso   1.000  C
  C33      1.0000 0.00197  0.17463  0.74833  Biso   1.000  C
  O17      1.0000 0.08677  0.19733  0.69933  Biso   1.000  O
  O18      1.0000 0.85357  0.43663  0.05433  Biso   1.000  O
  C34      1.0000 0.83837  0.50463  0.02033  Biso   1.000  C
  H24      1.0000 0.98287  0.17543  0.68183  Biso   1.000  H
  C35      1.0000 0.99777  0.12383  0.76033  Biso   1.000  C
  O19      1.0000 0.98427  0.18693  0.85033  Biso   1.000  O
  O20      1.0000 0.87527  0.53703  0.10033  Biso   1.000  O
  H25      1.0000 0.81047  0.48323  0.07203  Biso   1.000  H
  C36      1.0000 0.80957  0.50893  0.92433  Biso   1.000  C
  H26      1.0000 0.01887  0.12433  0.81953  Biso   1.000  H
  H27      1.0000 0.96417  0.09873  0.77573  Biso   1.000  H
  H28      1.0000 0.00827  0.11663  0.69183  Biso   1.000  H
  H29      1.0000 0.96927  0.20223  0.83403  Biso   1.000  H
  H30      1.0000 0.89287  0.52483  0.11903  Biso   1.000  H
  H31      1.0000 0.77607  0.47993  0.92343  Biso   1.000  H
  H32      1.0000 0.82647  0.51043  0.85473  Biso   1.000  H
  H33      1.0000 0.80737  0.53913  0.93273  Biso   1.000  H
  H34      1.0000 0.24657  0.39443  0.88603  Biso   1.000  H
  Tb3      1.0000 0.66621  0.65998  0.36706  Biso   1.000  Tb
  O21      1.0000 0.67133  0.71437  0.20957  Biso   1.000  O
  O22      1.0000 0.61153  0.69527  0.32977  Biso   1.000  O
  O23      1.0000 0.75303  0.70057  0.31677  Biso   1.000  O
  O24      1.0000 0.70703  0.64847  0.18517  Biso   1.000  O
  O25      1.0000 0.59913  0.59657  0.26567  Biso   1.000  O
  O26      1.0000 0.70413  0.74267  0.44027  Biso   1.000  O
  C37      1.0000 0.63953  0.72347  0.25347  Biso   1.000  C
  C38      1.0000 0.74963  0.67497  0.23377  Biso   1.000  C
  C39      1.0000 0.63803  0.76937  0.22227  Biso   1.000  C
  C40      1.0000 0.79243  0.67137  0.19597  Biso   1.000  C
  C41      1.0000 0.67573  0.80407  0.15617  Biso   1.000  C
  C42      1.0000 0.60313  0.77927  0.26717  Biso   1.000  C
  C43      1.0000 0.84053  0.70787  0.22637  Biso   1.000  C
  C44      1.0000 0.78583  0.63037  0.13557  Biso   1.000  C
  H35      1.0000 0.70033  0.79737  0.12837  Biso   1.000  H
  C45      1.0000 0.67783  0.84767  0.13047  Biso   1.000  C
  C46      1.0000 0.60483  0.82477  0.24167  Biso   1.000  C
  H36      1.0000 0.57803  0.75577  0.31467  Biso   1.000  H
  H37      1.0000 0.84553  0.73617  0.26697  Biso   1.000  H
  N5       1.0000 0.73983  0.59047  0.10767  Biso   1.000  N
  H38      1.0000 0.70333  0.87057  0.08287  Biso   1.000  H
  C47      1.0000 0.64253  0.85937  0.17367  Biso   1.000  C
  N6       1.0000 0.56913  0.83567  0.28767  Biso   1.000  N
  H39      1.0000 0.71513  0.59607  0.11967  Biso   1.000  H
  C48      1.0000 0.72513  0.54457  0.06667  Biso   1.000  C
  C49      1.0000 0.64623  0.90787  0.15457  Biso   1.000  C
  H40      1.0000 0.57803  0.86697  0.29927  Biso   1.000  H
  C50      1.0000 0.52143  0.79967  0.31567  Biso   1.000  C
  C51      1.0000 0.66863  0.50797  0.08167  Biso   1.000  C
  O27      1.0000 0.75343  0.53067  0.03267  Biso   1.000  O
  O28      1.0000 0.52023  0.76997  0.38767  Biso   1.000  O
  C52      1.0000 0.50503  0.83797  0.35367  Biso   1.000  C
  H41      1.0000 0.64953  0.50877  0.01517  Biso   1.000  H
  C53      1.0000 0.66443  0.45717  0.09367  Biso   1.000  C
  O29      1.0000 0.65093  0.52027  0.18367  Biso   1.000  O
  O30      1.0000 0.54193  0.87037  0.43367  Biso   1.000  O
  H42      1.0000 0.47713  0.81657  0.40537  Biso   1.000  H
  C54      1.0000 0.47623  0.84227  0.25767  Biso   1.000  C
  H43      1.0000 0.68553  0.45767  0.15287  Biso   1.000  H
  H44      1.0000 0.63083  0.43207  0.10907  Biso   1.000  H
  H45      1.0000 0.67493  0.44997  0.02517  Biso   1.000  H
  H46      1.0000 0.63593  0.53557  0.16737  Biso   1.000  H
  H47      1.0000 0.55953  0.85817  0.45237  Biso   1.000  H
  H48      1.0000 0.44273  0.81327  0.25677  Biso   1.000  H
  H49      1.0000 0.49313  0.84377  0.18807  Biso   1.000  H
  H50      1.0000 0.47403  0.87247  0.26607  Biso   1.000  H
  H51      1.0000 0.91323  0.72777  0.21937  Biso   1.000  H
  Tb4      1.0000 0.00669  0.33957  0.70039  Biso   1.000  Tb
  O31      1.0000 0.95230  0.29030  0.54290  Biso   1.000  O
  O32      1.0000 0.97140  0.24960  0.66310  Biso   1.000  O
  O33      1.0000 0.96610  0.38580  0.65010  Biso   1.000  O
  O34      1.0000 0.01820  0.39190  0.51850  Biso   1.000  O
  O35      1.0000 0.07010  0.33590  0.59900  Biso   1.000  O
  O36      1.0000 0.92400  0.29480  0.77360  Biso   1.000  O
  C55      1.0000 0.94320  0.24940  0.58680  Biso   1.000  C
  C56      1.0000 0.99170  0.40800  0.56710  Biso   1.000  C
  C57      1.0000 0.89730  0.20200  0.55560  Biso   1.000  C
  C58      1.0000 0.99530  0.45440  0.52930  Biso   1.000  C
  C59      1.0000 0.86260  0.20500  0.48950  Biso   1.000  C
  C60      1.0000 0.88740  0.15720  0.60050  Biso   1.000  C
  C61      1.0000 0.95880  0.46600  0.55970  Biso   1.000  C
  C62      1.0000 0.03630  0.48880  0.46890  Biso   1.000  C
  H52      1.0000 0.86930  0.23630  0.46170  Biso   1.000  H
  C63      1.0000 0.81900  0.16350  0.46380  Biso   1.000  C
  C64      1.0000 0.84190  0.11340  0.57500  Biso   1.000  C
  H53      1.0000 0.91090  0.15560  0.64800  Biso   1.000  H
  H54      1.0000 0.93050  0.44270  0.60030  Biso   1.000  H
  N7       1.0000 0.07620  0.48270  0.44100  Biso   1.000  N
  H55      1.0000 0.79610  0.16610  0.41620  Biso   1.000  H
  C65      1.0000 0.80730  0.11650  0.50700  Biso   1.000  C
  N8       1.0000 0.83100  0.06680  0.62100  Biso   1.000  N
  H56      1.0000 0.07060  0.45240  0.45300  Biso   1.000  H
  C66      1.0000 0.12210  0.51390  0.40000  Biso   1.000  C
  C67      1.0000 0.75880  0.07170  0.48790  Biso   1.000  C
  H57      1.0000 0.79970  0.04440  0.63260  Biso   1.000  H
  C68      1.0000 0.86700  0.05510  0.64900  Biso   1.000  C
  C69      1.0000 0.15870  0.49400  0.41500  Biso   1.000  C
  O37      1.0000 0.13600  0.55610  0.36600  Biso   1.000  O
  O38      1.0000 0.89670  0.08360  0.72100  Biso   1.000  O
  C70      1.0000 0.82870  0.00040  0.68700  Biso   1.000  C
  H58      1.0000 0.15790  0.47410  0.34850  Biso   1.000  H
  C71      1.0000 0.20950  0.54060  0.42700  Biso   1.000  C
  O39      1.0000 0.14640  0.46400  0.51700  Biso   1.000  O
  O40      1.0000 0.79630  0.00490  0.76700  Biso   1.000  O
  H59      1.0000 0.85010  0.99390  0.73870  Biso   1.000  H
  C72      1.0000 0.82440  0.96730  0.59100  Biso   1.000  C
  H60      1.0000 0.20900  0.56120  0.48620  Biso   1.000  H
  H61      1.0000 0.23460  0.53210  0.44240  Biso   1.000  H
  H62      1.0000 0.21670  0.55830  0.35850  Biso   1.000  H
  H63      1.0000 0.13110  0.43370  0.50070  Biso   1.000  H
  H64      1.0000 0.80850  0.03470  0.78570  Biso   1.000  H
  H65      1.0000 0.85340  0.96280  0.59010  Biso   1.000  H
  H66      1.0000 0.82290  0.98270  0.52140  Biso   1.000  H
  H67      1.0000 0.79420  0.93490  0.59940  Biso   1.000  H
  H68      1.0000 0.93890  0.51880  0.55270  Biso   1.000  H
  Tb5      1.0000 0.67336  0.67290  0.03372  Biso   1.000  Tb
  O41      1.0000 0.61897  0.62363  0.87623  Biso   1.000  O
  O42      1.0000 0.63807  0.58293  0.99643  Biso   1.000  O
  O43      1.0000 0.63277  0.71913  0.98343  Biso   1.000  O
  O44      1.0000 0.68487  0.72523  0.85183  Biso   1.000  O
  O45      1.0000 0.73677  0.66923  0.93233  Biso   1.000  O
  O46      1.0000 0.59067  0.62813  0.10693  Biso   1.000  O
  C73      1.0000 0.60987  0.58273  0.92013  Biso   1.000  C
  C74      1.0000 0.65837  0.74133  0.90043  Biso   1.000  C
  C75      1.0000 0.56397  0.53533  0.88893  Biso   1.000  C
  C76      1.0000 0.66197  0.78773  0.86263  Biso   1.000  C
  C77      1.0000 0.52927  0.53833  0.82283  Biso   1.000  C
  C78      1.0000 0.55407  0.49053  0.93383  Biso   1.000  C
  C79      1.0000 0.62547  0.79933  0.89303  Biso   1.000  C
  C80      1.0000 0.70297  0.82213  0.80223  Biso   1.000  C
  H69      1.0000 0.53597  0.56963  0.79503  Biso   1.000  H
  C81      1.0000 0.48567  0.49683  0.79713  Biso   1.000  C
  C82      1.0000 0.50857  0.44673  0.90833  Biso   1.000  C
  H70      1.0000 0.57757  0.48893  0.98133  Biso   1.000  H
  H71      1.0000 0.59717  0.77603  0.93363  Biso   1.000  H
  N9       1.0000 0.74287  0.81603  0.77433  Biso   1.000  N
  H72      1.0000 0.46277  0.49943  0.74953  Biso   1.000  H
  C83      1.0000 0.47397  0.44983  0.84033  Biso   1.000  C
  N10      1.0000 0.49767  0.40013  0.95433  Biso   1.000  N
  H73      1.0000 0.73727  0.78573  0.78633  Biso   1.000  H
  C84      1.0000 0.78877  0.84723  0.73333  Biso   1.000  C
  C85      1.0000 0.42547  0.40503  0.82123  Biso   1.000  C
  H74      1.0000 0.46637  0.37773  0.96593  Biso   1.000  H
  C86      1.0000 0.53367  0.38843  0.98233  Biso   1.000  C
  C87      1.0000 0.82537  0.82733  0.74833  Biso   1.000  C
  O47      1.0000 0.80267  0.88943  0.69933  Biso   1.000  O
  O48      1.0000 0.56337  0.41693  0.05433  Biso   1.000  O
  C88      1.0000 0.49537  0.33373  0.02033  Biso   1.000  C
  H75      1.0000 0.82457  0.80743  0.68183  Biso   1.000  H
  C89      1.0000 0.87617  0.87393  0.76033  Biso   1.000  C
  O49      1.0000 0.81307  0.79733  0.85033  Biso   1.000  O
  O50      1.0000 0.46297  0.33823  0.10033  Biso   1.000  O
  H76      1.0000 0.51677  0.32723  0.07203  Biso   1.000  H
  C90      1.0000 0.49107  0.30063  0.92433  Biso   1.000  C
  H77      1.0000 0.87567  0.89453  0.81953  Biso   1.000  H
  H78      1.0000 0.90127  0.86543  0.77573  Biso   1.000  H
  H79      1.0000 0.88337  0.89163  0.69183  Biso   1.000  H
  H80      1.0000 0.79777  0.76703  0.83403  Biso   1.000  H
  H81      1.0000 0.47517  0.36803  0.11903  Biso   1.000  H
  H82      1.0000 0.52007  0.29613  0.92343  Biso   1.000  H
  H83      1.0000 0.48957  0.31603  0.85473  Biso   1.000  H
  H84      1.0000 0.46087  0.26823  0.93273  Biso   1.000  H
  H85      1.0000 0.60557  0.85213  0.88603  Biso   1.000  H
  Tb6      1.0000 0.34002  0.00624  0.36706  Biso   1.000  Tb
  O51      1.0000 0.28563  0.95697  0.20957  Biso   1.000  O
  O52      1.0000 0.30473  0.91627  0.32977  Biso   1.000  O
  O53      1.0000 0.29943  0.05247  0.31677  Biso   1.000  O
  O54      1.0000 0.35153  0.05857  0.18517  Biso   1.000  O
  O55      1.0000 0.40343  0.00257  0.26567  Biso   1.000  O
  O56      1.0000 0.25733  0.96147  0.44027  Biso   1.000  O
  C91      1.0000 0.27653  0.91607  0.25347  Biso   1.000  C
  C92      1.0000 0.32503  0.07467  0.23377  Biso   1.000  C
  C93      1.0000 0.23063  0.86867  0.22227  Biso   1.000  C
  C94      1.0000 0.32863  0.12107  0.19597  Biso   1.000  C
  C95      1.0000 0.19593  0.87167  0.15617  Biso   1.000  C
  C96      1.0000 0.22073  0.82387  0.26717  Biso   1.000  C
  C97      1.0000 0.29213  0.13267  0.22637  Biso   1.000  C
  C98      1.0000 0.36963  0.15547  0.13557  Biso   1.000  C
  H86      1.0000 0.20263  0.90297  0.12837  Biso   1.000  H
  C99      1.0000 0.15233  0.83017  0.13047  Biso   1.000  C
  C100     1.0000 0.17523  0.78007  0.24167  Biso   1.000  C
  H87      1.0000 0.24423  0.82227  0.31467  Biso   1.000  H
  H88      1.0000 0.26383  0.10937  0.26697  Biso   1.000  H
  N11      1.0000 0.40953  0.14937  0.10767  Biso   1.000  N
  H89      1.0000 0.12943  0.83277  0.08287  Biso   1.000  H
  C101     1.0000 0.14063  0.78317  0.17367  Biso   1.000  C
  N12      1.0000 0.16433  0.73347  0.28767  Biso   1.000  N
  H90      1.0000 0.40393  0.11907  0.11967  Biso   1.000  H
  C102     1.0000 0.45543  0.18057  0.06667  Biso   1.000  C
  C103     1.0000 0.09213  0.73837  0.15457  Biso   1.000  C
  H91      1.0000 0.13303  0.71107  0.29927  Biso   1.000  H
  C104     1.0000 0.20033  0.72177  0.31567  Biso   1.000  C
  C105     1.0000 0.49203  0.16067  0.08167  Biso   1.000  C
  O57      1.0000 0.46933  0.22277  0.03267  Biso   1.000  O
  O58      1.0000 0.23003  0.75027  0.38767  Biso   1.000  O
  C106     1.0000 0.16203  0.66707  0.35367  Biso   1.000  C
  H92      1.0000 0.49123  0.14077  0.01517  Biso   1.000  H
  C107     1.0000 0.54283  0.20727  0.09367  Biso   1.000  C
  O59      1.0000 0.47973  0.13067  0.18367  Biso   1.000  O
  O60      1.0000 0.12963  0.67157  0.43367  Biso   1.000  O
  H93      1.0000 0.18343  0.66057  0.40537  Biso   1.000  H
  C108     1.0000 0.15773  0.63397  0.25767  Biso   1.000  C
  H94      1.0000 0.54233  0.22787  0.15287  Biso   1.000  H
  H95      1.0000 0.56793  0.19877  0.10907  Biso   1.000  H
  H96      1.0000 0.55003  0.22497  0.02517  Biso   1.000  H
  H97      1.0000 0.46443  0.10037  0.16737  Biso   1.000  H
  H98      1.0000 0.14183  0.70137  0.45237  Biso   1.000  H
  H99      1.0000 0.18673  0.62947  0.25677  Biso   1.000  H
  H100     1.0000 0.15623  0.64937  0.18807  Biso   1.000  H
  H101     1.0000 0.12753  0.60157  0.26607  Biso   1.000  H
  H102     1.0000 0.27223  0.18547  0.21937  Biso   1.000  H
  Tb7      1.0000 0.66043  0.66712  0.70039  Biso   1.000  Tb
  O61      1.0000 0.70970  0.66200  0.54290  Biso   1.000  O
  O62      1.0000 0.75040  0.72180  0.66310  Biso   1.000  O
  O63      1.0000 0.61420  0.58030  0.65010  Biso   1.000  O
  O64      1.0000 0.60810  0.62630  0.51850  Biso   1.000  O
  O65      1.0000 0.66410  0.73420  0.59900  Biso   1.000  O
  O66      1.0000 0.70520  0.62920  0.77360  Biso   1.000  O
  C109     1.0000 0.75060  0.69380  0.58680  Biso   1.000  C
  C110     1.0000 0.59200  0.58370  0.56710  Biso   1.000  C
  C111     1.0000 0.79800  0.69530  0.55560  Biso   1.000  C
  C112     1.0000 0.54560  0.54090  0.52930  Biso   1.000  C
  C113     1.0000 0.79500  0.65760  0.48950  Biso   1.000  C
  C114     1.0000 0.84280  0.73020  0.60050  Biso   1.000  C
  C115     1.0000 0.53400  0.49280  0.55970  Biso   1.000  C
  C116     1.0000 0.51120  0.54750  0.46890  Biso   1.000  C
  H103     1.0000 0.76370  0.63300  0.46170  Biso   1.000  H
  C117     1.0000 0.83650  0.65550  0.46380  Biso   1.000  C
  C118     1.0000 0.88660  0.72850  0.57500  Biso   1.000  C
  H104     1.0000 0.84440  0.75530  0.64800  Biso   1.000  H
  H105     1.0000 0.55730  0.48780  0.60030  Biso   1.000  H
  N13      1.0000 0.51730  0.59350  0.44100  Biso   1.000  N
  H106     1.0000 0.83390  0.63000  0.41620  Biso   1.000  H
  C119     1.0000 0.88350  0.69080  0.50700  Biso   1.000  C
  N14      1.0000 0.93320  0.76420  0.62100  Biso   1.000  N
  H107     1.0000 0.54760  0.61820  0.45300  Biso   1.000  H
  C120     1.0000 0.48610  0.60820  0.40000  Biso   1.000  C
  C121     1.0000 0.92830  0.68710  0.48790  Biso   1.000  C
  H108     1.0000 0.95560  0.75530  0.63260  Biso   1.000  H
  C122     1.0000 0.94490  0.81190  0.64900  Biso   1.000  C
  C123     1.0000 0.50600  0.66470  0.41500  Biso   1.000  C
  O67      1.0000 0.44390  0.57990  0.36600  Biso   1.000  O
  O68      1.0000 0.91640  0.81310  0.72100  Biso   1.000  O
  C124     1.0000 0.99960  0.82830  0.68700  Biso   1.000  C
  H109     1.0000 0.52590  0.68380  0.34850  Biso   1.000  H
  C125     1.0000 0.45940  0.66890  0.42700  Biso   1.000  C
  O69      1.0000 0.53600  0.68240  0.51700  Biso   1.000  O
  O70      1.0000 0.99510  0.79140  0.76700  Biso   1.000  O
  H110     1.0000 0.00610  0.85620  0.73870  Biso   1.000  H
  C126     1.0000 0.03270  0.85710  0.59100  Biso   1.000  C
  H111     1.0000 0.43880  0.64780  0.48620  Biso   1.000  H
  H112     1.0000 0.46790  0.70250  0.44240  Biso   1.000  H
  H113     1.0000 0.44170  0.65840  0.35850  Biso   1.000  H
  H114     1.0000 0.56630  0.69740  0.50070  Biso   1.000  H
  H115     1.0000 0.96530  0.77380  0.78570  Biso   1.000  H
  H116     1.0000 0.03720  0.89060  0.59010  Biso   1.000  H
  H117     1.0000 0.01730  0.84020  0.52140  Biso   1.000  H
  H118     1.0000 0.06510  0.85930  0.59940  Biso   1.000  H
  H119     1.0000 0.48120  0.42010  0.55270  Biso   1.000  H
  Tb8      1.0000 0.32710  0.00045  0.03372  Biso   1.000  Tb
  O71      1.0000 0.37637  0.99533  0.87623  Biso   1.000  O
  O72      1.0000 0.41707  0.05513  0.99643  Biso   1.000  O
  O73      1.0000 0.28087  0.91363  0.98343  Biso   1.000  O
  O74      1.0000 0.27477  0.95963  0.85183  Biso   1.000  O
  O75      1.0000 0.33077  0.06753  0.93233  Biso   1.000  O
  O76      1.0000 0.37187  0.96253  0.10693  Biso   1.000  O
  C127     1.0000 0.41727  0.02713  0.92013  Biso   1.000  C
  C128     1.0000 0.25867  0.91703  0.90043  Biso   1.000  C
  C129     1.0000 0.46467  0.02863  0.88893  Biso   1.000  C
  C130     1.0000 0.21227  0.87423  0.86263  Biso   1.000  C
  C131     1.0000 0.46167  0.99093  0.82283  Biso   1.000  C
  C132     1.0000 0.50947  0.06353  0.93383  Biso   1.000  C
  C133     1.0000 0.20067  0.82613  0.89303  Biso   1.000  C
  C134     1.0000 0.17787  0.88083  0.80223  Biso   1.000  C
  H120     1.0000 0.43037  0.96633  0.79503  Biso   1.000  H
  C135     1.0000 0.50317  0.98883  0.79713  Biso   1.000  C
  C136     1.0000 0.55327  0.06183  0.90833  Biso   1.000  C
  H121     1.0000 0.51107  0.08863  0.98133  Biso   1.000  H
  H122     1.0000 0.22397  0.82113  0.93363  Biso   1.000  H
  N15      1.0000 0.18397  0.92683  0.77433  Biso   1.000  N
  H123     1.0000 0.50057  0.96333  0.74953  Biso   1.000  H
  C137     1.0000 0.55017  0.02413  0.84033  Biso   1.000  C
  N16      1.0000 0.59987  0.09753  0.95433  Biso   1.000  N
  H124     1.0000 0.21427  0.95153  0.78633  Biso   1.000  H
  C138     1.0000 0.15277  0.94153  0.73333  Biso   1.000  C
  C139     1.0000 0.59497  0.02043  0.82123  Biso   1.000  C
  H125     1.0000 0.62227  0.08863  0.96593  Biso   1.000  H
  C140     1.0000 0.61157  0.14523  0.98233  Biso   1.000  C
  C141     1.0000 0.17267  0.99803  0.74833  Biso   1.000  C
  O77      1.0000 0.11057  0.91323  0.69933  Biso   1.000  O
  O78      1.0000 0.58307  0.14643  0.05433  Biso   1.000  O
  C142     1.0000 0.66627  0.16163  0.02033  Biso   1.000  C
  H126     1.0000 0.19257  0.01713  0.68183  Biso   1.000  H
  C143     1.0000 0.12607  0.00223  0.76033  Biso   1.000  C
  O79      1.0000 0.20267  0.01573  0.85033  Biso   1.000  O
  O80      1.0000 0.66177  0.12473  0.10033  Biso   1.000  O
  H127     1.0000 0.67277  0.18953  0.07203  Biso   1.000  H
  C144     1.0000 0.69937  0.19043  0.92433  Biso   1.000  C
  H128     1.0000 0.10547  0.98113  0.81953  Biso   1.000  H
  H129     1.0000 0.13457  0.03583  0.77573  Biso   1.000  H
  H130     1.0000 0.10837  0.99173  0.69183  Biso   1.000  H
  H131     1.0000 0.23297  0.03073  0.83403  Biso   1.000  H
  H132     1.0000 0.63197  0.10713  0.11903  Biso   1.000  H
  H133     1.0000 0.70387  0.22393  0.92343  Biso   1.000  H
  H134     1.0000 0.68397  0.17353  0.85473  Biso   1.000  H
  H135     1.0000 0.73177  0.19263  0.93273  Biso   1.000  H
  H136     1.0000 0.14787  0.75343  0.88603  Biso   1.000  H
  Tb9      1.0000 0.99376  0.33379  0.36706  Biso   1.000  Tb
  O81      1.0000 0.04303  0.32867  0.20957  Biso   1.000  O
  O82      1.0000 0.08373  0.38847  0.32977  Biso   1.000  O
  O83      1.0000 0.94753  0.24697  0.31677  Biso   1.000  O
  O84      1.0000 0.94143  0.29297  0.18517  Biso   1.000  O
  O85      1.0000 0.99743  0.40087  0.26567  Biso   1.000  O
  O86      1.0000 0.03853  0.29587  0.44027  Biso   1.000  O
  C145     1.0000 0.08393  0.36047  0.25347  Biso   1.000  C
  C146     1.0000 0.92533  0.25037  0.23377  Biso   1.000  C
  C147     1.0000 0.13133  0.36197  0.22227  Biso   1.000  C
  C148     1.0000 0.87893  0.20757  0.19597  Biso   1.000  C
  C149     1.0000 0.12833  0.32427  0.15617  Biso   1.000  C
  C150     1.0000 0.17613  0.39687  0.26717  Biso   1.000  C
  C151     1.0000 0.86733  0.15947  0.22637  Biso   1.000  C
  C152     1.0000 0.84453  0.21417  0.13557  Biso   1.000  C
  H137     1.0000 0.09703  0.29967  0.12837  Biso   1.000  H
  C153     1.0000 0.16983  0.32217  0.13047  Biso   1.000  C
  C154     1.0000 0.21993  0.39517  0.24167  Biso   1.000  C
  H138     1.0000 0.17773  0.42197  0.31467  Biso   1.000  H
  H139     1.0000 0.89063  0.15447  0.26697  Biso   1.000  H
  N17      1.0000 0.85063  0.26017  0.10767  Biso   1.000  N
  H140     1.0000 0.16723  0.29667  0.08287  Biso   1.000  H
  C155     1.0000 0.21683  0.35747  0.17367  Biso   1.000  C
  N18      1.0000 0.26653  0.43087  0.28767  Biso   1.000  N
  H141     1.0000 0.88093  0.28487  0.11967  Biso   1.000  H
  C156     1.0000 0.81943  0.27487  0.06667  Biso   1.000  C
  C157     1.0000 0.26163  0.35377  0.15457  Biso   1.000  C
  H142     1.0000 0.28893  0.42197  0.29927  Biso   1.000  H
  C158     1.0000 0.27823  0.47857  0.31567  Biso   1.000  C
  C159     1.0000 0.83933  0.33137  0.08167  Biso   1.000  C
  O87      1.0000 0.77723  0.24657  0.03267  Biso   1.000  O
  O88      1.0000 0.24973  0.47977  0.38767  Biso   1.000  O
  C160     1.0000 0.33293  0.49497  0.35367  Biso   1.000  C
  H143     1.0000 0.85923  0.35047  0.01517  Biso   1.000  H
  C161     1.0000 0.79273  0.33557  0.09367  Biso   1.000  C
  O89      1.0000 0.86933  0.34907  0.18367  Biso   1.000  O
  O90      1.0000 0.32843  0.45807  0.43367  Biso   1.000  O
  H144     1.0000 0.33943  0.52287  0.40537  Biso   1.000  H
  C162     1.0000 0.36603  0.52377  0.25767  Biso   1.000  C
  H145     1.0000 0.77213  0.31447  0.15287  Biso   1.000  H
  H146     1.0000 0.80123  0.36917  0.10907  Biso   1.000  H
  H147     1.0000 0.77503  0.32507  0.02517  Biso   1.000  H
  H148     1.0000 0.89963  0.36407  0.16737  Biso   1.000  H
  H149     1.0000 0.29863  0.44047  0.45237  Biso   1.000  H
  H150     1.0000 0.37053  0.55727  0.25677  Biso   1.000  H
  H151     1.0000 0.35063  0.50687  0.18807  Biso   1.000  H
  H152     1.0000 0.39843  0.52597  0.26607  Biso   1.000  H
  H153     1.0000 0.81453  0.08677  0.21937  Biso   1.000  H
  Tb10     1.0000 0.66712  0.00669  0.29961  Biso   1.000  Tb
  O91      1.0000 0.66200  0.95230  0.45710  Biso   1.000  O
  O92      1.0000 0.72180  0.97140  0.33690  Biso   1.000  O
  O93      1.0000 0.58030  0.96610  0.34990  Biso   1.000  O
  O94      1.0000 0.62630  0.01820  0.48150  Biso   1.000  O
  O95      1.0000 0.73420  0.07010  0.40100  Biso   1.000  O
  O96      1.0000 0.62920  0.92400  0.22640  Biso   1.000  O
  C163     1.0000 0.69380  0.94320  0.41320  Biso   1.000  C
  C164     1.0000 0.58370  0.99170  0.43290  Biso   1.000  C
  C165     1.0000 0.69530  0.89730  0.44440  Biso   1.000  C
  C166     1.0000 0.54090  0.99530  0.47070  Biso   1.000  C
  C167     1.0000 0.65760  0.86260  0.51050  Biso   1.000  C
  C168     1.0000 0.73020  0.88740  0.39950  Biso   1.000  C
  C169     1.0000 0.49280  0.95880  0.44030  Biso   1.000  C
  C170     1.0000 0.54750  0.03630  0.53110  Biso   1.000  C
  H154     1.0000 0.63300  0.86930  0.53830  Biso   1.000  H
  C171     1.0000 0.65550  0.81900  0.53620  Biso   1.000  C
  C172     1.0000 0.72850  0.84190  0.42500  Biso   1.000  C
  H155     1.0000 0.75530  0.91090  0.35200  Biso   1.000  H
  H156     1.0000 0.48780  0.93050  0.39970  Biso   1.000  H
  N19      1.0000 0.59350  0.07620  0.55900  Biso   1.000  N
  H157     1.0000 0.63000  0.79610  0.58380  Biso   1.000  H
  C173     1.0000 0.69080  0.80730  0.49300  Biso   1.000  C
  N20      1.0000 0.76420  0.83100  0.37900  Biso   1.000  N
  H158     1.0000 0.61820  0.07060  0.54700  Biso   1.000  H
  C174     1.0000 0.60820  0.12210  0.60000  Biso   1.000  C
  C175     1.0000 0.68710  0.75880  0.51210  Biso   1.000  C
  H159     1.0000 0.75530  0.79970  0.36740  Biso   1.000  H
  C176     1.0000 0.81190  0.86700  0.35100  Biso   1.000  C
  C177     1.0000 0.66470  0.15870  0.58500  Biso   1.000  C
  O97      1.0000 0.57990  0.13600  0.63400  Biso   1.000  O
  O98      1.0000 0.81310  0.89670  0.27900  Biso   1.000  O
  C178     1.0000 0.82830  0.82870  0.31300  Biso   1.000  C
  H160     1.0000 0.68380  0.15790  0.65150  Biso   1.000  H
  C179     1.0000 0.66890  0.20950  0.57300  Biso   1.000  C
  O99      1.0000 0.68240  0.14640  0.48300  Biso   1.000  O
  O100     1.0000 0.79140  0.79630  0.23300  Biso   1.000  O
  H161     1.0000 0.85620  0.85010  0.26130  Biso   1.000  H
  C180     1.0000 0.85710  0.82440  0.40900  Biso   1.000  C
  H162     1.0000 0.64780  0.20900  0.51380  Biso   1.000  H
  H163     1.0000 0.70250  0.23460  0.55760  Biso   1.000  H
  H164     1.0000 0.65840  0.21670  0.64150  Biso   1.000  H
  H165     1.0000 0.69740  0.13110  0.49930  Biso   1.000  H
  H166     1.0000 0.77380  0.80850  0.21430  Biso   1.000  H
  H167     1.0000 0.89060  0.85340  0.40990  Biso   1.000  H
  H168     1.0000 0.84020  0.82290  0.47860  Biso   1.000  H
  H169     1.0000 0.85930  0.79420  0.40060  Biso   1.000  H
  H170     1.0000 0.42010  0.93890  0.44730  Biso   1.000  H
  Tb11     1.0000 0.33379  0.34002  0.63294  Biso   1.000  Tb
  O101     1.0000 0.32867  0.28563  0.79043  Biso   1.000  O
  O102     1.0000 0.38847  0.30473  0.67023  Biso   1.000  O
  O103     1.0000 0.24697  0.29943  0.68323  Biso   1.000  O
  O104     1.0000 0.29297  0.35153  0.81483  Biso   1.000  O
  O105     1.0000 0.40087  0.40343  0.73433  Biso   1.000  O
  O106     1.0000 0.29587  0.25733  0.55973  Biso   1.000  O
  C181     1.0000 0.36047  0.27653  0.74653  Biso   1.000  C
  C182     1.0000 0.25037  0.32503  0.76623  Biso   1.000  C
  C183     1.0000 0.36197  0.23063  0.77773  Biso   1.000  C
  C184     1.0000 0.20757  0.32863  0.80403  Biso   1.000  C
  C185     1.0000 0.32427  0.19593  0.84383  Biso   1.000  C
  C186     1.0000 0.39687  0.22073  0.73283  Biso   1.000  C
  C187     1.0000 0.15947  0.29213  0.77363  Biso   1.000  C
  C188     1.0000 0.21417  0.36963  0.86443  Biso   1.000  C
  H171     1.0000 0.29967  0.20263  0.87163  Biso   1.000  H
  C189     1.0000 0.32217  0.15233  0.86953  Biso   1.000  C
  C190     1.0000 0.39517  0.17523  0.75833  Biso   1.000  C
  H172     1.0000 0.42197  0.24423  0.68533  Biso   1.000  H
  H173     1.0000 0.15447  0.26383  0.73303  Biso   1.000  H
  N21      1.0000 0.26017  0.40953  0.89233  Biso   1.000  N
  H174     1.0000 0.29667  0.12943  0.91713  Biso   1.000  H
  C191     1.0000 0.35747  0.14063  0.82633  Biso   1.000  C
  N22      1.0000 0.43087  0.16433  0.71233  Biso   1.000  N
  H175     1.0000 0.28487  0.40393  0.88033  Biso   1.000  H
  C192     1.0000 0.27487  0.45543  0.93333  Biso   1.000  C
  C193     1.0000 0.35377  0.09213  0.84543  Biso   1.000  C
  H176     1.0000 0.42197  0.13303  0.70073  Biso   1.000  H
  C194     1.0000 0.47857  0.20033  0.68433  Biso   1.000  C
  C195     1.0000 0.33137  0.49203  0.91833  Biso   1.000  C
  O107     1.0000 0.24657  0.46933  0.96733  Biso   1.000  O
  O108     1.0000 0.47977  0.23003  0.61233  Biso   1.000  O
  C196     1.0000 0.49497  0.16203  0.64633  Biso   1.000  C
  H177     1.0000 0.35047  0.49123  0.98483  Biso   1.000  H
  C197     1.0000 0.33557  0.54283  0.90633  Biso   1.000  C
  O109     1.0000 0.34907  0.47973  0.81633  Biso   1.000  O
  O110     1.0000 0.45807  0.12963  0.56633  Biso   1.000  O
  H178     1.0000 0.52287  0.18343  0.59463  Biso   1.000  H
  C198     1.0000 0.52377  0.15773  0.74233  Biso   1.000  C
  H179     1.0000 0.31447  0.54233  0.84713  Biso   1.000  H
  H180     1.0000 0.36917  0.56793  0.89093  Biso   1.000  H
  H181     1.0000 0.32507  0.55003  0.97483  Biso   1.000  H
  H182     1.0000 0.36407  0.46443  0.83263  Biso   1.000  H
  H183     1.0000 0.44047  0.14183  0.54763  Biso   1.000  H
  H184     1.0000 0.55727  0.18673  0.74323  Biso   1.000  H
  H185     1.0000 0.50687  0.15623  0.81193  Biso   1.000  H
  H186     1.0000 0.52597  0.12753  0.73393  Biso   1.000  H
  H187     1.0000 0.08677  0.27223  0.78063  Biso   1.000  H
  Tb12     1.0000 0.00045  0.67336  0.96628  Biso   1.000  Tb
  O111     1.0000 0.99533  0.61897  0.12377  Biso   1.000  O
  O112     1.0000 0.05513  0.63807  0.00357  Biso   1.000  O
  O113     1.0000 0.91363  0.63277  0.01657  Biso   1.000  O
  O114     1.0000 0.95963  0.68487  0.14817  Biso   1.000  O
  O115     1.0000 0.06753  0.73677  0.06767  Biso   1.000  O
  O116     1.0000 0.96253  0.59067  0.89307  Biso   1.000  O
  C199     1.0000 0.02713  0.60987  0.07987  Biso   1.000  C
  C200     1.0000 0.91703  0.65837  0.09957  Biso   1.000  C
  C201     1.0000 0.02863  0.56397  0.11107  Biso   1.000  C
  C202     1.0000 0.87423  0.66197  0.13737  Biso   1.000  C
  C203     1.0000 0.99093  0.52927  0.17717  Biso   1.000  C
  C204     1.0000 0.06353  0.55407  0.06617  Biso   1.000  C
  C205     1.0000 0.82613  0.62547  0.10697  Biso   1.000  C
  C206     1.0000 0.88083  0.70297  0.19777  Biso   1.000  C
  H188     1.0000 0.96633  0.53597  0.20497  Biso   1.000  H
  C207     1.0000 0.98883  0.48567  0.20287  Biso   1.000  C
  C208     1.0000 0.06183  0.50857  0.09167  Biso   1.000  C
  H189     1.0000 0.08863  0.57757  0.01867  Biso   1.000  H
  H190     1.0000 0.82113  0.59717  0.06637  Biso   1.000  H
  N23      1.0000 0.92683  0.74287  0.22567  Biso   1.000  N
  H191     1.0000 0.96333  0.46277  0.25047  Biso   1.000  H
  C209     1.0000 0.02413  0.47397  0.15967  Biso   1.000  C
  N24      1.0000 0.09753  0.49767  0.04567  Biso   1.000  N
  H192     1.0000 0.95153  0.73727  0.21367  Biso   1.000  H
  C210     1.0000 0.94153  0.78877  0.26667  Biso   1.000  C
  C211     1.0000 0.02043  0.42547  0.17877  Biso   1.000  C
  H193     1.0000 0.08863  0.46637  0.03407  Biso   1.000  H
  C212     1.0000 0.14523  0.53367  0.01767  Biso   1.000  C
  C213     1.0000 0.99803  0.82537  0.25167  Biso   1.000  C
  O117     1.0000 0.91323  0.80267  0.30067  Biso   1.000  O
  O118     1.0000 0.14643  0.56337  0.94567  Biso   1.000  O
  C214     1.0000 0.16163  0.49537  0.97967  Biso   1.000  C
  H194     1.0000 0.01713  0.82457  0.31817  Biso   1.000  H
  C215     1.0000 0.00223  0.87617  0.23967  Biso   1.000  C
  O119     1.0000 0.01573  0.81307  0.14967  Biso   1.000  O
  O120     1.0000 0.12473  0.46297  0.89967  Biso   1.000  O
  H195     1.0000 0.18953  0.51677  0.92797  Biso   1.000  H
  C216     1.0000 0.19043  0.49107  0.07567  Biso   1.000  C
  H196     1.0000 0.98113  0.87567  0.18047  Biso   1.000  H
  H197     1.0000 0.03583  0.90127  0.22427  Biso   1.000  H
  H198     1.0000 0.99173  0.88337  0.30817  Biso   1.000  H
  H199     1.0000 0.03073  0.79777  0.16597  Biso   1.000  H
  H200     1.0000 0.10713  0.47517  0.88097  Biso   1.000  H
  H201     1.0000 0.22393  0.52007  0.07657  Biso   1.000  H
  H202     1.0000 0.17353  0.48957  0.14527  Biso   1.000  H
  H203     1.0000 0.19263  0.46087  0.06727  Biso   1.000  H
  H204     1.0000 0.75343  0.60557  0.11397  Biso   1.000  H
  Tb13     1.0000 0.99331  0.66043  0.29961  Biso   1.000  Tb
  O121     1.0000 0.04770  0.70970  0.45710  Biso   1.000  O
  O122     1.0000 0.02860  0.75040  0.33690  Biso   1.000  O
  O123     1.0000 0.03390  0.61420  0.34990  Biso   1.000  O
  O124     1.0000 0.98180  0.60810  0.48150  Biso   1.000  O
  O125     1.0000 0.92990  0.66410  0.40100  Biso   1.000  O
  O126     1.0000 0.07600  0.70520  0.22640  Biso   1.000  O
  C217     1.0000 0.05680  0.75060  0.41320  Biso   1.000  C
  C218     1.0000 0.00830  0.59200  0.43290  Biso   1.000  C
  C219     1.0000 0.10270  0.79800  0.44440  Biso   1.000  C
  C220     1.0000 0.00470  0.54560  0.47070  Biso   1.000  C
  C221     1.0000 0.13740  0.79500  0.51050  Biso   1.000  C
  C222     1.0000 0.11260  0.84280  0.39950  Biso   1.000  C
  C223     1.0000 0.04120  0.53400  0.44030  Biso   1.000  C
  C224     1.0000 0.96370  0.51120  0.53110  Biso   1.000  C
  H205     1.0000 0.13070  0.76370  0.53830  Biso   1.000  H
  C225     1.0000 0.18100  0.83650  0.53620  Biso   1.000  C
  C226     1.0000 0.15810  0.88660  0.42500  Biso   1.000  C
  H206     1.0000 0.08910  0.84440  0.35200  Biso   1.000  H
  H207     1.0000 0.06950  0.55730  0.39970  Biso   1.000  H
  N25      1.0000 0.92380  0.51730  0.55900  Biso   1.000  N
  H208     1.0000 0.20390  0.83390  0.58380  Biso   1.000  H
  C227     1.0000 0.19270  0.88350  0.49300  Biso   1.000  C
  N26      1.0000 0.16900  0.93320  0.37900  Biso   1.000  N
  H209     1.0000 0.92940  0.54760  0.54700  Biso   1.000  H
  C228     1.0000 0.87790  0.48610  0.60000  Biso   1.000  C
  C229     1.0000 0.24120  0.92830  0.51210  Biso   1.000  C
  H210     1.0000 0.20030  0.95560  0.36740  Biso   1.000  H
  C230     1.0000 0.13300  0.94490  0.35100  Biso   1.000  C
  C231     1.0000 0.84130  0.50600  0.58500  Biso   1.000  C
  O127     1.0000 0.86400  0.44390  0.63400  Biso   1.000  O
  O128     1.0000 0.10330  0.91640  0.27900  Biso   1.000  O
  C232     1.0000 0.17130  0.99960  0.31300  Biso   1.000  C
  H211     1.0000 0.84210  0.52590  0.65150  Biso   1.000  H
  C233     1.0000 0.79050  0.45940  0.57300  Biso   1.000  C
  O129     1.0000 0.85360  0.53600  0.48300  Biso   1.000  O
  O130     1.0000 0.20370  0.99510  0.23300  Biso   1.000  O
  H212     1.0000 0.14990  0.00610  0.26130  Biso   1.000  H
  C234     1.0000 0.17560  0.03270  0.40900  Biso   1.000  C
  H213     1.0000 0.79100  0.43880  0.51380  Biso   1.000  H
  H214     1.0000 0.76540  0.46790  0.55760  Biso   1.000  H
  H215     1.0000 0.78330  0.44170  0.64150  Biso   1.000  H
  H216     1.0000 0.86890  0.56630  0.49930  Biso   1.000  H
  H217     1.0000 0.19150  0.96530  0.21430  Biso   1.000  H
  H218     1.0000 0.14660  0.03720  0.40990  Biso   1.000  H
  H219     1.0000 0.17710  0.01730  0.47860  Biso   1.000  H
  H220     1.0000 0.20580  0.06510  0.40060  Biso   1.000  H
  H221     1.0000 0.06110  0.48120  0.44730  Biso   1.000  H
  Tb14     1.0000 0.65998  0.99376  0.63294  Biso   1.000  Tb
  O131     1.0000 0.71437  0.04303  0.79043  Biso   1.000  O
  O132     1.0000 0.69527  0.08373  0.67023  Biso   1.000  O
  O133     1.0000 0.70057  0.94753  0.68323  Biso   1.000  O
  O134     1.0000 0.64847  0.94143  0.81483  Biso   1.000  O
  O135     1.0000 0.59657  0.99743  0.73433  Biso   1.000  O
  O136     1.0000 0.74267  0.03853  0.55973  Biso   1.000  O
  C235     1.0000 0.72347  0.08393  0.74653  Biso   1.000  C
  C236     1.0000 0.67497  0.92533  0.76623  Biso   1.000  C
  C237     1.0000 0.76937  0.13133  0.77773  Biso   1.000  C
  C238     1.0000 0.67137  0.87893  0.80403  Biso   1.000  C
  C239     1.0000 0.80407  0.12833  0.84383  Biso   1.000  C
  C240     1.0000 0.77927  0.17613  0.73283  Biso   1.000  C
  C241     1.0000 0.70787  0.86733  0.77363  Biso   1.000  C
  C242     1.0000 0.63037  0.84453  0.86443  Biso   1.000  C
  H222     1.0000 0.79737  0.09703  0.87163  Biso   1.000  H
  C243     1.0000 0.84767  0.16983  0.86953  Biso   1.000  C
  C244     1.0000 0.82477  0.21993  0.75833  Biso   1.000  C
  H223     1.0000 0.75577  0.17773  0.68533  Biso   1.000  H
  H224     1.0000 0.73617  0.89063  0.73303  Biso   1.000  H
  N27      1.0000 0.59047  0.85063  0.89233  Biso   1.000  N
  H225     1.0000 0.87057  0.16723  0.91713  Biso   1.000  H
  C245     1.0000 0.85937  0.21683  0.82633  Biso   1.000  C
  N28      1.0000 0.83567  0.26653  0.71233  Biso   1.000  N
  H226     1.0000 0.59607  0.88093  0.88033  Biso   1.000  H
  C246     1.0000 0.54457  0.81943  0.93333  Biso   1.000  C
  C247     1.0000 0.90787  0.26163  0.84543  Biso   1.000  C
  H227     1.0000 0.86697  0.28893  0.70073  Biso   1.000  H
  C248     1.0000 0.79967  0.27823  0.68433  Biso   1.000  C
  C249     1.0000 0.50797  0.83933  0.91833  Biso   1.000  C
  O137     1.0000 0.53067  0.77723  0.96733  Biso   1.000  O
  O138     1.0000 0.76997  0.24973  0.61233  Biso   1.000  O
  C250     1.0000 0.83797  0.33293  0.64633  Biso   1.000  C
  H228     1.0000 0.50877  0.85923  0.98483  Biso   1.000  H
  C251     1.0000 0.45717  0.79273  0.90633  Biso   1.000  C
  O139     1.0000 0.52027  0.86933  0.81633  Biso   1.000  O
  O140     1.0000 0.87037  0.32843  0.56633  Biso   1.000  O
  H229     1.0000 0.81657  0.33943  0.59463  Biso   1.000  H
  C252     1.0000 0.84227  0.36603  0.74233  Biso   1.000  C
  H230     1.0000 0.45767  0.77213  0.84713  Biso   1.000  H
  H231     1.0000 0.43207  0.80123  0.89093  Biso   1.000  H
  H232     1.0000 0.44997  0.77503  0.97483  Biso   1.000  H
  H233     1.0000 0.53557  0.89963  0.83263  Biso   1.000  H
  H234     1.0000 0.85817  0.29863  0.54763  Biso   1.000  H
  H235     1.0000 0.81327  0.37053  0.74323  Biso   1.000  H
  H236     1.0000 0.84377  0.35063  0.81193  Biso   1.000  H
  H237     1.0000 0.87247  0.39843  0.73393  Biso   1.000  H
  H238     1.0000 0.72777  0.81453  0.78063  Biso   1.000  H
  Tb15     1.0000 0.32664  0.32710  0.96628  Biso   1.000  Tb
  O141     1.0000 0.38103  0.37637  0.12377  Biso   1.000  O
  O142     1.0000 0.36193  0.41707  0.00357  Biso   1.000  O
  O143     1.0000 0.36723  0.28087  0.01657  Biso   1.000  O
  O144     1.0000 0.31513  0.27477  0.14817  Biso   1.000  O
  O145     1.0000 0.26323  0.33077  0.06767  Biso   1.000  O
  O146     1.0000 0.40933  0.37187  0.89307  Biso   1.000  O
  C253     1.0000 0.39013  0.41727  0.07987  Biso   1.000  C
  C254     1.0000 0.34163  0.25867  0.09957  Biso   1.000  C
  C255     1.0000 0.43603  0.46467  0.11107  Biso   1.000  C
  C256     1.0000 0.33803  0.21227  0.13737  Biso   1.000  C
  C257     1.0000 0.47073  0.46167  0.17717  Biso   1.000  C
  C258     1.0000 0.44593  0.50947  0.06617  Biso   1.000  C
  C259     1.0000 0.37453  0.20067  0.10697  Biso   1.000  C
  C260     1.0000 0.29703  0.17787  0.19777  Biso   1.000  C
  H239     1.0000 0.46403  0.43037  0.20497  Biso   1.000  H
  C261     1.0000 0.51433  0.50317  0.20287  Biso   1.000  C
  C262     1.0000 0.49143  0.55327  0.09167  Biso   1.000  C
  H240     1.0000 0.42243  0.51107  0.01867  Biso   1.000  H
  H241     1.0000 0.40283  0.22397  0.06637  Biso   1.000  H
  N29      1.0000 0.25713  0.18397  0.22567  Biso   1.000  N
  H242     1.0000 0.53723  0.50057  0.25047  Biso   1.000  H
  C263     1.0000 0.52603  0.55017  0.15967  Biso   1.000  C
  N30      1.0000 0.50233  0.59987  0.04567  Biso   1.000  N
  H243     1.0000 0.26273  0.21427  0.21367  Biso   1.000  H
  C264     1.0000 0.21123  0.15277  0.26667  Biso   1.000  C
  C265     1.0000 0.57453  0.59497  0.17877  Biso   1.000  C
  H244     1.0000 0.53363  0.62227  0.03407  Biso   1.000  H
  C266     1.0000 0.46633  0.61157  0.01767  Biso   1.000  C
  C267     1.0000 0.17463  0.17267  0.25167  Biso   1.000  C
  O147     1.0000 0.19733  0.11057  0.30067  Biso   1.000  O
  O148     1.0000 0.43663  0.58307  0.94567  Biso   1.000  O
  C268     1.0000 0.50463  0.66627  0.97967  Biso   1.000  C
  H245     1.0000 0.17543  0.19257  0.31817  Biso   1.000  H
  C269     1.0000 0.12383  0.12607  0.23967  Biso   1.000  C
  O149     1.0000 0.18693  0.20267  0.14967  Biso   1.000  O
  O150     1.0000 0.53703  0.66177  0.89967  Biso   1.000  O
  H246     1.0000 0.48323  0.67277  0.92797  Biso   1.000  H
  C270     1.0000 0.50893  0.69937  0.07567  Biso   1.000  C
  H247     1.0000 0.12433  0.10547  0.18047  Biso   1.000  H
  H248     1.0000 0.09873  0.13457  0.22427  Biso   1.000  H
  H249     1.0000 0.11663  0.10837  0.30817  Biso   1.000  H
  H250     1.0000 0.20223  0.23297  0.16597  Biso   1.000  H
  H251     1.0000 0.52483  0.63197  0.88097  Biso   1.000  H
  H252     1.0000 0.47993  0.70387  0.07657  Biso   1.000  H
  H253     1.0000 0.51043  0.68397  0.14527  Biso   1.000  H
  H254     1.0000 0.53913  0.73177  0.06727  Biso   1.000  H
  H255     1.0000 0.39443  0.14787  0.11397  Biso   1.000  H
  Tb16     1.0000 0.33957  0.33288  0.29961  Biso   1.000  Tb
  O151     1.0000 0.29030  0.33800  0.45710  Biso   1.000  O
  O152     1.0000 0.24960  0.27820  0.33690  Biso   1.000  O
  O153     1.0000 0.38580  0.41970  0.34990  Biso   1.000  O
  O154     1.0000 0.39190  0.37370  0.48150  Biso   1.000  O
  O155     1.0000 0.33590  0.26580  0.40100  Biso   1.000  O
  O156     1.0000 0.29480  0.37080  0.22640  Biso   1.000  O
  C271     1.0000 0.24940  0.30620  0.41320  Biso   1.000  C
  C272     1.0000 0.40800  0.41630  0.43290  Biso   1.000  C
  C273     1.0000 0.20200  0.30470  0.44440  Biso   1.000  C
  C274     1.0000 0.45440  0.45910  0.47070  Biso   1.000  C
  C275     1.0000 0.20500  0.34240  0.51050  Biso   1.000  C
  C276     1.0000 0.15720  0.26980  0.39950  Biso   1.000  C
  C277     1.0000 0.46600  0.50720  0.44030  Biso   1.000  C
  C278     1.0000 0.48880  0.45250  0.53110  Biso   1.000  C
  H256     1.0000 0.23630  0.36700  0.53830  Biso   1.000  H
  C279     1.0000 0.16350  0.34450  0.53620  Biso   1.000  C
  C280     1.0000 0.11340  0.27150  0.42500  Biso   1.000  C
  H257     1.0000 0.15560  0.24470  0.35200  Biso   1.000  H
  H258     1.0000 0.44270  0.51220  0.39970  Biso   1.000  H
  N31      1.0000 0.48270  0.40650  0.55900  Biso   1.000  N
  H259     1.0000 0.16610  0.37000  0.58380  Biso   1.000  H
  C281     1.0000 0.11650  0.30920  0.49300  Biso   1.000  C
  N32      1.0000 0.06680  0.23580  0.37900  Biso   1.000  N
  H260     1.0000 0.45240  0.38180  0.54700  Biso   1.000  H
  C282     1.0000 0.51390  0.39180  0.60000  Biso   1.000  C
  C283     1.0000 0.07170  0.31290  0.51210  Biso   1.000  C
  H261     1.0000 0.04440  0.24470  0.36740  Biso   1.000  H
  C284     1.0000 0.05510  0.18810  0.35100  Biso   1.000  C
  C285     1.0000 0.49400  0.33530  0.58500  Biso   1.000  C
  O157     1.0000 0.55610  0.42010  0.63400  Biso   1.000  O
  O158     1.0000 0.08360  0.18690  0.27900  Biso   1.000  O
  C286     1.0000 0.00040  0.17170  0.31300  Biso   1.000  C
  H262     1.0000 0.47410  0.31620  0.65150  Biso   1.000  H
  C287     1.0000 0.54060  0.33110  0.57300  Biso   1.000  C
  O159     1.0000 0.46400  0.31760  0.48300  Biso   1.000  O
  O160     1.0000 0.00490  0.20860  0.23300  Biso   1.000  O
  H263     1.0000 0.99390  0.14380  0.26130  Biso   1.000  H
  C288     1.0000 0.96730  0.14290  0.40900  Biso   1.000  C
  H264     1.0000 0.56120  0.35220  0.51380  Biso   1.000  H
  H265     1.0000 0.53210  0.29750  0.55760  Biso   1.000  H
  H266     1.0000 0.55830  0.34160  0.64150  Biso   1.000  H
  H267     1.0000 0.43370  0.30260  0.49930  Biso   1.000  H
  H268     1.0000 0.03470  0.22620  0.21430  Biso   1.000  H
  H269     1.0000 0.96280  0.10940  0.40990  Biso   1.000  H
  H270     1.0000 0.98270  0.15980  0.47860  Biso   1.000  H
  H271     1.0000 0.93490  0.14070  0.40060  Biso   1.000  H
  H272     1.0000 0.51880  0.57990  0.44730  Biso   1.000  H
  Tb17     1.0000 0.00624  0.66621  0.63294  Biso   1.000  Tb
  O161     1.0000 0.95697  0.67133  0.79043  Biso   1.000  O
  O162     1.0000 0.91627  0.61153  0.67023  Biso   1.000  O
  O163     1.0000 0.05247  0.75303  0.68323  Biso   1.000  O
  O164     1.0000 0.05857  0.70703  0.81483  Biso   1.000  O
  O165     1.0000 0.00257  0.59913  0.73433  Biso   1.000  O
  O166     1.0000 0.96147  0.70413  0.55973  Biso   1.000  O
  C289     1.0000 0.91607  0.63953  0.74653  Biso   1.000  C
  C290     1.0000 0.07467  0.74963  0.76623  Biso   1.000  C
  C291     1.0000 0.86867  0.63803  0.77773  Biso   1.000  C
  C292     1.0000 0.12107  0.79243  0.80403  Biso   1.000  C
  C293     1.0000 0.87167  0.67573  0.84383  Biso   1.000  C
  C294     1.0000 0.82387  0.60313  0.73283  Biso   1.000  C
  C295     1.0000 0.13267  0.84053  0.77363  Biso   1.000  C
  C296     1.0000 0.15547  0.78583  0.86443  Biso   1.000  C
  H273     1.0000 0.90297  0.70033  0.87163  Biso   1.000  H
  C297     1.0000 0.83017  0.67783  0.86953  Biso   1.000  C
  C298     1.0000 0.78007  0.60483  0.75833  Biso   1.000  C
  H274     1.0000 0.82227  0.57803  0.68533  Biso   1.000  H
  H275     1.0000 0.10937  0.84553  0.73303  Biso   1.000  H
  N33      1.0000 0.14937  0.73983  0.89233  Biso   1.000  N
  H276     1.0000 0.83277  0.70333  0.91713  Biso   1.000  H
  C299     1.0000 0.78317  0.64253  0.82633  Biso   1.000  C
  N34      1.0000 0.73347  0.56913  0.71233  Biso   1.000  N
  H277     1.0000 0.11907  0.71513  0.88033  Biso   1.000  H
  C300     1.0000 0.18057  0.72513  0.93333  Biso   1.000  C
  C301     1.0000 0.73837  0.64623  0.84543  Biso   1.000  C
  H278     1.0000 0.71107  0.57803  0.70073  Biso   1.000  H
  C302     1.0000 0.72177  0.52143  0.68433  Biso   1.000  C
  C303     1.0000 0.16067  0.66863  0.91833  Biso   1.000  C
  O167     1.0000 0.22277  0.75343  0.96733  Biso   1.000  O
  O168     1.0000 0.75027  0.52023  0.61233  Biso   1.000  O
  C304     1.0000 0.66707  0.50503  0.64633  Biso   1.000  C
  H279     1.0000 0.14077  0.64953  0.98483  Biso   1.000  H
  C305     1.0000 0.20727  0.66443  0.90633  Biso   1.000  C
  O169     1.0000 0.13067  0.65093  0.81633  Biso   1.000  O
  O170     1.0000 0.67157  0.54193  0.56633  Biso   1.000  O
  H280     1.0000 0.66057  0.47713  0.59463  Biso   1.000  H
  C306     1.0000 0.63397  0.47623  0.74233  Biso   1.000  C
  H281     1.0000 0.22787  0.68553  0.84713  Biso   1.000  H
  H282     1.0000 0.19877  0.63083  0.89093  Biso   1.000  H
  H283     1.0000 0.22497  0.67493  0.97483  Biso   1.000  H
  H284     1.0000 0.10037  0.63593  0.83263  Biso   1.000  H
  H285     1.0000 0.70137  0.55953  0.54763  Biso   1.000  H
  H286     1.0000 0.62947  0.44273  0.74323  Biso   1.000  H
  H287     1.0000 0.64937  0.49313  0.81193  Biso   1.000  H
  H288     1.0000 0.60157  0.47403  0.73393  Biso   1.000  H
  H289     1.0000 0.18547  0.91323  0.78063  Biso   1.000  H
  Tb18     1.0000 0.67290  0.99955  0.96628  Biso   1.000  Tb
  O171     1.0000 0.62363  0.00467  0.12377  Biso   1.000  O
  O172     1.0000 0.58293  0.94487  0.00357  Biso   1.000  O
  O173     1.0000 0.71913  0.08637  0.01657  Biso   1.000  O
  O174     1.0000 0.72523  0.04037  0.14817  Biso   1.000  O
  O175     1.0000 0.66923  0.93247  0.06767  Biso   1.000  O
  O176     1.0000 0.62813  0.03747  0.89307  Biso   1.000  O
  C307     1.0000 0.58273  0.97287  0.07987  Biso   1.000  C
  C308     1.0000 0.74133  0.08297  0.09957  Biso   1.000  C
  C309     1.0000 0.53533  0.97137  0.11107  Biso   1.000  C
  C310     1.0000 0.78773  0.12577  0.13737  Biso   1.000  C
  C311     1.0000 0.53833  0.00907  0.17717  Biso   1.000  C
  C312     1.0000 0.49053  0.93647  0.06617  Biso   1.000  C
  C313     1.0000 0.79933  0.17387  0.10697  Biso   1.000  C
  C314     1.0000 0.82213  0.11917  0.19777  Biso   1.000  C
  H290     1.0000 0.56963  0.03367  0.20497  Biso   1.000  H
  C315     1.0000 0.49683  0.01117  0.20287  Biso   1.000  C
  C316     1.0000 0.44673  0.93817  0.09167  Biso   1.000  C
  H291     1.0000 0.48893  0.91137  0.01867  Biso   1.000  H
  H292     1.0000 0.77603  0.17887  0.06637  Biso   1.000  H
  N35      1.0000 0.81603  0.07317  0.22567  Biso   1.000  N
  H293     1.0000 0.49943  0.03667  0.25047  Biso   1.000  H
  C317     1.0000 0.44983  0.97587  0.15967  Biso   1.000  C
  N36      1.0000 0.40013  0.90247  0.04567  Biso   1.000  N
  H294     1.0000 0.78573  0.04847  0.21367  Biso   1.000  H
  C318     1.0000 0.84723  0.05847  0.26667  Biso   1.000  C
  C319     1.0000 0.40503  0.97957  0.17877  Biso   1.000  C
  H295     1.0000 0.37773  0.91137  0.03407  Biso   1.000  H
  C320     1.0000 0.38843  0.85477  0.01767  Biso   1.000  C
  C321     1.0000 0.82733  0.00197  0.25167  Biso   1.000  C
  O177     1.0000 0.88943  0.08677  0.30067  Biso   1.000  O
  O178     1.0000 0.41693  0.85357  0.94567  Biso   1.000  O
  C322     1.0000 0.33373  0.83837  0.97967  Biso   1.000  C
  H296     1.0000 0.80743  0.98287  0.31817  Biso   1.000  H
  C323     1.0000 0.87393  0.99777  0.23967  Biso   1.000  C
  O179     1.0000 0.79733  0.98427  0.14967  Biso   1.000  O
  O180     1.0000 0.33823  0.87527  0.89967  Biso   1.000  O
  H297     1.0000 0.32723  0.81047  0.92797  Biso   1.000  H
  C324     1.0000 0.30063  0.80957  0.07567  Biso   1.000  C
  H298     1.0000 0.89453  0.01887  0.18047  Biso   1.000  H
  H299     1.0000 0.86543  0.96417  0.22427  Biso   1.000  H
  H300     1.0000 0.89163  0.00827  0.30817  Biso   1.000  H
  H301     1.0000 0.76703  0.96927  0.16597  Biso   1.000  H
  H302     1.0000 0.36803  0.89287  0.88097  Biso   1.000  H
  H303     1.0000 0.29613  0.77607  0.07657  Biso   1.000  H
  H304     1.0000 0.31603  0.82647  0.14527  Biso   1.000  H
  H305     1.0000 0.26823  0.80737  0.06727  Biso   1.000  H
  H306     1.0000 0.85213  0.24657  0.11397  Biso   1.000  H
