data_image0
_cell_length_a       18.508
_cell_length_b       18.508
_cell_length_c       31.112
_cell_angle_alpha    90
_cell_angle_beta     90
_cell_angle_gamma    90

_symmetry_space_group_name_H-M    "P 1"
_symmetry_int_tables_number       1

loop_
  _symmetry_equiv_pos_as_xyz
  'x, y, z'

loop_
  _atom_site_label
  _atom_site_occupancy
  _atom_site_fract_x
  _atom_site_fract_y
  _atom_site_fract_z
  _atom_site_thermal_displace_type
  _atom_site_B_iso_or_equiv
  _atom_site_type_symbol
  C1       1.0000 0.56400  0.16730  0.84881  Biso   1.000  C
  H1       1.0000 0.60840  0.15300  0.86160  Biso   1.000  H
  O1       1.0000 0.69130  0.20290  0.80727  Biso   1.000  O
  O2       1.0000 0.63080  0.26380  0.75541  Biso   1.000  O
  C2       1.0000 0.63500  0.22590  0.78940  Biso   1.000  C
  C3       1.0000 0.56420  0.20920  0.81110  Biso   1.000  C
  O3       1.0000 0.86080  0.17070  0.82750  Biso   1.000  O
  C4       1.0000 0.54590  0.06560  0.92110  Biso   1.000  C
  H2       1.0000 0.59510  0.08570  0.92480  Biso   1.000  H
  H3       1.0000 0.54840  0.02470  0.90060  Biso   1.000  H
  C5       1.0000 0.51710  0.03280  0.96190  Biso   1.000  C
  H4       1.0000 0.45580  0.16980  0.02000  Biso   1.000  H
  H5       1.0000 0.43330  0.15890  0.97090  Biso   1.000  H
  O4       1.0000 0.35470  0.13650  0.01220  Biso   1.000  O
  C6       1.0000 0.32750  0.19370  0.03500  Biso   1.000  C
  C7       1.0000 0.25630  0.18340  0.04900  Biso   1.000  C
  H6       1.0000 0.23170  0.13970  0.04240  Biso   1.000  H
  C8       1.0000 0.22150  0.23690  0.07250  Biso   1.000  C
  C9       1.0000 0.25730  0.29940  0.08300  Biso   1.000  C
  H7       1.0000 0.23340  0.33510  0.09970  Biso   1.000  H
  C10      1.0000 0.32720  0.31120  0.06980  Biso   1.000  C
  C11      1.0000 0.36230  0.25930  0.04620  Biso   1.000  C
  H8       1.0000 0.41070  0.26750  0.03720  Biso   1.000  H
  C12      1.0000 0.35980  0.38090  0.08290  Biso   1.000  C
  O5       1.0000 0.38000  0.41070  0.05030  Biso   1.000  O
  O6       1.0000 0.35900  0.39100  0.12180  Biso   1.000  O
  C13      1.0000 0.22660  0.14540  0.08770  Biso   1.000  C
  O7       1.0000 0.28250  0.10740  0.09130  Biso   1.000  O
  O8       1.0000 0.16270  0.12700  0.09550  Biso   1.000  O
  C14      1.0000 0.06400  0.66730  0.34881  Biso   1.000  C
  H9       1.0000 0.10840  0.65300  0.36160  Biso   1.000  H
  O9       1.0000 0.19130  0.70290  0.30727  Biso   1.000  O
  O10      1.0000 0.13080  0.76380  0.25541  Biso   1.000  O
  C15      1.0000 0.13500  0.72590  0.28940  Biso   1.000  C
  C16      1.0000 0.06420  0.70920  0.31110  Biso   1.000  C
  O11      1.0000 0.36080  0.67070  0.32750  Biso   1.000  O
  C17      1.0000 0.04590  0.56560  0.42110  Biso   1.000  C
  H10      1.0000 0.09510  0.58570  0.42480  Biso   1.000  H
  H11      1.0000 0.04840  0.52470  0.40060  Biso   1.000  H
  C18      1.0000 0.01710  0.53280  0.46190  Biso   1.000  C
  H12      1.0000 0.95580  0.66980  0.52000  Biso   1.000  H
  H13      1.0000 0.93330  0.65890  0.47090  Biso   1.000  H
  O12      1.0000 0.85470  0.63650  0.51220  Biso   1.000  O
  C19      1.0000 0.82750  0.69370  0.53500  Biso   1.000  C
  C20      1.0000 0.75630  0.68340  0.54900  Biso   1.000  C
  H14      1.0000 0.73170  0.63970  0.54240  Biso   1.000  H
  C21      1.0000 0.72150  0.73690  0.57250  Biso   1.000  C
  C22      1.0000 0.75730  0.79940  0.58300  Biso   1.000  C
  H15      1.0000 0.73340  0.83510  0.59970  Biso   1.000  H
  C23      1.0000 0.82720  0.81120  0.56980  Biso   1.000  C
  C24      1.0000 0.86230  0.75930  0.54620  Biso   1.000  C
  H16      1.0000 0.91070  0.76750  0.53720  Biso   1.000  H
  C25      1.0000 0.85980  0.88090  0.58290  Biso   1.000  C
  O13      1.0000 0.88000  0.91070  0.55030  Biso   1.000  O
  O14      1.0000 0.85900  0.89100  0.62180  Biso   1.000  O
  C26      1.0000 0.72660  0.64540  0.58770  Biso   1.000  C
  O15      1.0000 0.78250  0.60740  0.59130  Biso   1.000  O
  O16      1.0000 0.66270  0.62700  0.59550  Biso   1.000  O
  C27      1.0000 0.43600  0.83270  0.84881  Biso   1.000  C
  H17      1.0000 0.39160  0.84700  0.86160  Biso   1.000  H
  O17      1.0000 0.30870  0.79710  0.80727  Biso   1.000  O
  O18      1.0000 0.36920  0.73620  0.75541  Biso   1.000  O
  C28      1.0000 0.36500  0.77410  0.78940  Biso   1.000  C
  C29      1.0000 0.43580  0.79080  0.81110  Biso   1.000  C
  O19      1.0000 0.13920  0.82930  0.82750  Biso   1.000  O
  C30      1.0000 0.45410  0.93440  0.92110  Biso   1.000  C
  H18      1.0000 0.40490  0.91430  0.92480  Biso   1.000  H
  H19      1.0000 0.45160  0.97530  0.90060  Biso   1.000  H
  C31      1.0000 0.48290  0.96720  0.96190  Biso   1.000  C
  H20      1.0000 0.54420  0.83020  0.02000  Biso   1.000  H
  H21      1.0000 0.56670  0.84110  0.97090  Biso   1.000  H
  O20      1.0000 0.64530  0.86350  0.01220  Biso   1.000  O
  C32      1.0000 0.67250  0.80630  0.03500  Biso   1.000  C
  C33      1.0000 0.74370  0.81660  0.04900  Biso   1.000  C
  H22      1.0000 0.76830  0.86030  0.04240  Biso   1.000  H
  C34      1.0000 0.77850  0.76310  0.07250  Biso   1.000  C
  C35      1.0000 0.74270  0.70060  0.08300  Biso   1.000  C
  H23      1.0000 0.76660  0.66490  0.09970  Biso   1.000  H
  C36      1.0000 0.67280  0.68880  0.06980  Biso   1.000  C
  C37      1.0000 0.63770  0.74070  0.04620  Biso   1.000  C
  H24      1.0000 0.58930  0.73250  0.03720  Biso   1.000  H
  C38      1.0000 0.64020  0.61910  0.08290  Biso   1.000  C
  O21      1.0000 0.62000  0.58930  0.05030  Biso   1.000  O
  O22      1.0000 0.64100  0.60900  0.12180  Biso   1.000  O
  C39      1.0000 0.77340  0.85460  0.08770  Biso   1.000  C
  O23      1.0000 0.71750  0.89260  0.09130  Biso   1.000  O
  O24      1.0000 0.83730  0.87300  0.09550  Biso   1.000  O
  C40      1.0000 0.93600  0.33270  0.34881  Biso   1.000  C
  H25      1.0000 0.89160  0.34700  0.36160  Biso   1.000  H
  O25      1.0000 0.80870  0.29710  0.30727  Biso   1.000  O
  O26      1.0000 0.86920  0.23620  0.25541  Biso   1.000  O
  C41      1.0000 0.86500  0.27410  0.28940  Biso   1.000  C
  C42      1.0000 0.93580  0.29080  0.31110  Biso   1.000  C
  O27      1.0000 0.63920  0.32930  0.32750  Biso   1.000  O
  C43      1.0000 0.95410  0.43440  0.42110  Biso   1.000  C
  H26      1.0000 0.90490  0.41430  0.42480  Biso   1.000  H
  H27      1.0000 0.95160  0.47530  0.40060  Biso   1.000  H
  C44      1.0000 0.98290  0.46720  0.46190  Biso   1.000  C
  H28      1.0000 0.04420  0.33020  0.52000  Biso   1.000  H
  H29      1.0000 0.06670  0.34110  0.47090  Biso   1.000  H
  O28      1.0000 0.14530  0.36350  0.51220  Biso   1.000  O
  C45      1.0000 0.17250  0.30630  0.53500  Biso   1.000  C
  C46      1.0000 0.24370  0.31660  0.54900  Biso   1.000  C
  H30      1.0000 0.26830  0.36030  0.54240  Biso   1.000  H
  C47      1.0000 0.27850  0.26310  0.57250  Biso   1.000  C
  C48      1.0000 0.24270  0.20060  0.58300  Biso   1.000  C
  H31      1.0000 0.26660  0.16490  0.59970  Biso   1.000  H
  C49      1.0000 0.17280  0.18880  0.56980  Biso   1.000  C
  C50      1.0000 0.13770  0.24070  0.54620  Biso   1.000  C
  H32      1.0000 0.08930  0.23250  0.53720  Biso   1.000  H
  C51      1.0000 0.14020  0.11910  0.58290  Biso   1.000  C
  O29      1.0000 0.12000  0.08930  0.55030  Biso   1.000  O
  O30      1.0000 0.14100  0.10900  0.62180  Biso   1.000  O
  C52      1.0000 0.27340  0.35460  0.58770  Biso   1.000  C
  O31      1.0000 0.21750  0.39260  0.59130  Biso   1.000  O
  O32      1.0000 0.33730  0.37300  0.59550  Biso   1.000  O
  C53      1.0000 0.83270  0.56400  0.84881  Biso   1.000  C
  H33      1.0000 0.84700  0.60840  0.86160  Biso   1.000  H
  O33      1.0000 0.79710  0.69130  0.80727  Biso   1.000  O
  O34      1.0000 0.73620  0.63080  0.75541  Biso   1.000  O
  C54      1.0000 0.77410  0.63500  0.78940  Biso   1.000  C
  C55      1.0000 0.79080  0.56420  0.81110  Biso   1.000  C
  O35      1.0000 0.82930  0.86080  0.82750  Biso   1.000  O
  C56      1.0000 0.93440  0.54590  0.92110  Biso   1.000  C
  H34      1.0000 0.91430  0.59510  0.92480  Biso   1.000  H
  H35      1.0000 0.97530  0.54840  0.90060  Biso   1.000  H
  C57      1.0000 0.96720  0.51710  0.96190  Biso   1.000  C
  H36      1.0000 0.83020  0.45580  0.02000  Biso   1.000  H
  H37      1.0000 0.84110  0.43330  0.97090  Biso   1.000  H
  O36      1.0000 0.86350  0.35470  0.01220  Biso   1.000  O
  C58      1.0000 0.80630  0.32750  0.03500  Biso   1.000  C
  C59      1.0000 0.81660  0.25630  0.04900  Biso   1.000  C
  H38      1.0000 0.86030  0.23170  0.04240  Biso   1.000  H
  C60      1.0000 0.76310  0.22150  0.07250  Biso   1.000  C
  C61      1.0000 0.70060  0.25730  0.08300  Biso   1.000  C
  H39      1.0000 0.66490  0.23340  0.09970  Biso   1.000  H
  C62      1.0000 0.68880  0.32720  0.06980  Biso   1.000  C
  C63      1.0000 0.74070  0.36230  0.04620  Biso   1.000  C
  H40      1.0000 0.73250  0.41070  0.03720  Biso   1.000  H
  C64      1.0000 0.61910  0.35980  0.08290  Biso   1.000  C
  O37      1.0000 0.58930  0.38000  0.05030  Biso   1.000  O
  O38      1.0000 0.60900  0.35900  0.12180  Biso   1.000  O
  C65      1.0000 0.85460  0.22660  0.08770  Biso   1.000  C
  O39      1.0000 0.89260  0.28250  0.09130  Biso   1.000  O
  O40      1.0000 0.87300  0.16270  0.09550  Biso   1.000  O
  C66      1.0000 0.33270  0.06400  0.34881  Biso   1.000  C
  H41      1.0000 0.34700  0.10840  0.36160  Biso   1.000  H
  O41      1.0000 0.29710  0.19130  0.30727  Biso   1.000  O
  O42      1.0000 0.23620  0.13080  0.25541  Biso   1.000  O
  C67      1.0000 0.27410  0.13500  0.28940  Biso   1.000  C
  C68      1.0000 0.29080  0.06420  0.31110  Biso   1.000  C
  O43      1.0000 0.32930  0.36080  0.32750  Biso   1.000  O
  C69      1.0000 0.43440  0.04590  0.42110  Biso   1.000  C
  H42      1.0000 0.41430  0.09510  0.42480  Biso   1.000  H
  H43      1.0000 0.47530  0.04840  0.40060  Biso   1.000  H
  C70      1.0000 0.46720  0.01710  0.46190  Biso   1.000  C
  H44      1.0000 0.33020  0.95580  0.52000  Biso   1.000  H
  H45      1.0000 0.34110  0.93330  0.47090  Biso   1.000  H
  O44      1.0000 0.36350  0.85470  0.51220  Biso   1.000  O
  C71      1.0000 0.30630  0.82750  0.53500  Biso   1.000  C
  C72      1.0000 0.31660  0.75630  0.54900  Biso   1.000  C
  H46      1.0000 0.36030  0.73170  0.54240  Biso   1.000  H
  C73      1.0000 0.26310  0.72150  0.57250  Biso   1.000  C
  C74      1.0000 0.20060  0.75730  0.58300  Biso   1.000  C
  H47      1.0000 0.16490  0.73340  0.59970  Biso   1.000  H
  C75      1.0000 0.18880  0.82720  0.56980  Biso   1.000  C
  C76      1.0000 0.24070  0.86230  0.54620  Biso   1.000  C
  H48      1.0000 0.23250  0.91070  0.53720  Biso   1.000  H
  C77      1.0000 0.11910  0.85980  0.58290  Biso   1.000  C
  O45      1.0000 0.08930  0.88000  0.55030  Biso   1.000  O
  O46      1.0000 0.10900  0.85900  0.62180  Biso   1.000  O
  C78      1.0000 0.35460  0.72660  0.58770  Biso   1.000  C
  O47      1.0000 0.39260  0.78250  0.59130  Biso   1.000  O
  O48      1.0000 0.37300  0.66270  0.59550  Biso   1.000  O
  C79      1.0000 0.16730  0.43600  0.84881  Biso   1.000  C
  H49      1.0000 0.15300  0.39160  0.86160  Biso   1.000  H
  O49      1.0000 0.20290  0.30870  0.80727  Biso   1.000  O
  O50      1.0000 0.26380  0.36920  0.75541  Biso   1.000  O
  C80      1.0000 0.22590  0.36500  0.78940  Biso   1.000  C
  C81      1.0000 0.20920  0.43580  0.81110  Biso   1.000  C
  O51      1.0000 0.17070  0.13920  0.82750  Biso   1.000  O
  C82      1.0000 0.06560  0.45410  0.92110  Biso   1.000  C
  H50      1.0000 0.08570  0.40490  0.92480  Biso   1.000  H
  H51      1.0000 0.02470  0.45160  0.90060  Biso   1.000  H
  C83      1.0000 0.03280  0.48290  0.96190  Biso   1.000  C
  H52      1.0000 0.16980  0.54420  0.02000  Biso   1.000  H
  H53      1.0000 0.15890  0.56670  0.97090  Biso   1.000  H
  O52      1.0000 0.13650  0.64530  0.01220  Biso   1.000  O
  C84      1.0000 0.19370  0.67250  0.03500  Biso   1.000  C
  C85      1.0000 0.18340  0.74370  0.04900  Biso   1.000  C
  H54      1.0000 0.13970  0.76830  0.04240  Biso   1.000  H
  C86      1.0000 0.23690  0.77850  0.07250  Biso   1.000  C
  C87      1.0000 0.29940  0.74270  0.08300  Biso   1.000  C
  H55      1.0000 0.33510  0.76660  0.09970  Biso   1.000  H
  C88      1.0000 0.31120  0.67280  0.06980  Biso   1.000  C
  C89      1.0000 0.25930  0.63770  0.04620  Biso   1.000  C
  H56      1.0000 0.26750  0.58930  0.03720  Biso   1.000  H
  C90      1.0000 0.38090  0.64020  0.08290  Biso   1.000  C
  O53      1.0000 0.41070  0.62000  0.05030  Biso   1.000  O
  O54      1.0000 0.39100  0.64100  0.12180  Biso   1.000  O
  C91      1.0000 0.14540  0.77340  0.08770  Biso   1.000  C
  O55      1.0000 0.10740  0.71750  0.09130  Biso   1.000  O
  O56      1.0000 0.12700  0.83730  0.09550  Biso   1.000  O
  C92      1.0000 0.66730  0.93600  0.34881  Biso   1.000  C
  H57      1.0000 0.65300  0.89160  0.36160  Biso   1.000  H
  O57      1.0000 0.70290  0.80870  0.30727  Biso   1.000  O
  O58      1.0000 0.76380  0.86920  0.25541  Biso   1.000  O
  C93      1.0000 0.72590  0.86500  0.28940  Biso   1.000  C
  C94      1.0000 0.70920  0.93580  0.31110  Biso   1.000  C
  O59      1.0000 0.67070  0.63920  0.32750  Biso   1.000  O
  C95      1.0000 0.56560  0.95410  0.42110  Biso   1.000  C
  H58      1.0000 0.58570  0.90490  0.42480  Biso   1.000  H
  H59      1.0000 0.52470  0.95160  0.40060  Biso   1.000  H
  C96      1.0000 0.53280  0.98290  0.46190  Biso   1.000  C
  H60      1.0000 0.66980  0.04420  0.52000  Biso   1.000  H
  H61      1.0000 0.65890  0.06670  0.47090  Biso   1.000  H
  O60      1.0000 0.63650  0.14530  0.51220  Biso   1.000  O
  C97      1.0000 0.69370  0.17250  0.53500  Biso   1.000  C
  C98      1.0000 0.68340  0.24370  0.54900  Biso   1.000  C
  H62      1.0000 0.63970  0.26830  0.54240  Biso   1.000  H
  C99      1.0000 0.73690  0.27850  0.57250  Biso   1.000  C
  C100     1.0000 0.79940  0.24270  0.58300  Biso   1.000  C
  H63      1.0000 0.83510  0.26660  0.59970  Biso   1.000  H
  C101     1.0000 0.81120  0.17280  0.56980  Biso   1.000  C
  C102     1.0000 0.75930  0.13770  0.54620  Biso   1.000  C
  H64      1.0000 0.76750  0.08930  0.53720  Biso   1.000  H
  C103     1.0000 0.88090  0.14020  0.58290  Biso   1.000  C
  O61      1.0000 0.91070  0.12000  0.55030  Biso   1.000  O
  O62      1.0000 0.89100  0.14100  0.62180  Biso   1.000  O
  C104     1.0000 0.64540  0.27340  0.58770  Biso   1.000  C
  O63      1.0000 0.60740  0.21750  0.59130  Biso   1.000  O
  O64      1.0000 0.62700  0.33730  0.59550  Biso   1.000  O
  C105     1.0000 0.43600  0.16730  0.15119  Biso   1.000  C
  H65      1.0000 0.39160  0.15300  0.13840  Biso   1.000  H
  O65      1.0000 0.30870  0.20290  0.19273  Biso   1.000  O
  O66      1.0000 0.36920  0.26380  0.24459  Biso   1.000  O
  C106     1.0000 0.36500  0.22590  0.21060  Biso   1.000  C
  C107     1.0000 0.43580  0.20920  0.18890  Biso   1.000  C
  O67      1.0000 0.13920  0.17070  0.17250  Biso   1.000  O
  C108     1.0000 0.45410  0.06560  0.07890  Biso   1.000  C
  H66      1.0000 0.40490  0.08570  0.07520  Biso   1.000  H
  H67      1.0000 0.45160  0.02470  0.09940  Biso   1.000  H
  C109     1.0000 0.48290  0.03280  0.03810  Biso   1.000  C
  H68      1.0000 0.54420  0.16980  0.98000  Biso   1.000  H
  H69      1.0000 0.56670  0.15890  0.02910  Biso   1.000  H
  O68      1.0000 0.64530  0.13650  0.98780  Biso   1.000  O
  C110     1.0000 0.67250  0.19370  0.96500  Biso   1.000  C
  C111     1.0000 0.74370  0.18340  0.95100  Biso   1.000  C
  H70      1.0000 0.76830  0.13970  0.95760  Biso   1.000  H
  C112     1.0000 0.77850  0.23690  0.92750  Biso   1.000  C
  C113     1.0000 0.74270  0.29940  0.91700  Biso   1.000  C
  H71      1.0000 0.76660  0.33510  0.90030  Biso   1.000  H
  C114     1.0000 0.67280  0.31120  0.93020  Biso   1.000  C
  C115     1.0000 0.63770  0.25930  0.95380  Biso   1.000  C
  H72      1.0000 0.58930  0.26750  0.96280  Biso   1.000  H
  C116     1.0000 0.64020  0.38090  0.91710  Biso   1.000  C
  O69      1.0000 0.62000  0.41070  0.94970  Biso   1.000  O
  O70      1.0000 0.64100  0.39100  0.87820  Biso   1.000  O
  C117     1.0000 0.77340  0.14540  0.91230  Biso   1.000  C
  O71      1.0000 0.71750  0.10740  0.90870  Biso   1.000  O
  O72      1.0000 0.83730  0.12700  0.90450  Biso   1.000  O
  C118     1.0000 0.93600  0.66730  0.65119  Biso   1.000  C
  H73      1.0000 0.89160  0.65300  0.63840  Biso   1.000  H
  O73      1.0000 0.80870  0.70290  0.69273  Biso   1.000  O
  O74      1.0000 0.86920  0.76380  0.74459  Biso   1.000  O
  C119     1.0000 0.86500  0.72590  0.71060  Biso   1.000  C
  C120     1.0000 0.93580  0.70920  0.68890  Biso   1.000  C
  O75      1.0000 0.63920  0.67070  0.67250  Biso   1.000  O
  C121     1.0000 0.95410  0.56560  0.57890  Biso   1.000  C
  H74      1.0000 0.90490  0.58570  0.57520  Biso   1.000  H
  H75      1.0000 0.95160  0.52470  0.59940  Biso   1.000  H
  C122     1.0000 0.98290  0.53280  0.53810  Biso   1.000  C
  H76      1.0000 0.04420  0.66980  0.48000  Biso   1.000  H
  H77      1.0000 0.06670  0.65890  0.52910  Biso   1.000  H
  O76      1.0000 0.14530  0.63650  0.48780  Biso   1.000  O
  C123     1.0000 0.17250  0.69370  0.46500  Biso   1.000  C
  C124     1.0000 0.24370  0.68340  0.45100  Biso   1.000  C
  H78      1.0000 0.26830  0.63970  0.45760  Biso   1.000  H
  C125     1.0000 0.27850  0.73690  0.42750  Biso   1.000  C
  C126     1.0000 0.24270  0.79940  0.41700  Biso   1.000  C
  H79      1.0000 0.26660  0.83510  0.40030  Biso   1.000  H
  C127     1.0000 0.17280  0.81120  0.43020  Biso   1.000  C
  C128     1.0000 0.13770  0.75930  0.45380  Biso   1.000  C
  H80      1.0000 0.08930  0.76750  0.46280  Biso   1.000  H
  C129     1.0000 0.14020  0.88090  0.41710  Biso   1.000  C
  O77      1.0000 0.12000  0.91070  0.44970  Biso   1.000  O
  O78      1.0000 0.14100  0.89100  0.37820  Biso   1.000  O
  C130     1.0000 0.27340  0.64540  0.41230  Biso   1.000  C
  O79      1.0000 0.21750  0.60740  0.40870  Biso   1.000  O
  O80      1.0000 0.33730  0.62700  0.40450  Biso   1.000  O
  C131     1.0000 0.56400  0.83270  0.15119  Biso   1.000  C
  H81      1.0000 0.60840  0.84700  0.13840  Biso   1.000  H
  O81      1.0000 0.69130  0.79710  0.19273  Biso   1.000  O
  O82      1.0000 0.63080  0.73620  0.24459  Biso   1.000  O
  C132     1.0000 0.63500  0.77410  0.21060  Biso   1.000  C
  C133     1.0000 0.56420  0.79080  0.18890  Biso   1.000  C
  O83      1.0000 0.86080  0.82930  0.17250  Biso   1.000  O
  C134     1.0000 0.54590  0.93440  0.07890  Biso   1.000  C
  H82      1.0000 0.59510  0.91430  0.07520  Biso   1.000  H
  H83      1.0000 0.54840  0.97530  0.09940  Biso   1.000  H
  C135     1.0000 0.51710  0.96720  0.03810  Biso   1.000  C
  H84      1.0000 0.45580  0.83020  0.98000  Biso   1.000  H
  H85      1.0000 0.43330  0.84110  0.02910  Biso   1.000  H
  O84      1.0000 0.35470  0.86350  0.98780  Biso   1.000  O
  C136     1.0000 0.32750  0.80630  0.96500  Biso   1.000  C
  C137     1.0000 0.25630  0.81660  0.95100  Biso   1.000  C
  H86      1.0000 0.23170  0.86030  0.95760  Biso   1.000  H
  C138     1.0000 0.22150  0.76310  0.92750  Biso   1.000  C
  C139     1.0000 0.25730  0.70060  0.91700  Biso   1.000  C
  H87      1.0000 0.23340  0.66490  0.90030  Biso   1.000  H
  C140     1.0000 0.32720  0.68880  0.93020  Biso   1.000  C
  C141     1.0000 0.36230  0.74070  0.95380  Biso   1.000  C
  H88      1.0000 0.41070  0.73250  0.96280  Biso   1.000  H
  C142     1.0000 0.35980  0.61910  0.91710  Biso   1.000  C
  O85      1.0000 0.38000  0.58930  0.94970  Biso   1.000  O
  O86      1.0000 0.35900  0.60900  0.87820  Biso   1.000  O
  C143     1.0000 0.22660  0.85460  0.91230  Biso   1.000  C
  O87      1.0000 0.28250  0.89260  0.90870  Biso   1.000  O
  O88      1.0000 0.16270  0.87300  0.90450  Biso   1.000  O
  C144     1.0000 0.06400  0.33270  0.65119  Biso   1.000  C
  H89      1.0000 0.10840  0.34700  0.63840  Biso   1.000  H
  O89      1.0000 0.19130  0.29710  0.69273  Biso   1.000  O
  O90      1.0000 0.13080  0.23620  0.74459  Biso   1.000  O
  C145     1.0000 0.13500  0.27410  0.71060  Biso   1.000  C
  C146     1.0000 0.06420  0.29080  0.68890  Biso   1.000  C
  O91      1.0000 0.36080  0.32930  0.67250  Biso   1.000  O
  C147     1.0000 0.04590  0.43440  0.57890  Biso   1.000  C
  H90      1.0000 0.09510  0.41430  0.57520  Biso   1.000  H
  H91      1.0000 0.04840  0.47530  0.59940  Biso   1.000  H
  C148     1.0000 0.01710  0.46720  0.53810  Biso   1.000  C
  H92      1.0000 0.95580  0.33020  0.48000  Biso   1.000  H
  H93      1.0000 0.93330  0.34110  0.52910  Biso   1.000  H
  O92      1.0000 0.85470  0.36350  0.48780  Biso   1.000  O
  C149     1.0000 0.82750  0.30630  0.46500  Biso   1.000  C
  C150     1.0000 0.75630  0.31660  0.45100  Biso   1.000  C
  H94      1.0000 0.73170  0.36030  0.45760  Biso   1.000  H
  C151     1.0000 0.72150  0.26310  0.42750  Biso   1.000  C
  C152     1.0000 0.75730  0.20060  0.41700  Biso   1.000  C
  H95      1.0000 0.73340  0.16490  0.40030  Biso   1.000  H
  C153     1.0000 0.82720  0.18880  0.43020  Biso   1.000  C
  C154     1.0000 0.86230  0.24070  0.45380  Biso   1.000  C
  H96      1.0000 0.91070  0.23250  0.46280  Biso   1.000  H
  C155     1.0000 0.85980  0.11910  0.41710  Biso   1.000  C
  O93      1.0000 0.88000  0.08930  0.44970  Biso   1.000  O
  O94      1.0000 0.85900  0.10900  0.37820  Biso   1.000  O
  C156     1.0000 0.72660  0.35460  0.41230  Biso   1.000  C
  O95      1.0000 0.78250  0.39260  0.40870  Biso   1.000  O
  O96      1.0000 0.66270  0.37300  0.40450  Biso   1.000  O
  C157     1.0000 0.16730  0.56400  0.15119  Biso   1.000  C
  H97      1.0000 0.15300  0.60840  0.13840  Biso   1.000  H
  O97      1.0000 0.20290  0.69130  0.19273  Biso   1.000  O
  O98      1.0000 0.26380  0.63080  0.24459  Biso   1.000  O
  C158     1.0000 0.22590  0.63500  0.21060  Biso   1.000  C
  C159     1.0000 0.20920  0.56420  0.18890  Biso   1.000  C
  O99      1.0000 0.17070  0.86080  0.17250  Biso   1.000  O
  C160     1.0000 0.06560  0.54590  0.07890  Biso   1.000  C
  H98      1.0000 0.08570  0.59510  0.07520  Biso   1.000  H
  H99      1.0000 0.02470  0.54840  0.09940  Biso   1.000  H
  C161     1.0000 0.03280  0.51710  0.03810  Biso   1.000  C
  H100     1.0000 0.16980  0.45580  0.98000  Biso   1.000  H
  H101     1.0000 0.15890  0.43330  0.02910  Biso   1.000  H
  O100     1.0000 0.13650  0.35470  0.98780  Biso   1.000  O
  C162     1.0000 0.19370  0.32750  0.96500  Biso   1.000  C
  C163     1.0000 0.18340  0.25630  0.95100  Biso   1.000  C
  H102     1.0000 0.13970  0.23170  0.95760  Biso   1.000  H
  C164     1.0000 0.23690  0.22150  0.92750  Biso   1.000  C
  C165     1.0000 0.29940  0.25730  0.91700  Biso   1.000  C
  H103     1.0000 0.33510  0.23340  0.90030  Biso   1.000  H
  C166     1.0000 0.31120  0.32720  0.93020  Biso   1.000  C
  C167     1.0000 0.25930  0.36230  0.95380  Biso   1.000  C
  H104     1.0000 0.26750  0.41070  0.96280  Biso   1.000  H
  C168     1.0000 0.38090  0.35980  0.91710  Biso   1.000  C
  O101     1.0000 0.41070  0.38000  0.94970  Biso   1.000  O
  O102     1.0000 0.39100  0.35900  0.87820  Biso   1.000  O
  C169     1.0000 0.14540  0.22660  0.91230  Biso   1.000  C
  O103     1.0000 0.10740  0.28250  0.90870  Biso   1.000  O
  O104     1.0000 0.12700  0.16270  0.90450  Biso   1.000  O
  C170     1.0000 0.66730  0.06400  0.65119  Biso   1.000  C
  H105     1.0000 0.65300  0.10840  0.63840  Biso   1.000  H
  O105     1.0000 0.70290  0.19130  0.69273  Biso   1.000  O
  O106     1.0000 0.76380  0.13080  0.74459  Biso   1.000  O
  C171     1.0000 0.72590  0.13500  0.71060  Biso   1.000  C
  C172     1.0000 0.70920  0.06420  0.68890  Biso   1.000  C
  O107     1.0000 0.67070  0.36080  0.67250  Biso   1.000  O
  C173     1.0000 0.56560  0.04590  0.57890  Biso   1.000  C
  H106     1.0000 0.58570  0.09510  0.57520  Biso   1.000  H
  H107     1.0000 0.52470  0.04840  0.59940  Biso   1.000  H
  C174     1.0000 0.53280  0.01710  0.53810  Biso   1.000  C
  H108     1.0000 0.66980  0.95580  0.48000  Biso   1.000  H
  H109     1.0000 0.65890  0.93330  0.52910  Biso   1.000  H
  O108     1.0000 0.63650  0.85470  0.48780  Biso   1.000  O
  C175     1.0000 0.69370  0.82750  0.46500  Biso   1.000  C
  C176     1.0000 0.68340  0.75630  0.45100  Biso   1.000  C
  H110     1.0000 0.63970  0.73170  0.45760  Biso   1.000  H
  C177     1.0000 0.73690  0.72150  0.42750  Biso   1.000  C
  C178     1.0000 0.79940  0.75730  0.41700  Biso   1.000  C
  H111     1.0000 0.83510  0.73340  0.40030  Biso   1.000  H
  C179     1.0000 0.81120  0.82720  0.43020  Biso   1.000  C
  C180     1.0000 0.75930  0.86230  0.45380  Biso   1.000  C
  H112     1.0000 0.76750  0.91070  0.46280  Biso   1.000  H
  C181     1.0000 0.88090  0.85980  0.41710  Biso   1.000  C
  O109     1.0000 0.91070  0.88000  0.44970  Biso   1.000  O
  O110     1.0000 0.89100  0.85900  0.37820  Biso   1.000  O
  C182     1.0000 0.64540  0.72660  0.41230  Biso   1.000  C
  O111     1.0000 0.60740  0.78250  0.40870  Biso   1.000  O
  O112     1.0000 0.62700  0.66270  0.40450  Biso   1.000  O
  C183     1.0000 0.83270  0.43600  0.15119  Biso   1.000  C
  H113     1.0000 0.84700  0.39160  0.13840  Biso   1.000  H
  O113     1.0000 0.79710  0.30870  0.19273  Biso   1.000  O
  O114     1.0000 0.73620  0.36920  0.24459  Biso   1.000  O
  C184     1.0000 0.77410  0.36500  0.21060  Biso   1.000  C
  C185     1.0000 0.79080  0.43580  0.18890  Biso   1.000  C
  O115     1.0000 0.82930  0.13920  0.17250  Biso   1.000  O
  C186     1.0000 0.93440  0.45410  0.07890  Biso   1.000  C
  H114     1.0000 0.91430  0.40490  0.07520  Biso   1.000  H
  H115     1.0000 0.97530  0.45160  0.09940  Biso   1.000  H
  C187     1.0000 0.96720  0.48290  0.03810  Biso   1.000  C
  H116     1.0000 0.83020  0.54420  0.98000  Biso   1.000  H
  H117     1.0000 0.84110  0.56670  0.02910  Biso   1.000  H
  O116     1.0000 0.86350  0.64530  0.98780  Biso   1.000  O
  C188     1.0000 0.80630  0.67250  0.96500  Biso   1.000  C
  C189     1.0000 0.81660  0.74370  0.95100  Biso   1.000  C
  H118     1.0000 0.86030  0.76830  0.95760  Biso   1.000  H
  C190     1.0000 0.76310  0.77850  0.92750  Biso   1.000  C
  C191     1.0000 0.70060  0.74270  0.91700  Biso   1.000  C
  H119     1.0000 0.66490  0.76660  0.90030  Biso   1.000  H
  C192     1.0000 0.68880  0.67280  0.93020  Biso   1.000  C
  C193     1.0000 0.74070  0.63770  0.95380  Biso   1.000  C
  H120     1.0000 0.73250  0.58930  0.96280  Biso   1.000  H
  C194     1.0000 0.61910  0.64020  0.91710  Biso   1.000  C
  O117     1.0000 0.58930  0.62000  0.94970  Biso   1.000  O
  O118     1.0000 0.60900  0.64100  0.87820  Biso   1.000  O
  C195     1.0000 0.85460  0.77340  0.91230  Biso   1.000  C
  O119     1.0000 0.89260  0.71750  0.90870  Biso   1.000  O
  O120     1.0000 0.87300  0.83730  0.90450  Biso   1.000  O
  C196     1.0000 0.33270  0.93600  0.65119  Biso   1.000  C
  H121     1.0000 0.34700  0.89160  0.63840  Biso   1.000  H
  O121     1.0000 0.29710  0.80870  0.69273  Biso   1.000  O
  O122     1.0000 0.23620  0.86920  0.74459  Biso   1.000  O
  C197     1.0000 0.27410  0.86500  0.71060  Biso   1.000  C
  C198     1.0000 0.29080  0.93580  0.68890  Biso   1.000  C
  O123     1.0000 0.32930  0.63920  0.67250  Biso   1.000  O
  C199     1.0000 0.43440  0.95410  0.57890  Biso   1.000  C
  H122     1.0000 0.41430  0.90490  0.57520  Biso   1.000  H
  H123     1.0000 0.47530  0.95160  0.59940  Biso   1.000  H
  C200     1.0000 0.46720  0.98290  0.53810  Biso   1.000  C
  H124     1.0000 0.33020  0.04420  0.48000  Biso   1.000  H
  H125     1.0000 0.34110  0.06670  0.52910  Biso   1.000  H
  O124     1.0000 0.36350  0.14530  0.48780  Biso   1.000  O
  C201     1.0000 0.30630  0.17250  0.46500  Biso   1.000  C
  C202     1.0000 0.31660  0.24370  0.45100  Biso   1.000  C
  H126     1.0000 0.36030  0.26830  0.45760  Biso   1.000  H
  C203     1.0000 0.26310  0.27850  0.42750  Biso   1.000  C
  C204     1.0000 0.20060  0.24270  0.41700  Biso   1.000  C
  H127     1.0000 0.16490  0.26660  0.40030  Biso   1.000  H
  C205     1.0000 0.18880  0.17280  0.43020  Biso   1.000  C
  C206     1.0000 0.24070  0.13770  0.45380  Biso   1.000  C
  H128     1.0000 0.23250  0.08930  0.46280  Biso   1.000  H
  C207     1.0000 0.11910  0.14020  0.41710  Biso   1.000  C
  O125     1.0000 0.08930  0.12000  0.44970  Biso   1.000  O
  O126     1.0000 0.10900  0.14100  0.37820  Biso   1.000  O
  C208     1.0000 0.35460  0.27340  0.41230  Biso   1.000  C
  O127     1.0000 0.39260  0.21750  0.40870  Biso   1.000  O
  O128     1.0000 0.37300  0.33730  0.40450  Biso   1.000  O
  C209     1.0000 0.43600  0.83270  0.15119  Biso   1.000  C
  H129     1.0000 0.39160  0.84700  0.13840  Biso   1.000  H
  O129     1.0000 0.30870  0.79710  0.19273  Biso   1.000  O
  O130     1.0000 0.36920  0.73620  0.24459  Biso   1.000  O
  C210     1.0000 0.36500  0.77410  0.21060  Biso   1.000  C
  C211     1.0000 0.43580  0.79080  0.18890  Biso   1.000  C
  O131     1.0000 0.13920  0.82930  0.17250  Biso   1.000  O
  C212     1.0000 0.45410  0.93440  0.07890  Biso   1.000  C
  H130     1.0000 0.40490  0.91430  0.07520  Biso   1.000  H
  H131     1.0000 0.45160  0.97530  0.09940  Biso   1.000  H
  C213     1.0000 0.48290  0.96720  0.03810  Biso   1.000  C
  H132     1.0000 0.54420  0.83020  0.98000  Biso   1.000  H
  H133     1.0000 0.56670  0.84110  0.02910  Biso   1.000  H
  O132     1.0000 0.64530  0.86350  0.98780  Biso   1.000  O
  C214     1.0000 0.67250  0.80630  0.96500  Biso   1.000  C
  C215     1.0000 0.74370  0.81660  0.95100  Biso   1.000  C
  H134     1.0000 0.76830  0.86030  0.95760  Biso   1.000  H
  C216     1.0000 0.77850  0.76310  0.92750  Biso   1.000  C
  C217     1.0000 0.74270  0.70060  0.91700  Biso   1.000  C
  H135     1.0000 0.76660  0.66490  0.90030  Biso   1.000  H
  C218     1.0000 0.67280  0.68880  0.93020  Biso   1.000  C
  C219     1.0000 0.63770  0.74070  0.95380  Biso   1.000  C
  H136     1.0000 0.58930  0.73250  0.96280  Biso   1.000  H
  C220     1.0000 0.64020  0.61910  0.91710  Biso   1.000  C
  O133     1.0000 0.62000  0.58930  0.94970  Biso   1.000  O
  O134     1.0000 0.64100  0.60900  0.87820  Biso   1.000  O
  C221     1.0000 0.77340  0.85460  0.91230  Biso   1.000  C
  O135     1.0000 0.71750  0.89260  0.90870  Biso   1.000  O
  O136     1.0000 0.83730  0.87300  0.90450  Biso   1.000  O
  C222     1.0000 0.93600  0.33270  0.65119  Biso   1.000  C
  H137     1.0000 0.89160  0.34700  0.63840  Biso   1.000  H
  O137     1.0000 0.80870  0.29710  0.69273  Biso   1.000  O
  O138     1.0000 0.86920  0.23620  0.74459  Biso   1.000  O
  C223     1.0000 0.86500  0.27410  0.71060  Biso   1.000  C
  C224     1.0000 0.93580  0.29080  0.68890  Biso   1.000  C
  O139     1.0000 0.63920  0.32930  0.67250  Biso   1.000  O
  C225     1.0000 0.95410  0.43440  0.57890  Biso   1.000  C
  H138     1.0000 0.90490  0.41430  0.57520  Biso   1.000  H
  H139     1.0000 0.95160  0.47530  0.59940  Biso   1.000  H
  C226     1.0000 0.98290  0.46720  0.53810  Biso   1.000  C
  H140     1.0000 0.04420  0.33020  0.48000  Biso   1.000  H
  H141     1.0000 0.06670  0.34110  0.52910  Biso   1.000  H
  O140     1.0000 0.14530  0.36350  0.48780  Biso   1.000  O
  C227     1.0000 0.17250  0.30630  0.46500  Biso   1.000  C
  C228     1.0000 0.24370  0.31660  0.45100  Biso   1.000  C
  H142     1.0000 0.26830  0.36030  0.45760  Biso   1.000  H
  C229     1.0000 0.27850  0.26310  0.42750  Biso   1.000  C
  C230     1.0000 0.24270  0.20060  0.41700  Biso   1.000  C
  H143     1.0000 0.26660  0.16490  0.40030  Biso   1.000  H
  C231     1.0000 0.17280  0.18880  0.43020  Biso   1.000  C
  C232     1.0000 0.13770  0.24070  0.45380  Biso   1.000  C
  H144     1.0000 0.08930  0.23250  0.46280  Biso   1.000  H
  C233     1.0000 0.14020  0.11910  0.41710  Biso   1.000  C
  O141     1.0000 0.12000  0.08930  0.44970  Biso   1.000  O
  O142     1.0000 0.14100  0.10900  0.37820  Biso   1.000  O
  C234     1.0000 0.27340  0.35460  0.41230  Biso   1.000  C
  O143     1.0000 0.21750  0.39260  0.40870  Biso   1.000  O
  O144     1.0000 0.33730  0.37300  0.40450  Biso   1.000  O
  C235     1.0000 0.56400  0.16730  0.15119  Biso   1.000  C
  H145     1.0000 0.60840  0.15300  0.13840  Biso   1.000  H
  O145     1.0000 0.69130  0.20290  0.19273  Biso   1.000  O
  O146     1.0000 0.63080  0.26380  0.24459  Biso   1.000  O
  C236     1.0000 0.63500  0.22590  0.21060  Biso   1.000  C
  C237     1.0000 0.56420  0.20920  0.18890  Biso   1.000  C
  O147     1.0000 0.86080  0.17070  0.17250  Biso   1.000  O
  C238     1.0000 0.54590  0.06560  0.07890  Biso   1.000  C
  H146     1.0000 0.59510  0.08570  0.07520  Biso   1.000  H
  H147     1.0000 0.54840  0.02470  0.09940  Biso   1.000  H
  C239     1.0000 0.51710  0.03280  0.03810  Biso   1.000  C
  H148     1.0000 0.45580  0.16980  0.98000  Biso   1.000  H
  H149     1.0000 0.43330  0.15890  0.02910  Biso   1.000  H
  O148     1.0000 0.35470  0.13650  0.98780  Biso   1.000  O
  C240     1.0000 0.32750  0.19370  0.96500  Biso   1.000  C
  C241     1.0000 0.25630  0.18340  0.95100  Biso   1.000  C
  H150     1.0000 0.23170  0.13970  0.95760  Biso   1.000  H
  C242     1.0000 0.22150  0.23690  0.92750  Biso   1.000  C
  C243     1.0000 0.25730  0.29940  0.91700  Biso   1.000  C
  H151     1.0000 0.23340  0.33510  0.90030  Biso   1.000  H
  C244     1.0000 0.32720  0.31120  0.93020  Biso   1.000  C
  C245     1.0000 0.36230  0.25930  0.95380  Biso   1.000  C
  H152     1.0000 0.41070  0.26750  0.96280  Biso   1.000  H
  C246     1.0000 0.35980  0.38090  0.91710  Biso   1.000  C
  O149     1.0000 0.38000  0.41070  0.94970  Biso   1.000  O
  O150     1.0000 0.35900  0.39100  0.87820  Biso   1.000  O
  C247     1.0000 0.22660  0.14540  0.91230  Biso   1.000  C
  O151     1.0000 0.28250  0.10740  0.90870  Biso   1.000  O
  O152     1.0000 0.16270  0.12700  0.90450  Biso   1.000  O
  C248     1.0000 0.06400  0.66730  0.65119  Biso   1.000  C
  H153     1.0000 0.10840  0.65300  0.63840  Biso   1.000  H
  O153     1.0000 0.19130  0.70290  0.69273  Biso   1.000  O
  O154     1.0000 0.13080  0.76380  0.74459  Biso   1.000  O
  C249     1.0000 0.13500  0.72590  0.71060  Biso   1.000  C
  C250     1.0000 0.06420  0.70920  0.68890  Biso   1.000  C
  O155     1.0000 0.36080  0.67070  0.67250  Biso   1.000  O
  C251     1.0000 0.04590  0.56560  0.57890  Biso   1.000  C
  H154     1.0000 0.09510  0.58570  0.57520  Biso   1.000  H
  H155     1.0000 0.04840  0.52470  0.59940  Biso   1.000  H
  C252     1.0000 0.01710  0.53280  0.53810  Biso   1.000  C
  H156     1.0000 0.95580  0.66980  0.48000  Biso   1.000  H
  H157     1.0000 0.93330  0.65890  0.52910  Biso   1.000  H
  O156     1.0000 0.85470  0.63650  0.48780  Biso   1.000  O
  C253     1.0000 0.82750  0.69370  0.46500  Biso   1.000  C
  C254     1.0000 0.75630  0.68340  0.45100  Biso   1.000  C
  H158     1.0000 0.73170  0.63970  0.45760  Biso   1.000  H
  C255     1.0000 0.72150  0.73690  0.42750  Biso   1.000  C
  C256     1.0000 0.75730  0.79940  0.41700  Biso   1.000  C
  H159     1.0000 0.73340  0.83510  0.40030  Biso   1.000  H
  C257     1.0000 0.82720  0.81120  0.43020  Biso   1.000  C
  C258     1.0000 0.86230  0.75930  0.45380  Biso   1.000  C
  H160     1.0000 0.91070  0.76750  0.46280  Biso   1.000  H
  C259     1.0000 0.85980  0.88090  0.41710  Biso   1.000  C
  O157     1.0000 0.88000  0.91070  0.44970  Biso   1.000  O
  O158     1.0000 0.85900  0.89100  0.37820  Biso   1.000  O
  C260     1.0000 0.72660  0.64540  0.41230  Biso   1.000  C
  O159     1.0000 0.78250  0.60740  0.40870  Biso   1.000  O
  O160     1.0000 0.66270  0.62700  0.40450  Biso   1.000  O
  C261     1.0000 0.16730  0.43600  0.15119  Biso   1.000  C
  H161     1.0000 0.15300  0.39160  0.13840  Biso   1.000  H
  O161     1.0000 0.20290  0.30870  0.19273  Biso   1.000  O
  O162     1.0000 0.26380  0.36920  0.24459  Biso   1.000  O
  C262     1.0000 0.22590  0.36500  0.21060  Biso   1.000  C
  C263     1.0000 0.20920  0.43580  0.18890  Biso   1.000  C
  O163     1.0000 0.17070  0.13920  0.17250  Biso   1.000  O
  C264     1.0000 0.06560  0.45410  0.07890  Biso   1.000  C
  H162     1.0000 0.08570  0.40490  0.07520  Biso   1.000  H
  H163     1.0000 0.02470  0.45160  0.09940  Biso   1.000  H
  C265     1.0000 0.03280  0.48290  0.03810  Biso   1.000  C
  H164     1.0000 0.16980  0.54420  0.98000  Biso   1.000  H
  H165     1.0000 0.15890  0.56670  0.02910  Biso   1.000  H
  O164     1.0000 0.13650  0.64530  0.98780  Biso   1.000  O
  C266     1.0000 0.19370  0.67250  0.96500  Biso   1.000  C
  C267     1.0000 0.18340  0.74370  0.95100  Biso   1.000  C
  H166     1.0000 0.13970  0.76830  0.95760  Biso   1.000  H
  C268     1.0000 0.23690  0.77850  0.92750  Biso   1.000  C
  C269     1.0000 0.29940  0.74270  0.91700  Biso   1.000  C
  H167     1.0000 0.33510  0.76660  0.90030  Biso   1.000  H
  C270     1.0000 0.31120  0.67280  0.93020  Biso   1.000  C
  C271     1.0000 0.25930  0.63770  0.95380  Biso   1.000  C
  H168     1.0000 0.26750  0.58930  0.96280  Biso   1.000  H
  C272     1.0000 0.38090  0.64020  0.91710  Biso   1.000  C
  O165     1.0000 0.41070  0.62000  0.94970  Biso   1.000  O
  O166     1.0000 0.39100  0.64100  0.87820  Biso   1.000  O
  C273     1.0000 0.14540  0.77340  0.91230  Biso   1.000  C
  O167     1.0000 0.10740  0.71750  0.90870  Biso   1.000  O
  O168     1.0000 0.12700  0.83730  0.90450  Biso   1.000  O
  C274     1.0000 0.66730  0.93600  0.65119  Biso   1.000  C
  H169     1.0000 0.65300  0.89160  0.63840  Biso   1.000  H
  O169     1.0000 0.70290  0.80870  0.69273  Biso   1.000  O
  O170     1.0000 0.76380  0.86920  0.74459  Biso   1.000  O
  C275     1.0000 0.72590  0.86500  0.71060  Biso   1.000  C
  C276     1.0000 0.70920  0.93580  0.68890  Biso   1.000  C
  O171     1.0000 0.67070  0.63920  0.67250  Biso   1.000  O
  C277     1.0000 0.56560  0.95410  0.57890  Biso   1.000  C
  H170     1.0000 0.58570  0.90490  0.57520  Biso   1.000  H
  H171     1.0000 0.52470  0.95160  0.59940  Biso   1.000  H
  C278     1.0000 0.53280  0.98290  0.53810  Biso   1.000  C
  H172     1.0000 0.66980  0.04420  0.48000  Biso   1.000  H
  H173     1.0000 0.65890  0.06670  0.52910  Biso   1.000  H
  O172     1.0000 0.63650  0.14530  0.48780  Biso   1.000  O
  C279     1.0000 0.69370  0.17250  0.46500  Biso   1.000  C
  C280     1.0000 0.68340  0.24370  0.45100  Biso   1.000  C
  H174     1.0000 0.63970  0.26830  0.45760  Biso   1.000  H
  C281     1.0000 0.73690  0.27850  0.42750  Biso   1.000  C
  C282     1.0000 0.79940  0.24270  0.41700  Biso   1.000  C
  H175     1.0000 0.83510  0.26660  0.40030  Biso   1.000  H
  C283     1.0000 0.81120  0.17280  0.43020  Biso   1.000  C
  C284     1.0000 0.75930  0.13770  0.45380  Biso   1.000  C
  H176     1.0000 0.76750  0.08930  0.46280  Biso   1.000  H
  C285     1.0000 0.88090  0.14020  0.41710  Biso   1.000  C
  O173     1.0000 0.91070  0.12000  0.44970  Biso   1.000  O
  O174     1.0000 0.89100  0.14100  0.37820  Biso   1.000  O
  C286     1.0000 0.64540  0.27340  0.41230  Biso   1.000  C
  O175     1.0000 0.60740  0.21750  0.40870  Biso   1.000  O
  O176     1.0000 0.62700  0.33730  0.40450  Biso   1.000  O
  C287     1.0000 0.83270  0.56400  0.15119  Biso   1.000  C
  H177     1.0000 0.84700  0.60840  0.13840  Biso   1.000  H
  O177     1.0000 0.79710  0.69130  0.19273  Biso   1.000  O
  O178     1.0000 0.73620  0.63080  0.24459  Biso   1.000  O
  C288     1.0000 0.77410  0.63500  0.21060  Biso   1.000  C
  C289     1.0000 0.79080  0.56420  0.18890  Biso   1.000  C
  O179     1.0000 0.82930  0.86080  0.17250  Biso   1.000  O
  C290     1.0000 0.93440  0.54590  0.07890  Biso   1.000  C
  H178     1.0000 0.91430  0.59510  0.07520  Biso   1.000  H
  H179     1.0000 0.97530  0.54840  0.09940  Biso   1.000  H
  C291     1.0000 0.96720  0.51710  0.03810  Biso   1.000  C
  H180     1.0000 0.83020  0.45580  0.98000  Biso   1.000  H
  H181     1.0000 0.84110  0.43330  0.02910  Biso   1.000  H
  O180     1.0000 0.86350  0.35470  0.98780  Biso   1.000  O
  C292     1.0000 0.80630  0.32750  0.96500  Biso   1.000  C
  C293     1.0000 0.81660  0.25630  0.95100  Biso   1.000  C
  H182     1.0000 0.86030  0.23170  0.95760  Biso   1.000  H
  C294     1.0000 0.76310  0.22150  0.92750  Biso   1.000  C
  C295     1.0000 0.70060  0.25730  0.91700  Biso   1.000  C
  H183     1.0000 0.66490  0.23340  0.90030  Biso   1.000  H
  C296     1.0000 0.68880  0.32720  0.93020  Biso   1.000  C
  C297     1.0000 0.74070  0.36230  0.95380  Biso   1.000  C
  H184     1.0000 0.73250  0.41070  0.96280  Biso   1.000  H
  C298     1.0000 0.61910  0.35980  0.91710  Biso   1.000  C
  O181     1.0000 0.58930  0.38000  0.94970  Biso   1.000  O
  O182     1.0000 0.60900  0.35900  0.87820  Biso   1.000  O
  C299     1.0000 0.85460  0.22660  0.91230  Biso   1.000  C
  O183     1.0000 0.89260  0.28250  0.90870  Biso   1.000  O
  O184     1.0000 0.87300  0.16270  0.90450  Biso   1.000  O
  C300     1.0000 0.33270  0.06400  0.65119  Biso   1.000  C
  H185     1.0000 0.34700  0.10840  0.63840  Biso   1.000  H
  O185     1.0000 0.29710  0.19130  0.69273  Biso   1.000  O
  O186     1.0000 0.23620  0.13080  0.74459  Biso   1.000  O
  C301     1.0000 0.27410  0.13500  0.71060  Biso   1.000  C
  C302     1.0000 0.29080  0.06420  0.68890  Biso   1.000  C
  O187     1.0000 0.32930  0.36080  0.67250  Biso   1.000  O
  C303     1.0000 0.43440  0.04590  0.57890  Biso   1.000  C
  H186     1.0000 0.41430  0.09510  0.57520  Biso   1.000  H
  H187     1.0000 0.47530  0.04840  0.59940  Biso   1.000  H
  C304     1.0000 0.46720  0.01710  0.53810  Biso   1.000  C
  H188     1.0000 0.33020  0.95580  0.48000  Biso   1.000  H
  H189     1.0000 0.34110  0.93330  0.52910  Biso   1.000  H
  O188     1.0000 0.36350  0.85470  0.48780  Biso   1.000  O
  C305     1.0000 0.30630  0.82750  0.46500  Biso   1.000  C
  C306     1.0000 0.31660  0.75630  0.45100  Biso   1.000  C
  H190     1.0000 0.36030  0.73170  0.45760  Biso   1.000  H
  C307     1.0000 0.26310  0.72150  0.42750  Biso   1.000  C
  C308     1.0000 0.20060  0.75730  0.41700  Biso   1.000  C
  H191     1.0000 0.16490  0.73340  0.40030  Biso   1.000  H
  C309     1.0000 0.18880  0.82720  0.43020  Biso   1.000  C
  C310     1.0000 0.24070  0.86230  0.45380  Biso   1.000  C
  H192     1.0000 0.23250  0.91070  0.46280  Biso   1.000  H
  C311     1.0000 0.11910  0.85980  0.41710  Biso   1.000  C
  O189     1.0000 0.08930  0.88000  0.44970  Biso   1.000  O
  O190     1.0000 0.10900  0.85900  0.37820  Biso   1.000  O
  C312     1.0000 0.35460  0.72660  0.41230  Biso   1.000  C
  O191     1.0000 0.39260  0.78250  0.40870  Biso   1.000  O
  O192     1.0000 0.37300  0.66270  0.40450  Biso   1.000  O
  C313     1.0000 0.56400  0.83270  0.84881  Biso   1.000  C
  H193     1.0000 0.60840  0.84700  0.86160  Biso   1.000  H
  O193     1.0000 0.69130  0.79710  0.80727  Biso   1.000  O
  O194     1.0000 0.63080  0.73620  0.75541  Biso   1.000  O
  C314     1.0000 0.63500  0.77410  0.78940  Biso   1.000  C
  C315     1.0000 0.56420  0.79080  0.81110  Biso   1.000  C
  O195     1.0000 0.86080  0.82930  0.82750  Biso   1.000  O
  C316     1.0000 0.54590  0.93440  0.92110  Biso   1.000  C
  H194     1.0000 0.59510  0.91430  0.92480  Biso   1.000  H
  H195     1.0000 0.54840  0.97530  0.90060  Biso   1.000  H
  C317     1.0000 0.51710  0.96720  0.96190  Biso   1.000  C
  H196     1.0000 0.45580  0.83020  0.02000  Biso   1.000  H
  H197     1.0000 0.43330  0.84110  0.97090  Biso   1.000  H
  O196     1.0000 0.35470  0.86350  0.01220  Biso   1.000  O
  C318     1.0000 0.32750  0.80630  0.03500  Biso   1.000  C
  C319     1.0000 0.25630  0.81660  0.04900  Biso   1.000  C
  H198     1.0000 0.23170  0.86030  0.04240  Biso   1.000  H
  C320     1.0000 0.22150  0.76310  0.07250  Biso   1.000  C
  C321     1.0000 0.25730  0.70060  0.08300  Biso   1.000  C
  H199     1.0000 0.23340  0.66490  0.09970  Biso   1.000  H
  C322     1.0000 0.32720  0.68880  0.06980  Biso   1.000  C
  C323     1.0000 0.36230  0.74070  0.04620  Biso   1.000  C
  H200     1.0000 0.41070  0.73250  0.03720  Biso   1.000  H
  C324     1.0000 0.35980  0.61910  0.08290  Biso   1.000  C
  O197     1.0000 0.38000  0.58930  0.05030  Biso   1.000  O
  O198     1.0000 0.35900  0.60900  0.12180  Biso   1.000  O
  C325     1.0000 0.22660  0.85460  0.08770  Biso   1.000  C
  O199     1.0000 0.28250  0.89260  0.09130  Biso   1.000  O
  O200     1.0000 0.16270  0.87300  0.09550  Biso   1.000  O
  C326     1.0000 0.06400  0.33270  0.34881  Biso   1.000  C
  H201     1.0000 0.10840  0.34700  0.36160  Biso   1.000  H
  O201     1.0000 0.19130  0.29710  0.30727  Biso   1.000  O
  O202     1.0000 0.13080  0.23620  0.25541  Biso   1.000  O
  C327     1.0000 0.13500  0.27410  0.28940  Biso   1.000  C
  C328     1.0000 0.06420  0.29080  0.31110  Biso   1.000  C
  O203     1.0000 0.36080  0.32930  0.32750  Biso   1.000  O
  C329     1.0000 0.04590  0.43440  0.42110  Biso   1.000  C
  H202     1.0000 0.09510  0.41430  0.42480  Biso   1.000  H
  H203     1.0000 0.04840  0.47530  0.40060  Biso   1.000  H
  C330     1.0000 0.01710  0.46720  0.46190  Biso   1.000  C
  H204     1.0000 0.95580  0.33020  0.52000  Biso   1.000  H
  H205     1.0000 0.93330  0.34110  0.47090  Biso   1.000  H
  O204     1.0000 0.85470  0.36350  0.51220  Biso   1.000  O
  C331     1.0000 0.82750  0.30630  0.53500  Biso   1.000  C
  C332     1.0000 0.75630  0.31660  0.54900  Biso   1.000  C
  H206     1.0000 0.73170  0.36030  0.54240  Biso   1.000  H
  C333     1.0000 0.72150  0.26310  0.57250  Biso   1.000  C
  C334     1.0000 0.75730  0.20060  0.58300  Biso   1.000  C
  H207     1.0000 0.73340  0.16490  0.59970  Biso   1.000  H
  C335     1.0000 0.82720  0.18880  0.56980  Biso   1.000  C
  C336     1.0000 0.86230  0.24070  0.54620  Biso   1.000  C
  H208     1.0000 0.91070  0.23250  0.53720  Biso   1.000  H
  C337     1.0000 0.85980  0.11910  0.58290  Biso   1.000  C
  O205     1.0000 0.88000  0.08930  0.55030  Biso   1.000  O
  O206     1.0000 0.85900  0.10900  0.62180  Biso   1.000  O
  C338     1.0000 0.72660  0.35460  0.58770  Biso   1.000  C
  O207     1.0000 0.78250  0.39260  0.59130  Biso   1.000  O
  O208     1.0000 0.66270  0.37300  0.59550  Biso   1.000  O
  C339     1.0000 0.43600  0.16730  0.84881  Biso   1.000  C
  H209     1.0000 0.39160  0.15300  0.86160  Biso   1.000  H
  O209     1.0000 0.30870  0.20290  0.80727  Biso   1.000  O
  O210     1.0000 0.36920  0.26380  0.75541  Biso   1.000  O
  C340     1.0000 0.36500  0.22590  0.78940  Biso   1.000  C
  C341     1.0000 0.43580  0.20920  0.81110  Biso   1.000  C
  O211     1.0000 0.13920  0.17070  0.82750  Biso   1.000  O
  C342     1.0000 0.45410  0.06560  0.92110  Biso   1.000  C
  H210     1.0000 0.40490  0.08570  0.92480  Biso   1.000  H
  H211     1.0000 0.45160  0.02470  0.90060  Biso   1.000  H
  C343     1.0000 0.48290  0.03280  0.96190  Biso   1.000  C
  H212     1.0000 0.54420  0.16980  0.02000  Biso   1.000  H
  H213     1.0000 0.56670  0.15890  0.97090  Biso   1.000  H
  O212     1.0000 0.64530  0.13650  0.01220  Biso   1.000  O
  C344     1.0000 0.67250  0.19370  0.03500  Biso   1.000  C
  C345     1.0000 0.74370  0.18340  0.04900  Biso   1.000  C
  H214     1.0000 0.76830  0.13970  0.04240  Biso   1.000  H
  C346     1.0000 0.77850  0.23690  0.07250  Biso   1.000  C
  C347     1.0000 0.74270  0.29940  0.08300  Biso   1.000  C
  H215     1.0000 0.76660  0.33510  0.09970  Biso   1.000  H
  C348     1.0000 0.67280  0.31120  0.06980  Biso   1.000  C
  C349     1.0000 0.63770  0.25930  0.04620  Biso   1.000  C
  H216     1.0000 0.58930  0.26750  0.03720  Biso   1.000  H
  C350     1.0000 0.64020  0.38090  0.08290  Biso   1.000  C
  O213     1.0000 0.62000  0.41070  0.05030  Biso   1.000  O
  O214     1.0000 0.64100  0.39100  0.12180  Biso   1.000  O
  C351     1.0000 0.77340  0.14540  0.08770  Biso   1.000  C
  O215     1.0000 0.71750  0.10740  0.09130  Biso   1.000  O
  O216     1.0000 0.83730  0.12700  0.09550  Biso   1.000  O
  C352     1.0000 0.93600  0.66730  0.34881  Biso   1.000  C
  H217     1.0000 0.89160  0.65300  0.36160  Biso   1.000  H
  O217     1.0000 0.80870  0.70290  0.30727  Biso   1.000  O
  O218     1.0000 0.86920  0.76380  0.25541  Biso   1.000  O
  C353     1.0000 0.86500  0.72590  0.28940  Biso   1.000  C
  C354     1.0000 0.93580  0.70920  0.31110  Biso   1.000  C
  O219     1.0000 0.63920  0.67070  0.32750  Biso   1.000  O
  C355     1.0000 0.95410  0.56560  0.42110  Biso   1.000  C
  H218     1.0000 0.90490  0.58570  0.42480  Biso   1.000  H
  H219     1.0000 0.95160  0.52470  0.40060  Biso   1.000  H
  C356     1.0000 0.98290  0.53280  0.46190  Biso   1.000  C
  H220     1.0000 0.04420  0.66980  0.52000  Biso   1.000  H
  H221     1.0000 0.06670  0.65890  0.47090  Biso   1.000  H
  O220     1.0000 0.14530  0.63650  0.51220  Biso   1.000  O
  C357     1.0000 0.17250  0.69370  0.53500  Biso   1.000  C
  C358     1.0000 0.24370  0.68340  0.54900  Biso   1.000  C
  H222     1.0000 0.26830  0.63970  0.54240  Biso   1.000  H
  C359     1.0000 0.27850  0.73690  0.57250  Biso   1.000  C
  C360     1.0000 0.24270  0.79940  0.58300  Biso   1.000  C
  H223     1.0000 0.26660  0.83510  0.59970  Biso   1.000  H
  C361     1.0000 0.17280  0.81120  0.56980  Biso   1.000  C
  C362     1.0000 0.13770  0.75930  0.54620  Biso   1.000  C
  H224     1.0000 0.08930  0.76750  0.53720  Biso   1.000  H
  C363     1.0000 0.14020  0.88090  0.58290  Biso   1.000  C
  O221     1.0000 0.12000  0.91070  0.55030  Biso   1.000  O
  O222     1.0000 0.14100  0.89100  0.62180  Biso   1.000  O
  C364     1.0000 0.27340  0.64540  0.58770  Biso   1.000  C
  O223     1.0000 0.21750  0.60740  0.59130  Biso   1.000  O
  O224     1.0000 0.33730  0.62700  0.59550  Biso   1.000  O
  C365     1.0000 0.83270  0.43600  0.84881  Biso   1.000  C
  H225     1.0000 0.84700  0.39160  0.86160  Biso   1.000  H
  O225     1.0000 0.79710  0.30870  0.80727  Biso   1.000  O
  O226     1.0000 0.73620  0.36920  0.75541  Biso   1.000  O
  C366     1.0000 0.77410  0.36500  0.78940  Biso   1.000  C
  C367     1.0000 0.79080  0.43580  0.81110  Biso   1.000  C
  O227     1.0000 0.82930  0.13920  0.82750  Biso   1.000  O
  C368     1.0000 0.93440  0.45410  0.92110  Biso   1.000  C
  H226     1.0000 0.91430  0.40490  0.92480  Biso   1.000  H
  H227     1.0000 0.97530  0.45160  0.90060  Biso   1.000  H
  C369     1.0000 0.96720  0.48290  0.96190  Biso   1.000  C
  H228     1.0000 0.83020  0.54420  0.02000  Biso   1.000  H
  H229     1.0000 0.84110  0.56670  0.97090  Biso   1.000  H
  O228     1.0000 0.86350  0.64530  0.01220  Biso   1.000  O
  C370     1.0000 0.80630  0.67250  0.03500  Biso   1.000  C
  C371     1.0000 0.81660  0.74370  0.04900  Biso   1.000  C
  H230     1.0000 0.86030  0.76830  0.04240  Biso   1.000  H
  C372     1.0000 0.76310  0.77850  0.07250  Biso   1.000  C
  C373     1.0000 0.70060  0.74270  0.08300  Biso   1.000  C
  H231     1.0000 0.66490  0.76660  0.09970  Biso   1.000  H
  C374     1.0000 0.68880  0.67280  0.06980  Biso   1.000  C
  C375     1.0000 0.74070  0.63770  0.04620  Biso   1.000  C
  H232     1.0000 0.73250  0.58930  0.03720  Biso   1.000  H
  C376     1.0000 0.61910  0.64020  0.08290  Biso   1.000  C
  O229     1.0000 0.58930  0.62000  0.05030  Biso   1.000  O
  O230     1.0000 0.60900  0.64100  0.12180  Biso   1.000  O
  C377     1.0000 0.85460  0.77340  0.08770  Biso   1.000  C
  O231     1.0000 0.89260  0.71750  0.09130  Biso   1.000  O
  O232     1.0000 0.87300  0.83730  0.09550  Biso   1.000  O
  C378     1.0000 0.33270  0.93600  0.34881  Biso   1.000  C
  H233     1.0000 0.34700  0.89160  0.36160  Biso   1.000  H
  O233     1.0000 0.29710  0.80870  0.30727  Biso   1.000  O
  O234     1.0000 0.23620  0.86920  0.25541  Biso   1.000  O
  C379     1.0000 0.27410  0.86500  0.28940  Biso   1.000  C
  C380     1.0000 0.29080  0.93580  0.31110  Biso   1.000  C
  O235     1.0000 0.32930  0.63920  0.32750  Biso   1.000  O
  C381     1.0000 0.43440  0.95410  0.42110  Biso   1.000  C
  H234     1.0000 0.41430  0.90490  0.42480  Biso   1.000  H
  H235     1.0000 0.47530  0.95160  0.40060  Biso   1.000  H
  C382     1.0000 0.46720  0.98290  0.46190  Biso   1.000  C
  H236     1.0000 0.33020  0.04420  0.52000  Biso   1.000  H
  H237     1.0000 0.34110  0.06670  0.47090  Biso   1.000  H
  O236     1.0000 0.36350  0.14530  0.51220  Biso   1.000  O
  C383     1.0000 0.30630  0.17250  0.53500  Biso   1.000  C
  C384     1.0000 0.31660  0.24370  0.54900  Biso   1.000  C
  H238     1.0000 0.36030  0.26830  0.54240  Biso   1.000  H
  C385     1.0000 0.26310  0.27850  0.57250  Biso   1.000  C
  C386     1.0000 0.20060  0.24270  0.58300  Biso   1.000  C
  H239     1.0000 0.16490  0.26660  0.59970  Biso   1.000  H
  C387     1.0000 0.18880  0.17280  0.56980  Biso   1.000  C
  C388     1.0000 0.24070  0.13770  0.54620  Biso   1.000  C
  H240     1.0000 0.23250  0.08930  0.53720  Biso   1.000  H
  C389     1.0000 0.11910  0.14020  0.58290  Biso   1.000  C
  O237     1.0000 0.08930  0.12000  0.55030  Biso   1.000  O
  O238     1.0000 0.10900  0.14100  0.62180  Biso   1.000  O
  C390     1.0000 0.35460  0.27340  0.58770  Biso   1.000  C
  O239     1.0000 0.39260  0.21750  0.59130  Biso   1.000  O
  O240     1.0000 0.37300  0.33730  0.59550  Biso   1.000  O
  C391     1.0000 0.16730  0.56400  0.84881  Biso   1.000  C
  H241     1.0000 0.15300  0.60840  0.86160  Biso   1.000  H
  O241     1.0000 0.20290  0.69130  0.80727  Biso   1.000  O
  O242     1.0000 0.26380  0.63080  0.75541  Biso   1.000  O
  C392     1.0000 0.22590  0.63500  0.78940  Biso   1.000  C
  C393     1.0000 0.20920  0.56420  0.81110  Biso   1.000  C
  O243     1.0000 0.17070  0.86080  0.82750  Biso   1.000  O
  C394     1.0000 0.06560  0.54590  0.92110  Biso   1.000  C
  H242     1.0000 0.08570  0.59510  0.92480  Biso   1.000  H
  H243     1.0000 0.02470  0.54840  0.90060  Biso   1.000  H
  C395     1.0000 0.03280  0.51710  0.96190  Biso   1.000  C
  H244     1.0000 0.16980  0.45580  0.02000  Biso   1.000  H
  H245     1.0000 0.15890  0.43330  0.97090  Biso   1.000  H
  O244     1.0000 0.13650  0.35470  0.01220  Biso   1.000  O
  C396     1.0000 0.19370  0.32750  0.03500  Biso   1.000  C
  C397     1.0000 0.18340  0.25630  0.04900  Biso   1.000  C
  H246     1.0000 0.13970  0.23170  0.04240  Biso   1.000  H
  C398     1.0000 0.23690  0.22150  0.07250  Biso   1.000  C
  C399     1.0000 0.29940  0.25730  0.08300  Biso   1.000  C
  H247     1.0000 0.33510  0.23340  0.09970  Biso   1.000  H
  C400     1.0000 0.31120  0.32720  0.06980  Biso   1.000  C
  C401     1.0000 0.25930  0.36230  0.04620  Biso   1.000  C
  H248     1.0000 0.26750  0.41070  0.03720  Biso   1.000  H
  C402     1.0000 0.38090  0.35980  0.08290  Biso   1.000  C
  O245     1.0000 0.41070  0.38000  0.05030  Biso   1.000  O
  O246     1.0000 0.39100  0.35900  0.12180  Biso   1.000  O
  C403     1.0000 0.14540  0.22660  0.08770  Biso   1.000  C
  O247     1.0000 0.10740  0.28250  0.09130  Biso   1.000  O
  O248     1.0000 0.12700  0.16270  0.09550  Biso   1.000  O
  C404     1.0000 0.66730  0.06400  0.34881  Biso   1.000  C
  H249     1.0000 0.65300  0.10840  0.36160  Biso   1.000  H
  O249     1.0000 0.70290  0.19130  0.30727  Biso   1.000  O
  O250     1.0000 0.76380  0.13080  0.25541  Biso   1.000  O
  C405     1.0000 0.72590  0.13500  0.28940  Biso   1.000  C
  C406     1.0000 0.70920  0.06420  0.31110  Biso   1.000  C
  O251     1.0000 0.67070  0.36080  0.32750  Biso   1.000  O
  C407     1.0000 0.56560  0.04590  0.42110  Biso   1.000  C
  H250     1.0000 0.58570  0.09510  0.42480  Biso   1.000  H
  H251     1.0000 0.52470  0.04840  0.40060  Biso   1.000  H
  C408     1.0000 0.53280  0.01710  0.46190  Biso   1.000  C
  H252     1.0000 0.66980  0.95580  0.52000  Biso   1.000  H
  H253     1.0000 0.65890  0.93330  0.47090  Biso   1.000  H
  O252     1.0000 0.63650  0.85470  0.51220  Biso   1.000  O
  C409     1.0000 0.69370  0.82750  0.53500  Biso   1.000  C
  C410     1.0000 0.68340  0.75630  0.54900  Biso   1.000  C
  H254     1.0000 0.63970  0.73170  0.54240  Biso   1.000  H
  C411     1.0000 0.73690  0.72150  0.57250  Biso   1.000  C
  C412     1.0000 0.79940  0.75730  0.58300  Biso   1.000  C
  H255     1.0000 0.83510  0.73340  0.59970  Biso   1.000  H
  C413     1.0000 0.81120  0.82720  0.56980  Biso   1.000  C
  C414     1.0000 0.75930  0.86230  0.54620  Biso   1.000  C
  H256     1.0000 0.76750  0.91070  0.53720  Biso   1.000  H
  C415     1.0000 0.88090  0.85980  0.58290  Biso   1.000  C
  O253     1.0000 0.91070  0.88000  0.55030  Biso   1.000  O
  O254     1.0000 0.89100  0.85900  0.62180  Biso   1.000  O
  C416     1.0000 0.64540  0.72660  0.58770  Biso   1.000  C
  O255     1.0000 0.60740  0.78250  0.59130  Biso   1.000  O
  O256     1.0000 0.62700  0.66270  0.59550  Biso   1.000  O
  Cu1      1.0000 0.78583  0.21417  0.78021  Biso   1.000  Cu
  Cu2      1.0000 0.28583  0.71417  0.28021  Biso   1.000  Cu
  Cu3      1.0000 0.21417  0.78583  0.78021  Biso   1.000  Cu
  Cu4      1.0000 0.71417  0.28583  0.28021  Biso   1.000  Cu
  Cu5      1.0000 0.78583  0.78583  0.78021  Biso   1.000  Cu
  Cu6      1.0000 0.28583  0.28583  0.28021  Biso   1.000  Cu
  Cu7      1.0000 0.21417  0.21417  0.78021  Biso   1.000  Cu
  Cu8      1.0000 0.71417  0.71417  0.28021  Biso   1.000  Cu
  Cu9      1.0000 0.21417  0.21417  0.21979  Biso   1.000  Cu
  Cu10     1.0000 0.71417  0.71417  0.71979  Biso   1.000  Cu
  Cu11     1.0000 0.78583  0.78583  0.21979  Biso   1.000  Cu
  Cu12     1.0000 0.28583  0.28583  0.71979  Biso   1.000  Cu
  Cu13     1.0000 0.21417  0.78583  0.21979  Biso   1.000  Cu
  Cu14     1.0000 0.71417  0.28583  0.71979  Biso   1.000  Cu
  Cu15     1.0000 0.78583  0.21417  0.21979  Biso   1.000  Cu
  Cu16     1.0000 0.28583  0.71417  0.71979  Biso   1.000  Cu
  C417     1.0000 0.50000  0.14710  0.86700  Biso   1.000  C
  O257     1.0000 0.50000  0.11230  0.90480  Biso   1.000  O
  C418     1.0000 0.50000  0.22810  0.79260  Biso   1.000  C
  H257     1.0000 0.50000  0.25480  0.76650  Biso   1.000  H
  C419     1.0000 0.00000  0.64710  0.36700  Biso   1.000  C
  O258     1.0000 0.00000  0.61230  0.40480  Biso   1.000  O
  C420     1.0000 0.00000  0.72810  0.29260  Biso   1.000  C
  H258     1.0000 0.00000  0.75480  0.26650  Biso   1.000  H
  C421     1.0000 0.50000  0.85290  0.86700  Biso   1.000  C
  O259     1.0000 0.50000  0.88770  0.90480  Biso   1.000  O
  C422     1.0000 0.50000  0.77190  0.79260  Biso   1.000  C
  H259     1.0000 0.50000  0.74520  0.76650  Biso   1.000  H
  C423     1.0000 0.00000  0.35290  0.36700  Biso   1.000  C
  O260     1.0000 0.00000  0.38770  0.40480  Biso   1.000  O
  C424     1.0000 0.00000  0.27190  0.29260  Biso   1.000  C
  H260     1.0000 0.00000  0.24520  0.26650  Biso   1.000  H
  C425     1.0000 0.85290  0.50000  0.86700  Biso   1.000  C
  O261     1.0000 0.88770  0.50000  0.90480  Biso   1.000  O
  C426     1.0000 0.77190  0.50000  0.79260  Biso   1.000  C
  H261     1.0000 0.74520  0.50000  0.76650  Biso   1.000  H
  C427     1.0000 0.35290  0.00000  0.36700  Biso   1.000  C
  O262     1.0000 0.38770  0.00000  0.40480  Biso   1.000  O
  C428     1.0000 0.27190  0.00000  0.29260  Biso   1.000  C
  H262     1.0000 0.24520  0.00000  0.26650  Biso   1.000  H
  C429     1.0000 0.14710  0.50000  0.86700  Biso   1.000  C
  O263     1.0000 0.11230  0.50000  0.90480  Biso   1.000  O
  C430     1.0000 0.22810  0.50000  0.79260  Biso   1.000  C
  H263     1.0000 0.25480  0.50000  0.76650  Biso   1.000  H
  C431     1.0000 0.64710  0.00000  0.36700  Biso   1.000  C
  O264     1.0000 0.61230  0.00000  0.40480  Biso   1.000  O
  C432     1.0000 0.72810  0.00000  0.29260  Biso   1.000  C
  H264     1.0000 0.75480  0.00000  0.26650  Biso   1.000  H
  C433     1.0000 0.50000  0.14710  0.13300  Biso   1.000  C
  O265     1.0000 0.50000  0.11230  0.09520  Biso   1.000  O
  C434     1.0000 0.50000  0.22810  0.20740  Biso   1.000  C
  H265     1.0000 0.50000  0.25480  0.23350  Biso   1.000  H
  C435     1.0000 0.00000  0.64710  0.63300  Biso   1.000  C
  O266     1.0000 0.00000  0.61230  0.59520  Biso   1.000  O
  C436     1.0000 0.00000  0.72810  0.70740  Biso   1.000  C
  H266     1.0000 0.00000  0.75480  0.73350  Biso   1.000  H
  C437     1.0000 0.50000  0.85290  0.13300  Biso   1.000  C
  O267     1.0000 0.50000  0.88770  0.09520  Biso   1.000  O
  C438     1.0000 0.50000  0.77190  0.20740  Biso   1.000  C
  H267     1.0000 0.50000  0.74520  0.23350  Biso   1.000  H
  C439     1.0000 0.00000  0.35290  0.63300  Biso   1.000  C
  O268     1.0000 0.00000  0.38770  0.59520  Biso   1.000  O
  C440     1.0000 0.00000  0.27190  0.70740  Biso   1.000  C
  H268     1.0000 0.00000  0.24520  0.73350  Biso   1.000  H
  C441     1.0000 0.14710  0.50000  0.13300  Biso   1.000  C
  O269     1.0000 0.11230  0.50000  0.09520  Biso   1.000  O
  C442     1.0000 0.22810  0.50000  0.20740  Biso   1.000  C
  H269     1.0000 0.25480  0.50000  0.23350  Biso   1.000  H
  C443     1.0000 0.64710  0.00000  0.63300  Biso   1.000  C
  O270     1.0000 0.61230  0.00000  0.59520  Biso   1.000  O
  C444     1.0000 0.72810  0.00000  0.70740  Biso   1.000  C
  H270     1.0000 0.75480  0.00000  0.73350  Biso   1.000  H
  C445     1.0000 0.85290  0.50000  0.13300  Biso   1.000  C
  O271     1.0000 0.88770  0.50000  0.09520  Biso   1.000  O
  C446     1.0000 0.77190  0.50000  0.20740  Biso   1.000  C
  H271     1.0000 0.74520  0.50000  0.23350  Biso   1.000  H
  C447     1.0000 0.35290  0.00000  0.63300  Biso   1.000  C
  O272     1.0000 0.38770  0.00000  0.59520  Biso   1.000  O
  C448     1.0000 0.27190  0.00000  0.70740  Biso   1.000  C
  H272     1.0000 0.24520  0.00000  0.73350  Biso   1.000  H
  C449     1.0000 0.46450  0.06540  0.00000  Biso   1.000  C
  C450     1.0000 0.42930  0.13780  0.00000  Biso   1.000  C
  C451     1.0000 0.96450  0.56540  0.50000  Biso   1.000  C
  C452     1.0000 0.92930  0.63780  0.50000  Biso   1.000  C
  C453     1.0000 0.53550  0.93460  0.00000  Biso   1.000  C
  C454     1.0000 0.57070  0.86220  0.00000  Biso   1.000  C
  C455     1.0000 0.03550  0.43460  0.50000  Biso   1.000  C
  C456     1.0000 0.07070  0.36220  0.50000  Biso   1.000  C
  C457     1.0000 0.93460  0.46450  0.00000  Biso   1.000  C
  C458     1.0000 0.86220  0.42930  0.00000  Biso   1.000  C
  C459     1.0000 0.43460  0.96450  0.50000  Biso   1.000  C
  C460     1.0000 0.36220  0.92930  0.50000  Biso   1.000  C
  C461     1.0000 0.06540  0.53550  0.00000  Biso   1.000  C
  C462     1.0000 0.13780  0.57070  0.00000  Biso   1.000  C
  C463     1.0000 0.56540  0.03550  0.50000  Biso   1.000  C
  C464     1.0000 0.63780  0.07070  0.50000  Biso   1.000  C
  C465     1.0000 0.53550  0.06540  0.00000  Biso   1.000  C
  C466     1.0000 0.57070  0.13780  0.00000  Biso   1.000  C
  C467     1.0000 0.03550  0.56540  0.50000  Biso   1.000  C
  C468     1.0000 0.07070  0.63780  0.50000  Biso   1.000  C
  C469     1.0000 0.46450  0.93460  0.00000  Biso   1.000  C
  C470     1.0000 0.42930  0.86220  0.00000  Biso   1.000  C
  C471     1.0000 0.96450  0.43460  0.50000  Biso   1.000  C
  C472     1.0000 0.92930  0.36220  0.50000  Biso   1.000  C
  C473     1.0000 0.06540  0.46450  0.00000  Biso   1.000  C
  C474     1.0000 0.13780  0.42930  0.00000  Biso   1.000  C
  C475     1.0000 0.56540  0.96450  0.50000  Biso   1.000  C
  C476     1.0000 0.63780  0.92930  0.50000  Biso   1.000  C
  C477     1.0000 0.93460  0.53550  0.00000  Biso   1.000  C
  C478     1.0000 0.86220  0.57070  0.00000  Biso   1.000  C
  C479     1.0000 0.43460  0.03550  0.50000  Biso   1.000  C
  C480     1.0000 0.36220  0.07070  0.50000  Biso   1.000  C
