data_image0
_cell_length_a       24.614
_cell_length_b       24.614
_cell_length_c       47.332
_cell_angle_alpha    90
_cell_angle_beta     90
_cell_angle_gamma    90

_symmetry_space_group_name_H-M    "P 1"
_symmetry_int_tables_number       1

loop_
  _symmetry_equiv_pos_as_xyz
  'x, y, z'

loop_
  _atom_site_label
  _atom_site_occupancy
  _atom_site_fract_x
  _atom_site_fract_y
  _atom_site_fract_z
  _atom_site_thermal_displace_type
  _atom_site_B_iso_or_equiv
  _atom_site_type_symbol
  Ag1      1.0000 0.71794  0.65908  0.22818  Biso   1.000  Ag
  Ag2      1.0000 0.64601  0.11056  0.00087  Biso   1.000  Ag
  Ag3      1.0000 0.68697  0.99880  0.96209  Biso   1.000  Ag
  Ag4      1.0000 0.67157  0.55607  0.27230  Biso   1.000  Ag
  Ag5      1.0000 0.72797  0.74295  0.28991  Biso   1.000  Ag
  Ag6      1.0000 0.87462  0.71386  0.31155  Biso   1.000  Ag
  Ag7      1.0000 0.40753  0.19996  0.15255  Biso   1.000  Ag
  Ag8      1.0000 0.65111  0.64164  0.34256  Biso   1.000  Ag
  Pd1      1.0000 0.75814  0.49800  0.20505  Biso   1.000  Pd
  Pd2      1.0000 0.83731  0.77653  0.23060  Biso   1.000  Pd
  Pd3      1.0000 0.43166  0.04526  0.18614  Biso   1.000  Pd
  Pd4      1.0000 0.81565  0.97602  0.90364  Biso   1.000  Pd
  Pd5      1.0000 0.57241  0.68649  0.26797  Biso   1.000  Pd
  Pd6      1.0000 0.76195  0.74832  0.37398  Biso   1.000  Pd
  I1       1.0000 0.73655  0.12644  0.95947  Biso   1.000  I
  La1      1.0000 0.57930  0.88002  0.13572  Biso   1.000  La
  S1       1.0000 0.69781  0.56069  0.21995  Biso   1.000  S
  S2       1.0000 0.67359  0.01481  0.01389  Biso   1.000  S
  S3       1.0000 0.81357  0.68939  0.22138  Biso   1.000  S
  S4       1.0000 0.82221  0.77552  0.27806  Biso   1.000  S
  S5       1.0000 0.57741  0.13690  0.96416  Biso   1.000  S
  S6       1.0000 0.46849  0.12653  0.17334  Biso   1.000  S
  S7       1.0000 0.78543  0.98055  0.94859  Biso   1.000  S
  S8       1.0000 0.43903  0.29390  0.13974  Biso   1.000  S
  S9       1.0000 0.60264  0.61811  0.29622  Biso   1.000  S
  S10      1.0000 0.65404  0.71944  0.25419  Biso   1.000  S
  S11      1.0000 0.69739  0.73346  0.34074  Biso   1.000  S
  S12      1.0000 0.82647  0.69084  0.35797  Biso   1.000  S
  O1       1.0000 0.60938  0.45656  0.14878  Biso   1.000  O
  O2       1.0000 0.59175  0.53800  0.13414  Biso   1.000  O
  O3       1.0000 0.61493  0.89146  0.08712  Biso   1.000  O
  O4       1.0000 0.56360  0.87080  0.04893  Biso   1.000  O
  O5       1.0000 0.87646  0.76655  0.13268  Biso   1.000  O
  O6       1.0000 0.79845  0.72670  0.12396  Biso   1.000  O
  O7       1.0000 0.84650  0.96010  0.24293  Biso   1.000  O
  O8       1.0000 0.89400  0.95370  0.28214  Biso   1.000  O
  O9       1.0000 0.38360  0.13159  0.97427  Biso   1.000  O
  O10      1.0000 0.40110  0.21931  0.96794  Biso   1.000  O
  O11      1.0000 0.57284  0.97901  0.12917  Biso   1.000  O
  O12      1.0000 0.63243  0.04323  0.14206  Biso   1.000  O
  O13      1.0000 0.86443  0.80034  0.93468  Biso   1.000  O
  O14      1.0000 0.78610  0.78610  0.95652  Biso   1.000  O
  O15      1.0000 0.54790  0.33620  0.05694  Biso   1.000  O
  O16      1.0000 0.46820  0.37140  0.04783  Biso   1.000  O
  O17      1.0000 0.41040  0.59430  0.29129  Biso   1.000  O
  O18      1.0000 0.43080  0.59160  0.33895  Biso   1.000  O
  O19      1.0000 0.51455  0.82545  0.20648  Biso   1.000  O
  O20      1.0000 0.58195  0.81335  0.17592  Biso   1.000  O
  O21      1.0000 0.64384  0.88817  0.39585  Biso   1.000  O
  O22      1.0000 0.56603  0.84180  0.39026  Biso   1.000  O
  O23      1.0000 0.88674  0.76670  0.44499  Biso   1.000  O
  O24      1.0000 0.96191  0.75420  0.42123  Biso   1.000  O
  N1       1.0000 0.70461  0.48373  0.17426  Biso   1.000  N
  H1       1.0000 0.72340  0.47900  0.15760  Biso   1.000  H
  H2       1.0000 0.68710  0.45160  0.17820  Biso   1.000  H
  N2       1.0000 0.69318  0.93594  0.05949  Biso   1.000  N
  H3       1.0000 0.71330  0.90450  0.05980  Biso   1.000  H
  H4       1.0000 0.68330  0.94360  0.07780  Biso   1.000  H
  N3       1.0000 0.84340  0.78510  0.18818  Biso   1.000  N
  H5       1.0000 0.83010  0.81870  0.18320  Biso   1.000  H
  H6       1.0000 0.87960  0.78410  0.18320  Biso   1.000  H
  N4       1.0000 0.86990  0.85282  0.23704  Biso   1.000  N
  H7       1.0000 0.90350  0.85410  0.22860  Biso   1.000  H
  H8       1.0000 0.84810  0.87790  0.22810  Biso   1.000  H
  N5       1.0000 0.46965  0.10003  0.94543  Biso   1.000  N
  H9       1.0000 0.44910  0.10020  0.92920  Biso   1.000  H
  H10      1.0000 0.45270  0.07740  0.95820  Biso   1.000  H
  N6       1.0000 0.49275  0.01200  0.16276  Biso   1.000  N
  H11      1.0000 0.50330  0.97990  0.17100  Biso   1.000  H
  H12      1.0000 0.47980  0.00410  0.14500  Biso   1.000  H
  N7       1.0000 0.83056  0.89553  0.91150  Biso   1.000  N
  H13      1.0000 0.81950  0.87530  0.89620  Biso   1.000  H
  H14      1.0000 0.86740  0.89050  0.91370  Biso   1.000  H
  N8       1.0000 0.53140  0.34340  0.11309  Biso   1.000  N
  H15      1.0000 0.54830  0.37670  0.11380  Biso   1.000  H
  H16      1.0000 0.55440  0.32020  0.10370  Biso   1.000  H
  N9       1.0000 0.49760  0.66333  0.28290  Biso   1.000  N
  H17      1.0000 0.47860  0.69430  0.28740  Biso   1.000  H
  H18      1.0000 0.47930  0.64660  0.26840  Biso   1.000  H
  N10      1.0000 0.54258  0.74080  0.23718  Biso   1.000  N
  H19      1.0000 0.51560  0.72380  0.22700  Biso   1.000  H
  H20      1.0000 0.52740  0.77030  0.24610  Biso   1.000  H
  N11      1.0000 0.70726  0.79876  0.39164  Biso   1.000  N
  H21      1.0000 0.70600  0.79110  0.41070  Biso   1.000  H
  H22      1.0000 0.72040  0.83360  0.38980  Biso   1.000  H
  N12      1.0000 0.81932  0.76760  0.40349  Biso   1.000  N
  H23      1.0000 0.82020  0.80480  0.40540  Biso   1.000  H
  H24      1.0000 0.80850  0.75340  0.42060  Biso   1.000  H
  C1       1.0000 0.63980  0.54400  0.19598  Biso   1.000  C
  C2       1.0000 0.66440  0.52510  0.16989  Biso   1.000  C
  H25      1.0000 0.68320  0.55690  0.16110  Biso   1.000  H
  C3       1.0000 0.61750  0.50610  0.14827  Biso   1.000  C
  C4       1.0000 0.60300  0.50230  0.20976  Biso   1.000  C
  H26      1.0000 0.58760  0.51740  0.22710  Biso   1.000  H
  H27      1.0000 0.62400  0.46960  0.21430  Biso   1.000  H
  H28      1.0000 0.57350  0.49280  0.19670  Biso   1.000  H
  C5       1.0000 0.60770  0.60350  0.19155  Biso   1.000  C
  H29      1.0000 0.59150  0.61490  0.20950  Biso   1.000  H
  H30      1.0000 0.57920  0.59940  0.17730  Biso   1.000  H
  H31      1.0000 0.63380  0.63110  0.18530  Biso   1.000  H
  C6       1.0000 0.61825  0.97627  0.03229  Biso   1.000  C
  C7       1.0000 0.64290  0.92589  0.04265  Biso   1.000  C
  H32      1.0000 0.65340  0.90380  0.02580  Biso   1.000  H
  C8       1.0000 0.60380  0.89000  0.06121  Biso   1.000  C
  C9       1.0000 0.59700  0.01550  0.05630  Biso   1.000  C
  H33      1.0000 0.58080  0.04790  0.04770  Biso   1.000  H
  H34      1.0000 0.62740  0.02630  0.06840  Biso   1.000  H
  H35      1.0000 0.56950  0.99670  0.06770  Biso   1.000  H
  C10      1.0000 0.57580  0.96850  0.00892  Biso   1.000  C
  H36      1.0000 0.56030  0.00380  0.00380  Biso   1.000  H
  H37      1.0000 0.54690  0.94450  0.01570  Biso   1.000  H
  H38      1.0000 0.59310  0.95220  0.99230  Biso   1.000  H
  C11      1.0000 0.83290  0.68350  0.18280  Biso   1.000  C
  C12      1.0000 0.81320  0.74180  0.17137  Biso   1.000  C
  H39      1.0000 0.77290  0.74630  0.17270  Biso   1.000  H
  C13      1.0000 0.83455  0.74560  0.13919  Biso   1.000  C
  C14      1.0000 0.89710  0.67630  0.18210  Biso   1.000  C
  H40      1.0000 0.91440  0.70840  0.19040  Biso   1.000  H
  H41      1.0000 0.90920  0.67210  0.16250  Biso   1.000  H
  H42      1.0000 0.90720  0.64400  0.19300  Biso   1.000  H
  C15      1.0000 0.80070  0.63550  0.16973  Biso   1.000  C
  H43      1.0000 0.81520  0.60110  0.17700  Biso   1.000  H
  H44      1.0000 0.80440  0.63640  0.14910  Biso   1.000  H
  H45      1.0000 0.76230  0.63870  0.17490  Biso   1.000  H
  C16      1.0000 0.82560  0.84930  0.28392  Biso   1.000  C
  C17      1.0000 0.87560  0.86837  0.26540  Biso   1.000  C
  H46      1.0000 0.91170  0.85890  0.27370  Biso   1.000  H
  C18      1.0000 0.86440  0.93250  0.26360  Biso   1.000  C
  C19      1.0000 0.77400  0.87610  0.27568  Biso   1.000  C
  H47      1.0000 0.76950  0.87390  0.25510  Biso   1.000  H
  H48      1.0000 0.77490  0.91430  0.28150  Biso   1.000  H
  H49      1.0000 0.74350  0.85780  0.28500  Biso   1.000  H
  C20      1.0000 0.83120  0.85550  0.31198  Biso   1.000  C
  H50      1.0000 0.86560  0.83930  0.31810  Biso   1.000  H
  H51      1.0000 0.80100  0.83740  0.32170  Biso   1.000  H
  H52      1.0000 0.83100  0.89430  0.31670  Biso   1.000  H
  C21      1.0000 0.51310  0.15880  0.98144  Biso   1.000  C
  C22      1.0000 0.47058  0.15660  0.95741  Biso   1.000  C
  H53      1.0000 0.48040  0.18320  0.94230  Biso   1.000  H
  C23      1.0000 0.41250  0.17103  0.97002  Biso   1.000  C
  C24      1.0000 0.50060  0.11680  0.00533  Biso   1.000  C
  H54      1.0000 0.52850  0.11950  0.02010  Biso   1.000  H
  H55      1.0000 0.50070  0.08010  0.99740  Biso   1.000  H
  H56      1.0000 0.46490  0.12470  0.01350  Biso   1.000  H
  C25      1.0000 0.52550  0.21570  0.99421  Biso   1.000  C
  H57      1.0000 0.55300  0.21210  0.00910  Biso   1.000  H
  H58      1.0000 0.49220  0.23100  0.00230  Biso   1.000  H
  H59      1.0000 0.53910  0.23980  0.97930  Biso   1.000  H
  C26      1.0000 0.52330  0.10470  0.14882  Biso   1.000  C
  C27      1.0000 0.54110  0.04830  0.16007  Biso   1.000  C
  H60      1.0000 0.55660  0.05360  0.17940  Biso   1.000  H
  C28      1.0000 0.58600  0.01750  0.14131  Biso   1.000  C
  C29      1.0000 0.50200  0.10040  0.11905  Biso   1.000  C
  H61      1.0000 0.49130  0.13650  0.11230  Biso   1.000  H
  H62      1.0000 0.47030  0.07620  0.11870  Biso   1.000  H
  H63      1.0000 0.53040  0.08560  0.10670  Biso   1.000  H
  C30      1.0000 0.57020  0.15050  0.15085  Biso   1.000  C
  H64      1.0000 0.55650  0.18490  0.14330  Biso   1.000  H
  H65      1.0000 0.60190  0.13890  0.13980  Biso   1.000  H
  H66      1.0000 0.58080  0.15540  0.17060  Biso   1.000  H
  C31      1.0000 0.80760  0.91173  0.96181  Biso   1.000  C
  C32      1.0000 0.80190  0.87560  0.93745  Biso   1.000  C
  H67      1.0000 0.76230  0.87520  0.93270  Biso   1.000  H
  C33      1.0000 0.81830  0.81520  0.94259  Biso   1.000  C
  C34      1.0000 0.86650  0.91770  0.96801  Biso   1.000  C
  H68      1.0000 0.88600  0.92650  0.95060  Biso   1.000  H
  H69      1.0000 0.88060  0.88360  0.97580  Biso   1.000  H
  H70      1.0000 0.87180  0.94690  0.98180  Biso   1.000  H
  C35      1.0000 0.77720  0.89810  0.98722  Biso   1.000  C
  H71      1.0000 0.73840  0.89560  0.98270  Biso   1.000  H
  H72      1.0000 0.78280  0.92640  0.00150  Biso   1.000  H
  H73      1.0000 0.78980  0.86310  0.99460  Biso   1.000  H
  C36      1.0000 0.45190  0.30130  0.10144  Biso   1.000  C
  C37      1.0000 0.48260  0.34960  0.09585  Biso   1.000  C
  H74      1.0000 0.46180  0.38270  0.10160  Biso   1.000  H
  C38      1.0000 0.50380  0.35500  0.06404  Biso   1.000  C
  C39      1.0000 0.47680  0.24880  0.09090  Biso   1.000  C
  H75      1.0000 0.45200  0.21850  0.09480  Biso   1.000  H
  H76      1.0000 0.51150  0.24250  0.10060  Biso   1.000  H
  H77      1.0000 0.48310  0.25140  0.07050  Biso   1.000  H
  C40      1.0000 0.39570  0.30240  0.08769  Biso   1.000  C
  H78      1.0000 0.37720  0.26780  0.09110  Biso   1.000  H
  H79      1.0000 0.39960  0.30810  0.06730  Biso   1.000  H
  H80      1.0000 0.37430  0.33210  0.09580  Biso   1.000  H
  C41      1.0000 0.53630  0.58300  0.30176  Biso   1.000  C
  C42      1.0000 0.49600  0.62679  0.30763  Biso   1.000  C
  H81      1.0000 0.50630  0.64710  0.32510  Biso   1.000  H
  C43      1.0000 0.43840  0.60210  0.31082  Biso   1.000  C
  C44      1.0000 0.52465  0.54630  0.27655  Biso   1.000  C
  H82      1.0000 0.55370  0.51930  0.27470  Biso   1.000  H
  H83      1.0000 0.52290  0.56830  0.25930  Biso   1.000  H
  H84      1.0000 0.48980  0.52780  0.27940  Biso   1.000  H
  C45      1.0000 0.54590  0.54910  0.32904  Biso   1.000  C
  H85      1.0000 0.55310  0.57370  0.34490  Biso   1.000  H
  H86      1.0000 0.57710  0.52500  0.32630  Biso   1.000  H
  H87      1.0000 0.51350  0.52740  0.33310  Biso   1.000  H
  C46      1.0000 0.63340  0.77870  0.23183  Biso   1.000  C
  C47      1.0000 0.58290  0.75920  0.21837  Biso   1.000  C
  H88      1.0000 0.59310  0.72760  0.20610  Biso   1.000  H
  C48      1.0000 0.55750  0.80310  0.19870  Biso   1.000  C
  C49      1.0000 0.62460  0.82610  0.25066  Biso   1.000  C
  H89      1.0000 0.59510  0.81810  0.26390  Biso   1.000  H
  H90      1.0000 0.61500  0.85800  0.23930  Biso   1.000  H
  H91      1.0000 0.65800  0.83360  0.26120  Biso   1.000  H
  C50      1.0000 0.67650  0.78660  0.21037  Biso   1.000  C
  H92      1.0000 0.67910  0.75400  0.19850  Biso   1.000  H
  H93      1.0000 0.71130  0.79290  0.21980  Biso   1.000  H
  H94      1.0000 0.66750  0.81800  0.19850  Biso   1.000  H
  C51      1.0000 0.64860  0.79150  0.34927  Biso   1.000  C
  C52      1.0000 0.65060  0.79850  0.38091  Biso   1.000  C
  H95      1.0000 0.63200  0.76630  0.38940  Biso   1.000  H
  C53      1.0000 0.61960  0.84770  0.38976  Biso   1.000  C
  C54      1.0000 0.66970  0.84330  0.33564  Biso   1.000  C
  H96      1.0000 0.66870  0.83950  0.31500  Biso   1.000  H
  H97      1.0000 0.70720  0.84980  0.34170  Biso   1.000  H
  H98      1.0000 0.64690  0.87400  0.34140  Biso   1.000  H
  C55      1.0000 0.59490  0.77700  0.33633  Biso   1.000  C
  H99      1.0000 0.59880  0.77460  0.31580  Biso   1.000  H
  H100     1.0000 0.56800  0.80490  0.34100  Biso   1.000  H
  H101     1.0000 0.58270  0.74180  0.34370  Biso   1.000  H
  C56      1.0000 0.87350  0.68971  0.38809  Biso   1.000  C
  C57      1.0000 0.87850  0.74720  0.39716  Biso   1.000  C
  H102     1.0000 0.89490  0.76940  0.38160  Biso   1.000  H
  C58      1.0000 0.91450  0.75250  0.42516  Biso   1.000  C
  C59      1.0000 0.85320  0.65220  0.40863  Biso   1.000  C
  H103     1.0000 0.81790  0.66490  0.41560  Biso   1.000  H
  H104     1.0000 0.87880  0.64980  0.42440  Biso   1.000  H
  H105     1.0000 0.84900  0.61630  0.39990  Biso   1.000  H
  C60      1.0000 0.93010  0.67470  0.37579  Biso   1.000  C
  H106     1.0000 0.92990  0.63670  0.36960  Biso   1.000  H
  H107     1.0000 0.95790  0.67970  0.39040  Biso   1.000  H
  H108     1.0000 0.93820  0.69830  0.35960  Biso   1.000  H
  O25      1.0000 0.66350  0.91330  0.16502  Biso   1.000  O
  C61      1.0000 0.62560  0.93920  0.18710  Biso   1.000  C
  C62      1.0000 0.67110  0.96250  0.21050  Biso   1.000  C
  H109     1.0000 0.70780  0.95790  0.20280  Biso   1.000  H
  H110     1.0000 0.66770  0.94220  0.22820  Biso   1.000  H
  H111     1.0000 0.66430  0.00120  0.21400  Biso   1.000  H
  O26      1.0000 0.58370  0.93450  0.18560  Biso   1.000  O
  La2      1.0000 0.92901  0.03236  0.29265  Biso   1.000  La
  La3      1.0000 0.27925  0.15052  0.99193  Biso   1.000  La
  O27      1.0000 0.32010  0.21950  0.02837  Biso   1.000  O
  O28      1.0000 0.88160  0.95730  0.25247  Biso   1.000  O
  O29      1.0000 0.91500  0.94350  0.29543  Biso   1.000  O
  H112     1.0000 0.90530  0.84380  0.27210  Biso   1.000  H
  C63      1.0000 0.90040  0.92740  0.27156  Biso   1.000  C
  La4      1.0000 0.86137  0.06581  0.23385  Biso   1.000  La
  La5      1.0000 0.95550  0.04240  0.23922  Biso   1.000  La
  La6      1.0000 0.88300  0.05440  0.26727  Biso   1.000  La
  La7      1.0000 0.82840  0.77130  0.49071  Biso   1.000  La
  La8      1.0000 0.85670  0.81880  0.48419  Biso   1.000  La
  Ag9      1.0000 0.28206  0.34092  0.72818  Biso   1.000  Ag
  Ag10     1.0000 0.35399  0.88944  0.50087  Biso   1.000  Ag
  Ag11     1.0000 0.31303  0.00120  0.46209  Biso   1.000  Ag
  Ag12     1.0000 0.32843  0.44393  0.77230  Biso   1.000  Ag
  Ag13     1.0000 0.27203  0.25705  0.78991  Biso   1.000  Ag
  Ag14     1.0000 0.12538  0.28614  0.81155  Biso   1.000  Ag
  Ag15     1.0000 0.59247  0.80004  0.65255  Biso   1.000  Ag
  Ag16     1.0000 0.34889  0.35836  0.84256  Biso   1.000  Ag
  Pd7      1.0000 0.24186  0.50200  0.70505  Biso   1.000  Pd
  Pd8      1.0000 0.16269  0.22347  0.73060  Biso   1.000  Pd
  Pd9      1.0000 0.56834  0.95474  0.68614  Biso   1.000  Pd
  Pd10     1.0000 0.18435  0.02398  0.40364  Biso   1.000  Pd
  Pd11     1.0000 0.42759  0.31351  0.76797  Biso   1.000  Pd
  Pd12     1.0000 0.23805  0.25168  0.87398  Biso   1.000  Pd
  I2       1.0000 0.26345  0.87356  0.45947  Biso   1.000  I
  La9      1.0000 0.42071  0.11998  0.63572  Biso   1.000  La
  S13      1.0000 0.30219  0.43931  0.71995  Biso   1.000  S
  S14      1.0000 0.32641  0.98519  0.51389  Biso   1.000  S
  S15      1.0000 0.18643  0.31061  0.72138  Biso   1.000  S
  S16      1.0000 0.17779  0.22448  0.77806  Biso   1.000  S
  S17      1.0000 0.42259  0.86310  0.46416  Biso   1.000  S
  S18      1.0000 0.53151  0.87347  0.67334  Biso   1.000  S
  S19      1.0000 0.21457  0.01945  0.44859  Biso   1.000  S
  S20      1.0000 0.56097  0.70610  0.63974  Biso   1.000  S
  S21      1.0000 0.39736  0.38189  0.79622  Biso   1.000  S
  S22      1.0000 0.34596  0.28056  0.75419  Biso   1.000  S
  S23      1.0000 0.30261  0.26654  0.84074  Biso   1.000  S
  S24      1.0000 0.17353  0.30916  0.85797  Biso   1.000  S
  O30      1.0000 0.39062  0.54344  0.64878  Biso   1.000  O
  O31      1.0000 0.40825  0.46200  0.63414  Biso   1.000  O
  O32      1.0000 0.38507  0.10854  0.58712  Biso   1.000  O
  O33      1.0000 0.43640  0.12920  0.54893  Biso   1.000  O
  O34      1.0000 0.12354  0.23345  0.63268  Biso   1.000  O
  O35      1.0000 0.20155  0.27330  0.62396  Biso   1.000  O
  O36      1.0000 0.15350  0.03990  0.74293  Biso   1.000  O
  O37      1.0000 0.10600  0.04630  0.78214  Biso   1.000  O
  O38      1.0000 0.61640  0.86841  0.47427  Biso   1.000  O
  O39      1.0000 0.59890  0.78069  0.46794  Biso   1.000  O
  O40      1.0000 0.42716  0.02099  0.62917  Biso   1.000  O
  O41      1.0000 0.36757  0.95677  0.64206  Biso   1.000  O
  O42      1.0000 0.13557  0.19966  0.43468  Biso   1.000  O
  O43      1.0000 0.21390  0.21390  0.45652  Biso   1.000  O
  O44      1.0000 0.45210  0.66380  0.55694  Biso   1.000  O
  O45      1.0000 0.53180  0.62860  0.54783  Biso   1.000  O
  O46      1.0000 0.58960  0.40570  0.79129  Biso   1.000  O
  O47      1.0000 0.56920  0.40840  0.83895  Biso   1.000  O
  O48      1.0000 0.48545  0.17455  0.70648  Biso   1.000  O
  O49      1.0000 0.41805  0.18665  0.67592  Biso   1.000  O
  O50      1.0000 0.35616  0.11183  0.89585  Biso   1.000  O
  O51      1.0000 0.43397  0.15820  0.89026  Biso   1.000  O
  O52      1.0000 0.11326  0.23330  0.94499  Biso   1.000  O
  O53      1.0000 0.03809  0.24580  0.92123  Biso   1.000  O
  N13      1.0000 0.29539  0.51627  0.67426  Biso   1.000  N
  H113     1.0000 0.27660  0.52100  0.65760  Biso   1.000  H
  H114     1.0000 0.31290  0.54840  0.67820  Biso   1.000  H
  N14      1.0000 0.30682  0.06406  0.55949  Biso   1.000  N
  H115     1.0000 0.28670  0.09550  0.55980  Biso   1.000  H
  H116     1.0000 0.31670  0.05640  0.57780  Biso   1.000  H
  N15      1.0000 0.15660  0.21490  0.68818  Biso   1.000  N
  H117     1.0000 0.16990  0.18130  0.68320  Biso   1.000  H
  H118     1.0000 0.12040  0.21590  0.68320  Biso   1.000  H
  N16      1.0000 0.13010  0.14718  0.73704  Biso   1.000  N
  H119     1.0000 0.09650  0.14590  0.72860  Biso   1.000  H
  H120     1.0000 0.15190  0.12210  0.72810  Biso   1.000  H
  N17      1.0000 0.53035  0.89997  0.44543  Biso   1.000  N
  H121     1.0000 0.55090  0.89980  0.42920  Biso   1.000  H
  H122     1.0000 0.54730  0.92260  0.45820  Biso   1.000  H
  N18      1.0000 0.50725  0.98800  0.66276  Biso   1.000  N
  H123     1.0000 0.49670  0.02010  0.67100  Biso   1.000  H
  H124     1.0000 0.52020  0.99590  0.64500  Biso   1.000  H
  N19      1.0000 0.16944  0.10447  0.41150  Biso   1.000  N
  H125     1.0000 0.18050  0.12470  0.39620  Biso   1.000  H
  H126     1.0000 0.13260  0.10950  0.41370  Biso   1.000  H
  N20      1.0000 0.46860  0.65660  0.61309  Biso   1.000  N
  H127     1.0000 0.45170  0.62330  0.61380  Biso   1.000  H
  H128     1.0000 0.44560  0.67980  0.60370  Biso   1.000  H
  N21      1.0000 0.50240  0.33667  0.78290  Biso   1.000  N
  H129     1.0000 0.52140  0.30570  0.78740  Biso   1.000  H
  H130     1.0000 0.52070  0.35340  0.76840  Biso   1.000  H
  N22      1.0000 0.45742  0.25920  0.73718  Biso   1.000  N
  H131     1.0000 0.48440  0.27620  0.72700  Biso   1.000  H
  H132     1.0000 0.47260  0.22970  0.74610  Biso   1.000  H
  N23      1.0000 0.29274  0.20124  0.89164  Biso   1.000  N
  H133     1.0000 0.29400  0.20890  0.91070  Biso   1.000  H
  H134     1.0000 0.27960  0.16640  0.88980  Biso   1.000  H
  N24      1.0000 0.18068  0.23240  0.90349  Biso   1.000  N
  H135     1.0000 0.17980  0.19520  0.90540  Biso   1.000  H
  H136     1.0000 0.19150  0.24660  0.92060  Biso   1.000  H
  C64      1.0000 0.36020  0.45600  0.69598  Biso   1.000  C
  C65      1.0000 0.33560  0.47490  0.66989  Biso   1.000  C
  H137     1.0000 0.31680  0.44310  0.66110  Biso   1.000  H
  C66      1.0000 0.38250  0.49390  0.64827  Biso   1.000  C
  C67      1.0000 0.39700  0.49770  0.70976  Biso   1.000  C
  H138     1.0000 0.41240  0.48260  0.72710  Biso   1.000  H
  H139     1.0000 0.37600  0.53040  0.71430  Biso   1.000  H
  H140     1.0000 0.42650  0.50720  0.69670  Biso   1.000  H
  C68      1.0000 0.39230  0.39650  0.69155  Biso   1.000  C
  H141     1.0000 0.40850  0.38510  0.70950  Biso   1.000  H
  H142     1.0000 0.42080  0.40060  0.67730  Biso   1.000  H
  H143     1.0000 0.36620  0.36890  0.68530  Biso   1.000  H
  C69      1.0000 0.38175  0.02373  0.53229  Biso   1.000  C
  C70      1.0000 0.35710  0.07411  0.54265  Biso   1.000  C
  H144     1.0000 0.34660  0.09620  0.52580  Biso   1.000  H
  C71      1.0000 0.39620  0.11000  0.56121  Biso   1.000  C
  C72      1.0000 0.40300  0.98450  0.55630  Biso   1.000  C
  H145     1.0000 0.41920  0.95210  0.54770  Biso   1.000  H
  H146     1.0000 0.37260  0.97370  0.56840  Biso   1.000  H
  H147     1.0000 0.43050  0.00330  0.56770  Biso   1.000  H
  C73      1.0000 0.42420  0.03150  0.50892  Biso   1.000  C
  H148     1.0000 0.43970  0.99620  0.50380  Biso   1.000  H
  H149     1.0000 0.45310  0.05550  0.51570  Biso   1.000  H
  H150     1.0000 0.40690  0.04780  0.49230  Biso   1.000  H
  C74      1.0000 0.16710  0.31650  0.68280  Biso   1.000  C
  C75      1.0000 0.18680  0.25820  0.67137  Biso   1.000  C
  H151     1.0000 0.22710  0.25370  0.67270  Biso   1.000  H
  C76      1.0000 0.16545  0.25440  0.63919  Biso   1.000  C
  C77      1.0000 0.10290  0.32370  0.68210  Biso   1.000  C
  H152     1.0000 0.08560  0.29160  0.69040  Biso   1.000  H
  H153     1.0000 0.09080  0.32790  0.66250  Biso   1.000  H
  H154     1.0000 0.09280  0.35600  0.69300  Biso   1.000  H
  C78      1.0000 0.19930  0.36450  0.66973  Biso   1.000  C
  H155     1.0000 0.18480  0.39890  0.67700  Biso   1.000  H
  H156     1.0000 0.19560  0.36360  0.64910  Biso   1.000  H
  H157     1.0000 0.23770  0.36130  0.67490  Biso   1.000  H
  C79      1.0000 0.17440  0.15070  0.78392  Biso   1.000  C
  C80      1.0000 0.12440  0.13163  0.76540  Biso   1.000  C
  H158     1.0000 0.08830  0.14110  0.77370  Biso   1.000  H
  C81      1.0000 0.13560  0.06750  0.76360  Biso   1.000  C
  C82      1.0000 0.22600  0.12390  0.77568  Biso   1.000  C
  H159     1.0000 0.23050  0.12610  0.75510  Biso   1.000  H
  H160     1.0000 0.22510  0.08570  0.78150  Biso   1.000  H
  H161     1.0000 0.25650  0.14220  0.78500  Biso   1.000  H
  C83      1.0000 0.16880  0.14450  0.81198  Biso   1.000  C
  H162     1.0000 0.13440  0.16070  0.81810  Biso   1.000  H
  H163     1.0000 0.19900  0.16260  0.82170  Biso   1.000  H
  H164     1.0000 0.16900  0.10570  0.81670  Biso   1.000  H
  C84      1.0000 0.48690  0.84120  0.48144  Biso   1.000  C
  C85      1.0000 0.52942  0.84340  0.45741  Biso   1.000  C
  H165     1.0000 0.51960  0.81680  0.44230  Biso   1.000  H
  C86      1.0000 0.58750  0.82897  0.47002  Biso   1.000  C
  C87      1.0000 0.49940  0.88320  0.50533  Biso   1.000  C
  H166     1.0000 0.47150  0.88050  0.52010  Biso   1.000  H
  H167     1.0000 0.49930  0.91990  0.49740  Biso   1.000  H
  H168     1.0000 0.53510  0.87530  0.51350  Biso   1.000  H
  C88      1.0000 0.47450  0.78430  0.49421  Biso   1.000  C
  H169     1.0000 0.44700  0.78790  0.50910  Biso   1.000  H
  H170     1.0000 0.50780  0.76900  0.50230  Biso   1.000  H
  H171     1.0000 0.46090  0.76020  0.47930  Biso   1.000  H
  C89      1.0000 0.47670  0.89530  0.64882  Biso   1.000  C
  C90      1.0000 0.45890  0.95170  0.66007  Biso   1.000  C
  H172     1.0000 0.44340  0.94640  0.67940  Biso   1.000  H
  C91      1.0000 0.41400  0.98250  0.64131  Biso   1.000  C
  C92      1.0000 0.49800  0.89960  0.61905  Biso   1.000  C
  H173     1.0000 0.50870  0.86350  0.61230  Biso   1.000  H
  H174     1.0000 0.52970  0.92380  0.61870  Biso   1.000  H
  H175     1.0000 0.46960  0.91440  0.60670  Biso   1.000  H
  C93      1.0000 0.42980  0.84950  0.65085  Biso   1.000  C
  H176     1.0000 0.44350  0.81510  0.64330  Biso   1.000  H
  H177     1.0000 0.39810  0.86110  0.63980  Biso   1.000  H
  H178     1.0000 0.41920  0.84460  0.67060  Biso   1.000  H
  C94      1.0000 0.19240  0.08827  0.46181  Biso   1.000  C
  C95      1.0000 0.19810  0.12440  0.43745  Biso   1.000  C
  H179     1.0000 0.23770  0.12480  0.43270  Biso   1.000  H
  C96      1.0000 0.18170  0.18480  0.44259  Biso   1.000  C
  C97      1.0000 0.13350  0.08230  0.46801  Biso   1.000  C
  H180     1.0000 0.11400  0.07350  0.45060  Biso   1.000  H
  H181     1.0000 0.11940  0.11640  0.47580  Biso   1.000  H
  H182     1.0000 0.12820  0.05310  0.48180  Biso   1.000  H
  C98      1.0000 0.22280  0.10190  0.48722  Biso   1.000  C
  H183     1.0000 0.26160  0.10440  0.48270  Biso   1.000  H
  H184     1.0000 0.21720  0.07360  0.50150  Biso   1.000  H
  H185     1.0000 0.21020  0.13690  0.49460  Biso   1.000  H
  C99      1.0000 0.54810  0.69870  0.60144  Biso   1.000  C
  C100     1.0000 0.51740  0.65040  0.59585  Biso   1.000  C
  H186     1.0000 0.53820  0.61730  0.60160  Biso   1.000  H
  C101     1.0000 0.49620  0.64500  0.56404  Biso   1.000  C
  C102     1.0000 0.52320  0.75120  0.59090  Biso   1.000  C
  H187     1.0000 0.54800  0.78150  0.59480  Biso   1.000  H
  H188     1.0000 0.48850  0.75750  0.60060  Biso   1.000  H
  H189     1.0000 0.51690  0.74860  0.57050  Biso   1.000  H
  C103     1.0000 0.60430  0.69760  0.58769  Biso   1.000  C
  H190     1.0000 0.62280  0.73220  0.59110  Biso   1.000  H
  H191     1.0000 0.60040  0.69190  0.56730  Biso   1.000  H
  H192     1.0000 0.62570  0.66790  0.59580  Biso   1.000  H
  C104     1.0000 0.46370  0.41700  0.80176  Biso   1.000  C
  C105     1.0000 0.50400  0.37321  0.80763  Biso   1.000  C
  H193     1.0000 0.49370  0.35290  0.82510  Biso   1.000  H
  C106     1.0000 0.56160  0.39790  0.81082  Biso   1.000  C
  C107     1.0000 0.47535  0.45370  0.77655  Biso   1.000  C
  H194     1.0000 0.44630  0.48070  0.77470  Biso   1.000  H
  H195     1.0000 0.47710  0.43170  0.75930  Biso   1.000  H
  H196     1.0000 0.51020  0.47220  0.77940  Biso   1.000  H
  C108     1.0000 0.45410  0.45090  0.82904  Biso   1.000  C
  H197     1.0000 0.44690  0.42630  0.84490  Biso   1.000  H
  H198     1.0000 0.42290  0.47500  0.82630  Biso   1.000  H
  H199     1.0000 0.48650  0.47260  0.83310  Biso   1.000  H
  C109     1.0000 0.36660  0.22130  0.73183  Biso   1.000  C
  C110     1.0000 0.41710  0.24080  0.71837  Biso   1.000  C
  H200     1.0000 0.40690  0.27240  0.70610  Biso   1.000  H
  C111     1.0000 0.44250  0.19690  0.69870  Biso   1.000  C
  C112     1.0000 0.37540  0.17390  0.75066  Biso   1.000  C
  H201     1.0000 0.40490  0.18190  0.76390  Biso   1.000  H
  H202     1.0000 0.38500  0.14200  0.73930  Biso   1.000  H
  H203     1.0000 0.34200  0.16640  0.76120  Biso   1.000  H
  C113     1.0000 0.32350  0.21340  0.71037  Biso   1.000  C
  H204     1.0000 0.32090  0.24600  0.69850  Biso   1.000  H
  H205     1.0000 0.28870  0.20710  0.71980  Biso   1.000  H
  H206     1.0000 0.33250  0.18200  0.69850  Biso   1.000  H
  C114     1.0000 0.35140  0.20850  0.84927  Biso   1.000  C
  C115     1.0000 0.34940  0.20150  0.88091  Biso   1.000  C
  H207     1.0000 0.36800  0.23370  0.88940  Biso   1.000  H
  C116     1.0000 0.38040  0.15230  0.88976  Biso   1.000  C
  C117     1.0000 0.33030  0.15670  0.83564  Biso   1.000  C
  H208     1.0000 0.33130  0.16050  0.81500  Biso   1.000  H
  H209     1.0000 0.29280  0.15020  0.84170  Biso   1.000  H
  H210     1.0000 0.35310  0.12600  0.84140  Biso   1.000  H
  C118     1.0000 0.40510  0.22300  0.83633  Biso   1.000  C
  H211     1.0000 0.40120  0.22540  0.81580  Biso   1.000  H
  H212     1.0000 0.43200  0.19510  0.84100  Biso   1.000  H
  H213     1.0000 0.41730  0.25820  0.84370  Biso   1.000  H
  C119     1.0000 0.12650  0.31029  0.88809  Biso   1.000  C
  C120     1.0000 0.12150  0.25280  0.89716  Biso   1.000  C
  H214     1.0000 0.10510  0.23060  0.88160  Biso   1.000  H
  C121     1.0000 0.08550  0.24750  0.92516  Biso   1.000  C
  C122     1.0000 0.14680  0.34780  0.90863  Biso   1.000  C
  H215     1.0000 0.18210  0.33510  0.91560  Biso   1.000  H
  H216     1.0000 0.12120  0.35020  0.92440  Biso   1.000  H
  H217     1.0000 0.15100  0.38370  0.89990  Biso   1.000  H
  C123     1.0000 0.06990  0.32530  0.87579  Biso   1.000  C
  H218     1.0000 0.07010  0.36330  0.86960  Biso   1.000  H
  H219     1.0000 0.04210  0.32030  0.89040  Biso   1.000  H
  H220     1.0000 0.06180  0.30170  0.85960  Biso   1.000  H
  O54      1.0000 0.33650  0.08670  0.66502  Biso   1.000  O
  C124     1.0000 0.37440  0.06080  0.68710  Biso   1.000  C
  C125     1.0000 0.32890  0.03750  0.71050  Biso   1.000  C
  H221     1.0000 0.29220  0.04210  0.70280  Biso   1.000  H
  H222     1.0000 0.33230  0.05780  0.72820  Biso   1.000  H
  H223     1.0000 0.33570  0.99880  0.71400  Biso   1.000  H
  O55      1.0000 0.41630  0.06550  0.68560  Biso   1.000  O
  La10     1.0000 0.07099  0.96764  0.79265  Biso   1.000  La
  La11     1.0000 0.72075  0.84948  0.49193  Biso   1.000  La
  O56      1.0000 0.67990  0.78050  0.52837  Biso   1.000  O
  O57      1.0000 0.11840  0.04270  0.75247  Biso   1.000  O
  O58      1.0000 0.08500  0.05650  0.79543  Biso   1.000  O
  H224     1.0000 0.09470  0.15620  0.77210  Biso   1.000  H
  C126     1.0000 0.09960  0.07260  0.77156  Biso   1.000  C
  La12     1.0000 0.13863  0.93419  0.73385  Biso   1.000  La
  La13     1.0000 0.04450  0.95760  0.73922  Biso   1.000  La
  La14     1.0000 0.11700  0.94560  0.76727  Biso   1.000  La
  La15     1.0000 0.17160  0.22870  0.99071  Biso   1.000  La
  La16     1.0000 0.14330  0.18120  0.98419  Biso   1.000  La
  Ag17     1.0000 0.84092  0.21794  0.47818  Biso   1.000  Ag
  Ag18     1.0000 0.38944  0.14601  0.25087  Biso   1.000  Ag
  Ag19     1.0000 0.50120  0.18697  0.21209  Biso   1.000  Ag
  Ag20     1.0000 0.94393  0.17157  0.52230  Biso   1.000  Ag
  Ag21     1.0000 0.75705  0.22797  0.53991  Biso   1.000  Ag
  Ag22     1.0000 0.78614  0.37462  0.56155  Biso   1.000  Ag
  Ag23     1.0000 0.30004  0.90753  0.40255  Biso   1.000  Ag
  Ag24     1.0000 0.85836  0.15111  0.59256  Biso   1.000  Ag
  Pd13     1.0000 0.00200  0.25814  0.45505  Biso   1.000  Pd
  Pd14     1.0000 0.72347  0.33731  0.48060  Biso   1.000  Pd
  Pd15     1.0000 0.45474  0.93166  0.43614  Biso   1.000  Pd
  Pd16     1.0000 0.52398  0.31565  0.15364  Biso   1.000  Pd
  Pd17     1.0000 0.81351  0.07241  0.51797  Biso   1.000  Pd
  Pd18     1.0000 0.75168  0.26195  0.62398  Biso   1.000  Pd
  I3       1.0000 0.37356  0.23655  0.20947  Biso   1.000  I
  La17     1.0000 0.61998  0.07930  0.38572  Biso   1.000  La
  S25      1.0000 0.93931  0.19781  0.46995  Biso   1.000  S
  S26      1.0000 0.48519  0.17359  0.26389  Biso   1.000  S
  S27      1.0000 0.81061  0.31357  0.47138  Biso   1.000  S
  S28      1.0000 0.72448  0.32221  0.52806  Biso   1.000  S
  S29      1.0000 0.36310  0.07741  0.21416  Biso   1.000  S
  S30      1.0000 0.37347  0.96849  0.42334  Biso   1.000  S
  S31      1.0000 0.51945  0.28543  0.19859  Biso   1.000  S
  S32      1.0000 0.20610  0.93903  0.38974  Biso   1.000  S
  S33      1.0000 0.88189  0.10264  0.54622  Biso   1.000  S
  S34      1.0000 0.78056  0.15404  0.50419  Biso   1.000  S
  S35      1.0000 0.76654  0.19739  0.59074  Biso   1.000  S
  S36      1.0000 0.80916  0.32647  0.60797  Biso   1.000  S
  O59      1.0000 0.04344  0.10938  0.39878  Biso   1.000  O
  O60      1.0000 0.96200  0.09175  0.38414  Biso   1.000  O
  O61      1.0000 0.60854  0.11493  0.33712  Biso   1.000  O
  O62      1.0000 0.62920  0.06360  0.29893  Biso   1.000  O
  O63      1.0000 0.73345  0.37646  0.38268  Biso   1.000  O
  O64      1.0000 0.77330  0.29845  0.37396  Biso   1.000  O
  O65      1.0000 0.53990  0.34650  0.49293  Biso   1.000  O
  O66      1.0000 0.54630  0.39400  0.53214  Biso   1.000  O
  O67      1.0000 0.36841  0.88360  0.22427  Biso   1.000  O
  O68      1.0000 0.28069  0.90110  0.21794  Biso   1.000  O
  O69      1.0000 0.52099  0.07284  0.37917  Biso   1.000  O
  O70      1.0000 0.45677  0.13243  0.39206  Biso   1.000  O
  O71      1.0000 0.69966  0.36443  0.18468  Biso   1.000  O
  O72      1.0000 0.71390  0.28610  0.20652  Biso   1.000  O
  O73      1.0000 0.16380  0.04790  0.30694  Biso   1.000  O
  O74      1.0000 0.12860  0.96820  0.29783  Biso   1.000  O
  O75      1.0000 0.90570  0.91040  0.54129  Biso   1.000  O
  O76      1.0000 0.90840  0.93080  0.58895  Biso   1.000  O
  O77      1.0000 0.67455  0.01455  0.45648  Biso   1.000  O
  O78      1.0000 0.68665  0.08195  0.42592  Biso   1.000  O
  O79      1.0000 0.61183  0.14384  0.64585  Biso   1.000  O
  O80      1.0000 0.65820  0.06603  0.64026  Biso   1.000  O
  O81      1.0000 0.73330  0.38674  0.69499  Biso   1.000  O
  O82      1.0000 0.74580  0.46191  0.67123  Biso   1.000  O
  N25      1.0000 0.01627  0.20461  0.42426  Biso   1.000  N
  H225     1.0000 0.02100  0.22340  0.40760  Biso   1.000  H
  H226     1.0000 0.04840  0.18710  0.42820  Biso   1.000  H
  N26      1.0000 0.56406  0.19318  0.30949  Biso   1.000  N
  H227     1.0000 0.59550  0.21330  0.30980  Biso   1.000  H
  H228     1.0000 0.55640  0.18330  0.32780  Biso   1.000  H
  N27      1.0000 0.71490  0.34340  0.43818  Biso   1.000  N
  H229     1.0000 0.68130  0.33010  0.43320  Biso   1.000  H
  H230     1.0000 0.71590  0.37960  0.43320  Biso   1.000  H
  N28      1.0000 0.64718  0.36990  0.48704  Biso   1.000  N
  H231     1.0000 0.64590  0.40350  0.47860  Biso   1.000  H
  H232     1.0000 0.62210  0.34810  0.47810  Biso   1.000  H
  N29      1.0000 0.39997  0.96965  0.19543  Biso   1.000  N
  H233     1.0000 0.39980  0.94910  0.17920  Biso   1.000  H
  H234     1.0000 0.42260  0.95270  0.20820  Biso   1.000  H
  N30      1.0000 0.48800  0.99275  0.41276  Biso   1.000  N
  H235     1.0000 0.52010  0.00330  0.42100  Biso   1.000  H
  H236     1.0000 0.49590  0.97980  0.39500  Biso   1.000  H
  N31      1.0000 0.60447  0.33056  0.16150  Biso   1.000  N
  H237     1.0000 0.62470  0.31950  0.14620  Biso   1.000  H
  H238     1.0000 0.60950  0.36740  0.16370  Biso   1.000  H
  N32      1.0000 0.15660  0.03140  0.36309  Biso   1.000  N
  H239     1.0000 0.12330  0.04830  0.36380  Biso   1.000  H
  H240     1.0000 0.17980  0.05440  0.35370  Biso   1.000  H
  N33      1.0000 0.83667  0.99760  0.53290  Biso   1.000  N
  H241     1.0000 0.80570  0.97860  0.53740  Biso   1.000  H
  H242     1.0000 0.85340  0.97930  0.51840  Biso   1.000  H
  N34      1.0000 0.75920  0.04258  0.48718  Biso   1.000  N
  H243     1.0000 0.77620  0.01560  0.47700  Biso   1.000  H
  H244     1.0000 0.72970  0.02740  0.49610  Biso   1.000  H
  N35      1.0000 0.70124  0.20726  0.64164  Biso   1.000  N
  H245     1.0000 0.70890  0.20600  0.66070  Biso   1.000  H
  H246     1.0000 0.66640  0.22040  0.63980  Biso   1.000  H
  N36      1.0000 0.73240  0.31932  0.65349  Biso   1.000  N
  H247     1.0000 0.69520  0.32020  0.65540  Biso   1.000  H
  H248     1.0000 0.74660  0.30850  0.67060  Biso   1.000  H
  C127     1.0000 0.95600  0.13980  0.44598  Biso   1.000  C
  C128     1.0000 0.97490  0.16440  0.41989  Biso   1.000  C
  H249     1.0000 0.94310  0.18320  0.41110  Biso   1.000  H
  C129     1.0000 0.99390  0.11750  0.39827  Biso   1.000  C
  C130     1.0000 0.99770  0.10300  0.45976  Biso   1.000  C
  H250     1.0000 0.98260  0.08760  0.47710  Biso   1.000  H
  H251     1.0000 0.03040  0.12400  0.46430  Biso   1.000  H
  H252     1.0000 0.00720  0.07350  0.44670  Biso   1.000  H
  C131     1.0000 0.89650  0.10770  0.44155  Biso   1.000  C
  H253     1.0000 0.88510  0.09150  0.45950  Biso   1.000  H
  H254     1.0000 0.90060  0.07920  0.42730  Biso   1.000  H
  H255     1.0000 0.86890  0.13380  0.43530  Biso   1.000  H
  C132     1.0000 0.52373  0.11825  0.28229  Biso   1.000  C
  C133     1.0000 0.57411  0.14290  0.29265  Biso   1.000  C
  H256     1.0000 0.59620  0.15340  0.27580  Biso   1.000  H
  C134     1.0000 0.61000  0.10380  0.31121  Biso   1.000  C
  C135     1.0000 0.48450  0.09700  0.30630  Biso   1.000  C
  H257     1.0000 0.45210  0.08080  0.29770  Biso   1.000  H
  H258     1.0000 0.47370  0.12740  0.31840  Biso   1.000  H
  H259     1.0000 0.50330  0.06950  0.31770  Biso   1.000  H
  C136     1.0000 0.53150  0.07580  0.25892  Biso   1.000  C
  H260     1.0000 0.49620  0.06030  0.25380  Biso   1.000  H
  H261     1.0000 0.55550  0.04690  0.26570  Biso   1.000  H
  H262     1.0000 0.54780  0.09310  0.24230  Biso   1.000  H
  C137     1.0000 0.81650  0.33290  0.43280  Biso   1.000  C
  C138     1.0000 0.75820  0.31320  0.42137  Biso   1.000  C
  H263     1.0000 0.75370  0.27290  0.42270  Biso   1.000  H
  C139     1.0000 0.75440  0.33455  0.38919  Biso   1.000  C
  C140     1.0000 0.82370  0.39710  0.43210  Biso   1.000  C
  H264     1.0000 0.79160  0.41440  0.44040  Biso   1.000  H
  H265     1.0000 0.82790  0.40920  0.41250  Biso   1.000  H
  H266     1.0000 0.85600  0.40720  0.44300  Biso   1.000  H
  C141     1.0000 0.86450  0.30070  0.41973  Biso   1.000  C
  H267     1.0000 0.89890  0.31520  0.42700  Biso   1.000  H
  H268     1.0000 0.86360  0.30440  0.39910  Biso   1.000  H
  H269     1.0000 0.86130  0.26230  0.42490  Biso   1.000  H
  C142     1.0000 0.65070  0.32560  0.53392  Biso   1.000  C
  C143     1.0000 0.63163  0.37560  0.51540  Biso   1.000  C
  H270     1.0000 0.64110  0.41170  0.52370  Biso   1.000  H
  C144     1.0000 0.56750  0.36440  0.51360  Biso   1.000  C
  C145     1.0000 0.62390  0.27400  0.52568  Biso   1.000  C
  H271     1.0000 0.62610  0.26950  0.50510  Biso   1.000  H
  H272     1.0000 0.58570  0.27490  0.53150  Biso   1.000  H
  H273     1.0000 0.64220  0.24350  0.53500  Biso   1.000  H
  C146     1.0000 0.64450  0.33120  0.56198  Biso   1.000  C
  H274     1.0000 0.66070  0.36560  0.56810  Biso   1.000  H
  H275     1.0000 0.66260  0.30100  0.57170  Biso   1.000  H
  H276     1.0000 0.60570  0.33100  0.56670  Biso   1.000  H
  C147     1.0000 0.34120  0.01310  0.23144  Biso   1.000  C
  C148     1.0000 0.34340  0.97058  0.20741  Biso   1.000  C
  H277     1.0000 0.31680  0.98040  0.19230  Biso   1.000  H
  C149     1.0000 0.32897  0.91250  0.22002  Biso   1.000  C
  C150     1.0000 0.38320  0.00060  0.25533  Biso   1.000  C
  H278     1.0000 0.38050  0.02850  0.27010  Biso   1.000  H
  H279     1.0000 0.41990  0.00070  0.24740  Biso   1.000  H
  H280     1.0000 0.37530  0.96490  0.26350  Biso   1.000  H
  C151     1.0000 0.28430  0.02550  0.24421  Biso   1.000  C
  H281     1.0000 0.28790  0.05300  0.25910  Biso   1.000  H
  H282     1.0000 0.26900  0.99220  0.25230  Biso   1.000  H
  H283     1.0000 0.26020  0.03910  0.22930  Biso   1.000  H
  C152     1.0000 0.39530  0.02330  0.39882  Biso   1.000  C
  C153     1.0000 0.45170  0.04110  0.41007  Biso   1.000  C
  H284     1.0000 0.44640  0.05660  0.42940  Biso   1.000  H
  C154     1.0000 0.48250  0.08600  0.39131  Biso   1.000  C
  C155     1.0000 0.39960  0.00200  0.36905  Biso   1.000  C
  H285     1.0000 0.36350  0.99130  0.36230  Biso   1.000  H
  H286     1.0000 0.42380  0.97030  0.36870  Biso   1.000  H
  H287     1.0000 0.41440  0.03040  0.35670  Biso   1.000  H
  C156     1.0000 0.34950  0.07020  0.40085  Biso   1.000  C
  H288     1.0000 0.31510  0.05650  0.39330  Biso   1.000  H
  H289     1.0000 0.36110  0.10190  0.38980  Biso   1.000  H
  H290     1.0000 0.34460  0.08080  0.42060  Biso   1.000  H
  C157     1.0000 0.58827  0.30760  0.21181  Biso   1.000  C
  C158     1.0000 0.62440  0.30190  0.18745  Biso   1.000  C
  H291     1.0000 0.62480  0.26230  0.18270  Biso   1.000  H
  C159     1.0000 0.68480  0.31830  0.19259  Biso   1.000  C
  C160     1.0000 0.58230  0.36650  0.21801  Biso   1.000  C
  H292     1.0000 0.57350  0.38600  0.20060  Biso   1.000  H
  H293     1.0000 0.61640  0.38060  0.22580  Biso   1.000  H
  H294     1.0000 0.55310  0.37180  0.23180  Biso   1.000  H
  C161     1.0000 0.60190  0.27720  0.23722  Biso   1.000  C
  H295     1.0000 0.60440  0.23840  0.23270  Biso   1.000  H
  H296     1.0000 0.57360  0.28280  0.25150  Biso   1.000  H
  H297     1.0000 0.63690  0.28980  0.24460  Biso   1.000  H
  C162     1.0000 0.19870  0.95190  0.35144  Biso   1.000  C
  C163     1.0000 0.15040  0.98260  0.34585  Biso   1.000  C
  H298     1.0000 0.11730  0.96180  0.35160  Biso   1.000  H
  C164     1.0000 0.14500  0.00380  0.31404  Biso   1.000  C
  C165     1.0000 0.25120  0.97680  0.34090  Biso   1.000  C
  H299     1.0000 0.28150  0.95200  0.34480  Biso   1.000  H
  H300     1.0000 0.25750  0.01150  0.35060  Biso   1.000  H
  H301     1.0000 0.24860  0.98310  0.32050  Biso   1.000  H
  C166     1.0000 0.19760  0.89570  0.33769  Biso   1.000  C
  H302     1.0000 0.23220  0.87720  0.34110  Biso   1.000  H
  H303     1.0000 0.19190  0.89960  0.31730  Biso   1.000  H
  H304     1.0000 0.16790  0.87430  0.34580  Biso   1.000  H
  C167     1.0000 0.91700  0.03630  0.55176  Biso   1.000  C
  C168     1.0000 0.87321  0.99600  0.55763  Biso   1.000  C
  H305     1.0000 0.85290  0.00630  0.57510  Biso   1.000  H
  C169     1.0000 0.89790  0.93840  0.56082  Biso   1.000  C
  C170     1.0000 0.95370  0.02465  0.52655  Biso   1.000  C
  H306     1.0000 0.98070  0.05370  0.52470  Biso   1.000  H
  H307     1.0000 0.93170  0.02290  0.50930  Biso   1.000  H
  H308     1.0000 0.97220  0.98980  0.52940  Biso   1.000  H
  C171     1.0000 0.95090  0.04590  0.57904  Biso   1.000  C
  H309     1.0000 0.92630  0.05310  0.59490  Biso   1.000  H
  H310     1.0000 0.97500  0.07710  0.57630  Biso   1.000  H
  H311     1.0000 0.97260  0.01350  0.58310  Biso   1.000  H
  C172     1.0000 0.72130  0.13340  0.48183  Biso   1.000  C
  C173     1.0000 0.74080  0.08290  0.46837  Biso   1.000  C
  H312     1.0000 0.77240  0.09310  0.45610  Biso   1.000  H
  C174     1.0000 0.69690  0.05750  0.44870  Biso   1.000  C
  C175     1.0000 0.67390  0.12460  0.50066  Biso   1.000  C
  H313     1.0000 0.68190  0.09510  0.51390  Biso   1.000  H
  H314     1.0000 0.64200  0.11500  0.48930  Biso   1.000  H
  H315     1.0000 0.66640  0.15800  0.51120  Biso   1.000  H
  C176     1.0000 0.71340  0.17650  0.46037  Biso   1.000  C
  H316     1.0000 0.74600  0.17910  0.44850  Biso   1.000  H
  H317     1.0000 0.70710  0.21130  0.46980  Biso   1.000  H
  H318     1.0000 0.68200  0.16750  0.44850  Biso   1.000  H
  C177     1.0000 0.70850  0.14860  0.59927  Biso   1.000  C
  C178     1.0000 0.70150  0.15060  0.63091  Biso   1.000  C
  H319     1.0000 0.73370  0.13200  0.63940  Biso   1.000  H
  C179     1.0000 0.65230  0.11960  0.63976  Biso   1.000  C
  C180     1.0000 0.65670  0.16970  0.58564  Biso   1.000  C
  H320     1.0000 0.66050  0.16870  0.56500  Biso   1.000  H
  H321     1.0000 0.65020  0.20720  0.59170  Biso   1.000  H
  H322     1.0000 0.62600  0.14690  0.59140  Biso   1.000  H
  C181     1.0000 0.72300  0.09490  0.58633  Biso   1.000  C
  H323     1.0000 0.72540  0.09880  0.56580  Biso   1.000  H
  H324     1.0000 0.69510  0.06800  0.59100  Biso   1.000  H
  H325     1.0000 0.75820  0.08270  0.59370  Biso   1.000  H
  C182     1.0000 0.81029  0.37350  0.63809  Biso   1.000  C
  C183     1.0000 0.75280  0.37850  0.64716  Biso   1.000  C
  H326     1.0000 0.73060  0.39490  0.63160  Biso   1.000  H
  C184     1.0000 0.74750  0.41450  0.67516  Biso   1.000  C
  C185     1.0000 0.84780  0.35320  0.65863  Biso   1.000  C
  H327     1.0000 0.83510  0.31790  0.66560  Biso   1.000  H
  H328     1.0000 0.85020  0.37880  0.67440  Biso   1.000  H
  H329     1.0000 0.88370  0.34900  0.64990  Biso   1.000  H
  C186     1.0000 0.82530  0.43010  0.62579  Biso   1.000  C
  H330     1.0000 0.86330  0.42990  0.61960  Biso   1.000  H
  H331     1.0000 0.82030  0.45790  0.64040  Biso   1.000  H
  H332     1.0000 0.80170  0.43820  0.60960  Biso   1.000  H
  O83      1.0000 0.58670  0.16350  0.41502  Biso   1.000  O
  C187     1.0000 0.56080  0.12560  0.43710  Biso   1.000  C
  C188     1.0000 0.53750  0.17110  0.46050  Biso   1.000  C
  H333     1.0000 0.54210  0.20780  0.45280  Biso   1.000  H
  H334     1.0000 0.55780  0.16770  0.47820  Biso   1.000  H
  H335     1.0000 0.49880  0.16430  0.46400  Biso   1.000  H
  O84      1.0000 0.56550  0.08370  0.43560  Biso   1.000  O
  La18     1.0000 0.46764  0.42901  0.54265  Biso   1.000  La
  La19     1.0000 0.34948  0.77925  0.24193  Biso   1.000  La
  O85      1.0000 0.28050  0.82010  0.27837  Biso   1.000  O
  O86      1.0000 0.54270  0.38160  0.50247  Biso   1.000  O
  O87      1.0000 0.55650  0.41500  0.54543  Biso   1.000  O
  H336     1.0000 0.65620  0.40530  0.52210  Biso   1.000  H
  C189     1.0000 0.57260  0.40040  0.52156  Biso   1.000  C
  La20     1.0000 0.43419  0.36137  0.48385  Biso   1.000  La
  La21     1.0000 0.45760  0.45550  0.48922  Biso   1.000  La
  La22     1.0000 0.44560  0.38300  0.51727  Biso   1.000  La
  La23     1.0000 0.72870  0.32840  0.74071  Biso   1.000  La
  La24     1.0000 0.68120  0.35670  0.73419  Biso   1.000  La
  Ag25     1.0000 0.15908  0.78206  0.97818  Biso   1.000  Ag
  Ag26     1.0000 0.61056  0.85399  0.75087  Biso   1.000  Ag
  Ag27     1.0000 0.49880  0.81303  0.71209  Biso   1.000  Ag
  Ag28     1.0000 0.05607  0.82843  0.02230  Biso   1.000  Ag
  Ag29     1.0000 0.24295  0.77203  0.03991  Biso   1.000  Ag
  Ag30     1.0000 0.21386  0.62538  0.06155  Biso   1.000  Ag
  Ag31     1.0000 0.69996  0.09247  0.90255  Biso   1.000  Ag
  Ag32     1.0000 0.14164  0.84889  0.09256  Biso   1.000  Ag
  Pd19     1.0000 0.99800  0.74186  0.95505  Biso   1.000  Pd
  Pd20     1.0000 0.27653  0.66269  0.98060  Biso   1.000  Pd
  Pd21     1.0000 0.54526  0.06834  0.93614  Biso   1.000  Pd
  Pd22     1.0000 0.47602  0.68435  0.65364  Biso   1.000  Pd
  Pd23     1.0000 0.18649  0.92759  0.01797  Biso   1.000  Pd
  Pd24     1.0000 0.24832  0.73805  0.12398  Biso   1.000  Pd
  I4       1.0000 0.62644  0.76345  0.70947  Biso   1.000  I
  La25     1.0000 0.38002  0.92071  0.88572  Biso   1.000  La
  S37      1.0000 0.06069  0.80219  0.96995  Biso   1.000  S
  S38      1.0000 0.51481  0.82641  0.76389  Biso   1.000  S
  S39      1.0000 0.18939  0.68643  0.97138  Biso   1.000  S
  S40      1.0000 0.27552  0.67779  0.02806  Biso   1.000  S
  S41      1.0000 0.63690  0.92259  0.71416  Biso   1.000  S
  S42      1.0000 0.62653  0.03151  0.92334  Biso   1.000  S
  S43      1.0000 0.48055  0.71457  0.69859  Biso   1.000  S
  S44      1.0000 0.79390  0.06097  0.88974  Biso   1.000  S
  S45      1.0000 0.11811  0.89736  0.04622  Biso   1.000  S
  S46      1.0000 0.21944  0.84596  0.00419  Biso   1.000  S
  S47      1.0000 0.23346  0.80261  0.09074  Biso   1.000  S
  S48      1.0000 0.19084  0.67353  0.10797  Biso   1.000  S
  O88      1.0000 0.95656  0.89062  0.89878  Biso   1.000  O
  O89      1.0000 0.03800  0.90825  0.88414  Biso   1.000  O
  O90      1.0000 0.39146  0.88507  0.83712  Biso   1.000  O
  O91      1.0000 0.37080  0.93640  0.79893  Biso   1.000  O
  O92      1.0000 0.26655  0.62354  0.88268  Biso   1.000  O
  O93      1.0000 0.22670  0.70155  0.87396  Biso   1.000  O
  O94      1.0000 0.46010  0.65350  0.99293  Biso   1.000  O
  O95      1.0000 0.45370  0.60600  0.03214  Biso   1.000  O
  O96      1.0000 0.63159  0.11640  0.72427  Biso   1.000  O
  O97      1.0000 0.71931  0.09890  0.71794  Biso   1.000  O
  O98      1.0000 0.47901  0.92716  0.87917  Biso   1.000  O
  O99      1.0000 0.54323  0.86757  0.89206  Biso   1.000  O
  O100     1.0000 0.30034  0.63557  0.68468  Biso   1.000  O
  O101     1.0000 0.28610  0.71390  0.70652  Biso   1.000  O
  O102     1.0000 0.83620  0.95210  0.80694  Biso   1.000  O
  O103     1.0000 0.87140  0.03180  0.79783  Biso   1.000  O
  O104     1.0000 0.09430  0.08960  0.04129  Biso   1.000  O
  O105     1.0000 0.09160  0.06920  0.08895  Biso   1.000  O
  O106     1.0000 0.32545  0.98545  0.95648  Biso   1.000  O
  O107     1.0000 0.31335  0.91805  0.92592  Biso   1.000  O
  O108     1.0000 0.38817  0.85616  0.14585  Biso   1.000  O
  O109     1.0000 0.34180  0.93397  0.14026  Biso   1.000  O
  O110     1.0000 0.26670  0.61326  0.19499  Biso   1.000  O
  O111     1.0000 0.25420  0.53809  0.17123  Biso   1.000  O
  N37      1.0000 0.98373  0.79539  0.92426  Biso   1.000  N
  H337     1.0000 0.97900  0.77660  0.90760  Biso   1.000  H
  H338     1.0000 0.95160  0.81290  0.92820  Biso   1.000  H
  N38      1.0000 0.43594  0.80682  0.80949  Biso   1.000  N
  H339     1.0000 0.40450  0.78670  0.80980  Biso   1.000  H
  H340     1.0000 0.44360  0.81670  0.82780  Biso   1.000  H
  N39      1.0000 0.28510  0.65660  0.93818  Biso   1.000  N
  H341     1.0000 0.31870  0.66990  0.93320  Biso   1.000  H
  H342     1.0000 0.28410  0.62040  0.93320  Biso   1.000  H
  N40      1.0000 0.35282  0.63010  0.98704  Biso   1.000  N
  H343     1.0000 0.35410  0.59650  0.97860  Biso   1.000  H
  H344     1.0000 0.37790  0.65190  0.97810  Biso   1.000  H
  N41      1.0000 0.60003  0.03035  0.69543  Biso   1.000  N
  H345     1.0000 0.60020  0.05090  0.67920  Biso   1.000  H
  H346     1.0000 0.57740  0.04730  0.70820  Biso   1.000  H
  N42      1.0000 0.51200  0.00725  0.91276  Biso   1.000  N
  H347     1.0000 0.47990  0.99670  0.92100  Biso   1.000  H
  H348     1.0000 0.50410  0.02020  0.89500  Biso   1.000  H
  N43      1.0000 0.39553  0.66944  0.66150  Biso   1.000  N
  H349     1.0000 0.37530  0.68050  0.64620  Biso   1.000  H
  H350     1.0000 0.39050  0.63260  0.66370  Biso   1.000  H
  N44      1.0000 0.84340  0.96860  0.86309  Biso   1.000  N
  H351     1.0000 0.87670  0.95170  0.86380  Biso   1.000  H
  H352     1.0000 0.82020  0.94560  0.85370  Biso   1.000  H
  N45      1.0000 0.16333  0.00240  0.03290  Biso   1.000  N
  H353     1.0000 0.19430  0.02140  0.03740  Biso   1.000  H
  H354     1.0000 0.14660  0.02070  0.01840  Biso   1.000  H
  N46      1.0000 0.24080  0.95742  0.98718  Biso   1.000  N
  H355     1.0000 0.22380  0.98440  0.97700  Biso   1.000  H
  H356     1.0000 0.27030  0.97260  0.99610  Biso   1.000  H
  N47      1.0000 0.29876  0.79274  0.14164  Biso   1.000  N
  H357     1.0000 0.29110  0.79400  0.16070  Biso   1.000  H
  H358     1.0000 0.33360  0.77960  0.13980  Biso   1.000  H
  N48      1.0000 0.26760  0.68068  0.15349  Biso   1.000  N
  H359     1.0000 0.30480  0.67980  0.15540  Biso   1.000  H
  H360     1.0000 0.25340  0.69150  0.17060  Biso   1.000  H
  C190     1.0000 0.04400  0.86020  0.94598  Biso   1.000  C
  C191     1.0000 0.02510  0.83560  0.91989  Biso   1.000  C
  H361     1.0000 0.05690  0.81680  0.91110  Biso   1.000  H
  C192     1.0000 0.00610  0.88250  0.89827  Biso   1.000  C
  C193     1.0000 0.00230  0.89700  0.95976  Biso   1.000  C
  H362     1.0000 0.01740  0.91240  0.97710  Biso   1.000  H
  H363     1.0000 0.96960  0.87600  0.96430  Biso   1.000  H
  H364     1.0000 0.99280  0.92650  0.94670  Biso   1.000  H
  C194     1.0000 0.10350  0.89230  0.94155  Biso   1.000  C
  H365     1.0000 0.11490  0.90850  0.95950  Biso   1.000  H
  H366     1.0000 0.09940  0.92080  0.92730  Biso   1.000  H
  H367     1.0000 0.13110  0.86620  0.93530  Biso   1.000  H
  C195     1.0000 0.47627  0.88175  0.78229  Biso   1.000  C
  C196     1.0000 0.42589  0.85710  0.79265  Biso   1.000  C
  H368     1.0000 0.40380  0.84660  0.77580  Biso   1.000  H
  C197     1.0000 0.39000  0.89620  0.81121  Biso   1.000  C
  C198     1.0000 0.51550  0.90300  0.80630  Biso   1.000  C
  H369     1.0000 0.54790  0.91920  0.79770  Biso   1.000  H
  H370     1.0000 0.52630  0.87260  0.81840  Biso   1.000  H
  H371     1.0000 0.49670  0.93050  0.81770  Biso   1.000  H
  C199     1.0000 0.46850  0.92420  0.75892  Biso   1.000  C
  H372     1.0000 0.50380  0.93970  0.75380  Biso   1.000  H
  H373     1.0000 0.44450  0.95310  0.76570  Biso   1.000  H
  H374     1.0000 0.45220  0.90690  0.74230  Biso   1.000  H
  C200     1.0000 0.18350  0.66710  0.93280  Biso   1.000  C
  C201     1.0000 0.24180  0.68680  0.92137  Biso   1.000  C
  H375     1.0000 0.24630  0.72710  0.92270  Biso   1.000  H
  C202     1.0000 0.24560  0.66545  0.88919  Biso   1.000  C
  C203     1.0000 0.17630  0.60290  0.93210  Biso   1.000  C
  H376     1.0000 0.20840  0.58560  0.94040  Biso   1.000  H
  H377     1.0000 0.17210  0.59080  0.91250  Biso   1.000  H
  H378     1.0000 0.14400  0.59280  0.94300  Biso   1.000  H
  C204     1.0000 0.13550  0.69930  0.91973  Biso   1.000  C
  H379     1.0000 0.10110  0.68480  0.92700  Biso   1.000  H
  H380     1.0000 0.13640  0.69560  0.89910  Biso   1.000  H
  H381     1.0000 0.13870  0.73770  0.92490  Biso   1.000  H
  C205     1.0000 0.34930  0.67440  0.03392  Biso   1.000  C
  C206     1.0000 0.36837  0.62440  0.01540  Biso   1.000  C
  H382     1.0000 0.35890  0.58830  0.02370  Biso   1.000  H
  C207     1.0000 0.43250  0.63560  0.01360  Biso   1.000  C
  C208     1.0000 0.37610  0.72600  0.02568  Biso   1.000  C
  H383     1.0000 0.37390  0.73050  0.00510  Biso   1.000  H
  H384     1.0000 0.41430  0.72510  0.03150  Biso   1.000  H
  H385     1.0000 0.35780  0.75650  0.03500  Biso   1.000  H
  C209     1.0000 0.35550  0.66880  0.06198  Biso   1.000  C
  H386     1.0000 0.33930  0.63440  0.06810  Biso   1.000  H
  H387     1.0000 0.33740  0.69900  0.07170  Biso   1.000  H
  H388     1.0000 0.39430  0.66900  0.06670  Biso   1.000  H
  C210     1.0000 0.65880  0.98690  0.73144  Biso   1.000  C
  C211     1.0000 0.65660  0.02942  0.70741  Biso   1.000  C
  H389     1.0000 0.68320  0.01960  0.69230  Biso   1.000  H
  C212     1.0000 0.67103  0.08750  0.72002  Biso   1.000  C
  C213     1.0000 0.61680  0.99940  0.75533  Biso   1.000  C
  H390     1.0000 0.61950  0.97150  0.77010  Biso   1.000  H
  H391     1.0000 0.58010  0.99930  0.74740  Biso   1.000  H
  H392     1.0000 0.62470  0.03510  0.76350  Biso   1.000  H
  C214     1.0000 0.71570  0.97450  0.74421  Biso   1.000  C
  H393     1.0000 0.71210  0.94700  0.75910  Biso   1.000  H
  H394     1.0000 0.73100  0.00780  0.75230  Biso   1.000  H
  H395     1.0000 0.73980  0.96090  0.72930  Biso   1.000  H
  C215     1.0000 0.60470  0.97670  0.89882  Biso   1.000  C
  C216     1.0000 0.54830  0.95890  0.91007  Biso   1.000  C
  H396     1.0000 0.55360  0.94340  0.92940  Biso   1.000  H
  C217     1.0000 0.51750  0.91400  0.89131  Biso   1.000  C
  C218     1.0000 0.60040  0.99800  0.86905  Biso   1.000  C
  H397     1.0000 0.63650  0.00870  0.86230  Biso   1.000  H
  H398     1.0000 0.57620  0.02970  0.86870  Biso   1.000  H
  H399     1.0000 0.58560  0.96960  0.85670  Biso   1.000  H
  C219     1.0000 0.65050  0.92980  0.90085  Biso   1.000  C
  H400     1.0000 0.68490  0.94350  0.89330  Biso   1.000  H
  H401     1.0000 0.63890  0.89810  0.88980  Biso   1.000  H
  H402     1.0000 0.65540  0.91920  0.92060  Biso   1.000  H
  C220     1.0000 0.41173  0.69240  0.71181  Biso   1.000  C
  C221     1.0000 0.37560  0.69810  0.68745  Biso   1.000  C
  H403     1.0000 0.37520  0.73770  0.68270  Biso   1.000  H
  C222     1.0000 0.31520  0.68170  0.69259  Biso   1.000  C
  C223     1.0000 0.41770  0.63350  0.71801  Biso   1.000  C
  H404     1.0000 0.42650  0.61400  0.70060  Biso   1.000  H
  H405     1.0000 0.38360  0.61940  0.72580  Biso   1.000  H
  H406     1.0000 0.44690  0.62820  0.73180  Biso   1.000  H
  C224     1.0000 0.39810  0.72280  0.73722  Biso   1.000  C
  H407     1.0000 0.39560  0.76160  0.73270  Biso   1.000  H
  H408     1.0000 0.42640  0.71720  0.75150  Biso   1.000  H
  H409     1.0000 0.36310  0.71020  0.74460  Biso   1.000  H
  C225     1.0000 0.80130  0.04810  0.85144  Biso   1.000  C
  C226     1.0000 0.84960  0.01740  0.84585  Biso   1.000  C
  H410     1.0000 0.88270  0.03820  0.85160  Biso   1.000  H
  C227     1.0000 0.85500  0.99620  0.81404  Biso   1.000  C
  C228     1.0000 0.74880  0.02320  0.84090  Biso   1.000  C
  H411     1.0000 0.71850  0.04800  0.84480  Biso   1.000  H
  H412     1.0000 0.74250  0.98850  0.85060  Biso   1.000  H
  H413     1.0000 0.75140  0.01690  0.82050  Biso   1.000  H
  C229     1.0000 0.80240  0.10430  0.83769  Biso   1.000  C
  H414     1.0000 0.76780  0.12280  0.84110  Biso   1.000  H
  H415     1.0000 0.80810  0.10040  0.81730  Biso   1.000  H
  H416     1.0000 0.83210  0.12570  0.84580  Biso   1.000  H
  C230     1.0000 0.08300  0.96370  0.05176  Biso   1.000  C
  C231     1.0000 0.12679  0.00400  0.05763  Biso   1.000  C
  H417     1.0000 0.14710  0.99370  0.07510  Biso   1.000  H
  C232     1.0000 0.10210  0.06160  0.06082  Biso   1.000  C
  C233     1.0000 0.04630  0.97535  0.02655  Biso   1.000  C
  H418     1.0000 0.01930  0.94630  0.02470  Biso   1.000  H
  H419     1.0000 0.06830  0.97710  0.00930  Biso   1.000  H
  H420     1.0000 0.02780  0.01020  0.02940  Biso   1.000  H
  C234     1.0000 0.04910  0.95410  0.07904  Biso   1.000  C
  H421     1.0000 0.07370  0.94690  0.09490  Biso   1.000  H
  H422     1.0000 0.02500  0.92290  0.07630  Biso   1.000  H
  H423     1.0000 0.02740  0.98650  0.08310  Biso   1.000  H
  C235     1.0000 0.27870  0.86660  0.98183  Biso   1.000  C
  C236     1.0000 0.25920  0.91710  0.96837  Biso   1.000  C
  H424     1.0000 0.22760  0.90690  0.95610  Biso   1.000  H
  C237     1.0000 0.30310  0.94250  0.94870  Biso   1.000  C
  C238     1.0000 0.32610  0.87540  0.00066  Biso   1.000  C
  H425     1.0000 0.31810  0.90490  0.01390  Biso   1.000  H
  H426     1.0000 0.35800  0.88500  0.98930  Biso   1.000  H
  H427     1.0000 0.33360  0.84200  0.01120  Biso   1.000  H
  C239     1.0000 0.28660  0.82350  0.96037  Biso   1.000  C
  H428     1.0000 0.25400  0.82090  0.94850  Biso   1.000  H
  H429     1.0000 0.29290  0.78870  0.96980  Biso   1.000  H
  H430     1.0000 0.31800  0.83250  0.94850  Biso   1.000  H
  C240     1.0000 0.29150  0.85140  0.09927  Biso   1.000  C
  C241     1.0000 0.29850  0.84940  0.13091  Biso   1.000  C
  H431     1.0000 0.26630  0.86800  0.13940  Biso   1.000  H
  C242     1.0000 0.34770  0.88040  0.13976  Biso   1.000  C
  C243     1.0000 0.34330  0.83030  0.08564  Biso   1.000  C
  H432     1.0000 0.33950  0.83130  0.06500  Biso   1.000  H
  H433     1.0000 0.34980  0.79280  0.09170  Biso   1.000  H
  H434     1.0000 0.37400  0.85310  0.09140  Biso   1.000  H
  C244     1.0000 0.27700  0.90510  0.08633  Biso   1.000  C
  H435     1.0000 0.27460  0.90120  0.06580  Biso   1.000  H
  H436     1.0000 0.30490  0.93200  0.09100  Biso   1.000  H
  H437     1.0000 0.24180  0.91730  0.09370  Biso   1.000  H
  C245     1.0000 0.18971  0.62650  0.13809  Biso   1.000  C
  C246     1.0000 0.24720  0.62150  0.14716  Biso   1.000  C
  H438     1.0000 0.26940  0.60510  0.13160  Biso   1.000  H
  C247     1.0000 0.25250  0.58550  0.17516  Biso   1.000  C
  C248     1.0000 0.15220  0.64680  0.15863  Biso   1.000  C
  H439     1.0000 0.16490  0.68210  0.16560  Biso   1.000  H
  H440     1.0000 0.14980  0.62120  0.17440  Biso   1.000  H
  H441     1.0000 0.11630  0.65100  0.14990  Biso   1.000  H
  C249     1.0000 0.17470  0.56990  0.12579  Biso   1.000  C
  H442     1.0000 0.13670  0.57010  0.11960  Biso   1.000  H
  H443     1.0000 0.17970  0.54210  0.14040  Biso   1.000  H
  H444     1.0000 0.19830  0.56180  0.10960  Biso   1.000  H
  O112     1.0000 0.41330  0.83650  0.91502  Biso   1.000  O
  C250     1.0000 0.43920  0.87440  0.93710  Biso   1.000  C
  C251     1.0000 0.46250  0.82890  0.96050  Biso   1.000  C
  H445     1.0000 0.45790  0.79220  0.95280  Biso   1.000  H
  H446     1.0000 0.44220  0.83230  0.97820  Biso   1.000  H
  H447     1.0000 0.50120  0.83570  0.96400  Biso   1.000  H
  O113     1.0000 0.43450  0.91630  0.93560  Biso   1.000  O
  La26     1.0000 0.53236  0.57099  0.04265  Biso   1.000  La
  La27     1.0000 0.65052  0.22075  0.74193  Biso   1.000  La
  O114     1.0000 0.71950  0.17990  0.77837  Biso   1.000  O
  O115     1.0000 0.45730  0.61840  0.00247  Biso   1.000  O
  O116     1.0000 0.44350  0.58500  0.04543  Biso   1.000  O
  H448     1.0000 0.34380  0.59470  0.02210  Biso   1.000  H
  C252     1.0000 0.42740  0.59960  0.02156  Biso   1.000  C
  La28     1.0000 0.56581  0.63863  0.98385  Biso   1.000  La
  La29     1.0000 0.54240  0.54450  0.98922  Biso   1.000  La
  La30     1.0000 0.55440  0.61700  0.01727  Biso   1.000  La
  La31     1.0000 0.27130  0.67160  0.24071  Biso   1.000  La
  La32     1.0000 0.31880  0.64330  0.23419  Biso   1.000  La
  Ag33     1.0000 0.78206  0.15908  0.02182  Biso   1.000  Ag
  Ag34     1.0000 0.85399  0.61056  0.24913  Biso   1.000  Ag
  Ag35     1.0000 0.81303  0.49880  0.28791  Biso   1.000  Ag
  Ag36     1.0000 0.82843  0.05607  0.97770  Biso   1.000  Ag
  Ag37     1.0000 0.77203  0.24295  0.96009  Biso   1.000  Ag
  Ag38     1.0000 0.62538  0.21386  0.93845  Biso   1.000  Ag
  Ag39     1.0000 0.09247  0.69996  0.09745  Biso   1.000  Ag
  Ag40     1.0000 0.84889  0.14164  0.90744  Biso   1.000  Ag
  Pd25     1.0000 0.74186  0.99800  0.04495  Biso   1.000  Pd
  Pd26     1.0000 0.66269  0.27653  0.01940  Biso   1.000  Pd
  Pd27     1.0000 0.06834  0.54526  0.06386  Biso   1.000  Pd
  Pd28     1.0000 0.68435  0.47602  0.34636  Biso   1.000  Pd
  Pd29     1.0000 0.92759  0.18649  0.98203  Biso   1.000  Pd
  Pd30     1.0000 0.73805  0.24832  0.87602  Biso   1.000  Pd
  I5       1.0000 0.76345  0.62644  0.29053  Biso   1.000  I
  La33     1.0000 0.92071  0.38002  0.11428  Biso   1.000  La
  S49      1.0000 0.80219  0.06069  0.03005  Biso   1.000  S
  S50      1.0000 0.82641  0.51481  0.23611  Biso   1.000  S
  S51      1.0000 0.68643  0.18939  0.02862  Biso   1.000  S
  S52      1.0000 0.67779  0.27552  0.97194  Biso   1.000  S
  S53      1.0000 0.92259  0.63690  0.28584  Biso   1.000  S
  S54      1.0000 0.03151  0.62653  0.07666  Biso   1.000  S
  S55      1.0000 0.71457  0.48055  0.30141  Biso   1.000  S
  S56      1.0000 0.06097  0.79390  0.11026  Biso   1.000  S
  S57      1.0000 0.89736  0.11811  0.95378  Biso   1.000  S
  S58      1.0000 0.84596  0.21944  0.99581  Biso   1.000  S
  S59      1.0000 0.80261  0.23346  0.90926  Biso   1.000  S
  S60      1.0000 0.67353  0.19084  0.89203  Biso   1.000  S
  O117     1.0000 0.89062  0.95656  0.10122  Biso   1.000  O
  O118     1.0000 0.90825  0.03800  0.11586  Biso   1.000  O
  O119     1.0000 0.88507  0.39146  0.16288  Biso   1.000  O
  O120     1.0000 0.93640  0.37080  0.20107  Biso   1.000  O
  O121     1.0000 0.62354  0.26655  0.11732  Biso   1.000  O
  O122     1.0000 0.70155  0.22670  0.12604  Biso   1.000  O
  O123     1.0000 0.65350  0.46010  0.00707  Biso   1.000  O
  O124     1.0000 0.60600  0.45370  0.96786  Biso   1.000  O
  O125     1.0000 0.11640  0.63159  0.27573  Biso   1.000  O
  O126     1.0000 0.09890  0.71931  0.28206  Biso   1.000  O
  O127     1.0000 0.92716  0.47901  0.12083  Biso   1.000  O
  O128     1.0000 0.86757  0.54323  0.10794  Biso   1.000  O
  O129     1.0000 0.63557  0.30034  0.31532  Biso   1.000  O
  O130     1.0000 0.71390  0.28610  0.29348  Biso   1.000  O
  O131     1.0000 0.95210  0.83620  0.19306  Biso   1.000  O
  O132     1.0000 0.03180  0.87140  0.20217  Biso   1.000  O
  O133     1.0000 0.08960  0.09430  0.95871  Biso   1.000  O
  O134     1.0000 0.06920  0.09160  0.91105  Biso   1.000  O
  O135     1.0000 0.98545  0.32545  0.04352  Biso   1.000  O
  O136     1.0000 0.91805  0.31335  0.07408  Biso   1.000  O
  O137     1.0000 0.85616  0.38817  0.85415  Biso   1.000  O
  O138     1.0000 0.93397  0.34180  0.85974  Biso   1.000  O
  O139     1.0000 0.61326  0.26670  0.80501  Biso   1.000  O
  O140     1.0000 0.53809  0.25420  0.82877  Biso   1.000  O
  N49      1.0000 0.79539  0.98373  0.07574  Biso   1.000  N
  H449     1.0000 0.77660  0.97900  0.09240  Biso   1.000  H
  H450     1.0000 0.81290  0.95160  0.07180  Biso   1.000  H
  N50      1.0000 0.80682  0.43594  0.19051  Biso   1.000  N
  H451     1.0000 0.78670  0.40450  0.19020  Biso   1.000  H
  H452     1.0000 0.81670  0.44360  0.17220  Biso   1.000  H
  N51      1.0000 0.65660  0.28510  0.06182  Biso   1.000  N
  H453     1.0000 0.66990  0.31870  0.06680  Biso   1.000  H
  H454     1.0000 0.62040  0.28410  0.06680  Biso   1.000  H
  N52      1.0000 0.63010  0.35282  0.01296  Biso   1.000  N
  H455     1.0000 0.59650  0.35410  0.02140  Biso   1.000  H
  H456     1.0000 0.65190  0.37790  0.02190  Biso   1.000  H
  N53      1.0000 0.03035  0.60003  0.30457  Biso   1.000  N
  H457     1.0000 0.05090  0.60020  0.32080  Biso   1.000  H
  H458     1.0000 0.04730  0.57740  0.29180  Biso   1.000  H
  N54      1.0000 0.00725  0.51200  0.08724  Biso   1.000  N
  H459     1.0000 0.99670  0.47990  0.07900  Biso   1.000  H
  H460     1.0000 0.02020  0.50410  0.10500  Biso   1.000  H
  N55      1.0000 0.66944  0.39553  0.33850  Biso   1.000  N
  H461     1.0000 0.68050  0.37530  0.35380  Biso   1.000  H
  H462     1.0000 0.63260  0.39050  0.33630  Biso   1.000  H
  N56      1.0000 0.96860  0.84340  0.13691  Biso   1.000  N
  H463     1.0000 0.95170  0.87670  0.13620  Biso   1.000  H
  H464     1.0000 0.94560  0.82020  0.14630  Biso   1.000  H
  N57      1.0000 0.00240  0.16333  0.96710  Biso   1.000  N
  H465     1.0000 0.02140  0.19430  0.96260  Biso   1.000  H
  H466     1.0000 0.02070  0.14660  0.98160  Biso   1.000  H
  N58      1.0000 0.95742  0.24080  0.01282  Biso   1.000  N
  H467     1.0000 0.98440  0.22380  0.02300  Biso   1.000  H
  H468     1.0000 0.97260  0.27030  0.00390  Biso   1.000  H
  N59      1.0000 0.79274  0.29876  0.85836  Biso   1.000  N
  H469     1.0000 0.79400  0.29110  0.83930  Biso   1.000  H
  H470     1.0000 0.77960  0.33360  0.86020  Biso   1.000  H
  N60      1.0000 0.68068  0.26760  0.84651  Biso   1.000  N
  H471     1.0000 0.67980  0.30480  0.84460  Biso   1.000  H
  H472     1.0000 0.69150  0.25340  0.82940  Biso   1.000  H
  C253     1.0000 0.86020  0.04400  0.05402  Biso   1.000  C
  C254     1.0000 0.83560  0.02510  0.08011  Biso   1.000  C
  H473     1.0000 0.81680  0.05690  0.08890  Biso   1.000  H
  C255     1.0000 0.88250  0.00610  0.10173  Biso   1.000  C
  C256     1.0000 0.89700  0.00230  0.04024  Biso   1.000  C
  H474     1.0000 0.91240  0.01740  0.02290  Biso   1.000  H
  H475     1.0000 0.87600  0.96960  0.03570  Biso   1.000  H
  H476     1.0000 0.92650  0.99280  0.05330  Biso   1.000  H
  C257     1.0000 0.89230  0.10350  0.05845  Biso   1.000  C
  H477     1.0000 0.90850  0.11490  0.04050  Biso   1.000  H
  H478     1.0000 0.92080  0.09940  0.07270  Biso   1.000  H
  H479     1.0000 0.86620  0.13110  0.06470  Biso   1.000  H
  C258     1.0000 0.88175  0.47627  0.21771  Biso   1.000  C
  C259     1.0000 0.85710  0.42589  0.20735  Biso   1.000  C
  H480     1.0000 0.84660  0.40380  0.22420  Biso   1.000  H
  C260     1.0000 0.89620  0.39000  0.18879  Biso   1.000  C
  C261     1.0000 0.90300  0.51550  0.19370  Biso   1.000  C
  H481     1.0000 0.91920  0.54790  0.20230  Biso   1.000  H
  H482     1.0000 0.87260  0.52630  0.18160  Biso   1.000  H
  H483     1.0000 0.93050  0.49670  0.18230  Biso   1.000  H
  C262     1.0000 0.92420  0.46850  0.24108  Biso   1.000  C
  H484     1.0000 0.93970  0.50380  0.24620  Biso   1.000  H
  H485     1.0000 0.95310  0.44450  0.23430  Biso   1.000  H
  H486     1.0000 0.90690  0.45220  0.25770  Biso   1.000  H
  C263     1.0000 0.66710  0.18350  0.06720  Biso   1.000  C
  C264     1.0000 0.68680  0.24180  0.07863  Biso   1.000  C
  H487     1.0000 0.72710  0.24630  0.07730  Biso   1.000  H
  C265     1.0000 0.66545  0.24560  0.11081  Biso   1.000  C
  C266     1.0000 0.60290  0.17630  0.06790  Biso   1.000  C
  H488     1.0000 0.58560  0.20840  0.05960  Biso   1.000  H
  H489     1.0000 0.59080  0.17210  0.08750  Biso   1.000  H
  H490     1.0000 0.59280  0.14400  0.05700  Biso   1.000  H
  C267     1.0000 0.69930  0.13550  0.08027  Biso   1.000  C
  H491     1.0000 0.68480  0.10110  0.07300  Biso   1.000  H
  H492     1.0000 0.69560  0.13640  0.10090  Biso   1.000  H
  H493     1.0000 0.73770  0.13870  0.07510  Biso   1.000  H
  C268     1.0000 0.67440  0.34930  0.96608  Biso   1.000  C
  C269     1.0000 0.62440  0.36837  0.98460  Biso   1.000  C
  H494     1.0000 0.58830  0.35890  0.97630  Biso   1.000  H
  C270     1.0000 0.63560  0.43250  0.98640  Biso   1.000  C
  C271     1.0000 0.72600  0.37610  0.97432  Biso   1.000  C
  H495     1.0000 0.73050  0.37390  0.99490  Biso   1.000  H
  H496     1.0000 0.72510  0.41430  0.96850  Biso   1.000  H
  H497     1.0000 0.75650  0.35780  0.96500  Biso   1.000  H
  C272     1.0000 0.66880  0.35550  0.93802  Biso   1.000  C
  H498     1.0000 0.63440  0.33930  0.93190  Biso   1.000  H
  H499     1.0000 0.69900  0.33740  0.92830  Biso   1.000  H
  H500     1.0000 0.66900  0.39430  0.93330  Biso   1.000  H
  C273     1.0000 0.98690  0.65880  0.26856  Biso   1.000  C
  C274     1.0000 0.02942  0.65660  0.29259  Biso   1.000  C
  H501     1.0000 0.01960  0.68320  0.30770  Biso   1.000  H
  C275     1.0000 0.08750  0.67103  0.27998  Biso   1.000  C
  C276     1.0000 0.99940  0.61680  0.24467  Biso   1.000  C
  H502     1.0000 0.97150  0.61950  0.22990  Biso   1.000  H
  H503     1.0000 0.99930  0.58010  0.25260  Biso   1.000  H
  H504     1.0000 0.03510  0.62470  0.23650  Biso   1.000  H
  C277     1.0000 0.97450  0.71570  0.25579  Biso   1.000  C
  H505     1.0000 0.94700  0.71210  0.24090  Biso   1.000  H
  H506     1.0000 0.00780  0.73100  0.24770  Biso   1.000  H
  H507     1.0000 0.96090  0.73980  0.27070  Biso   1.000  H
  C278     1.0000 0.97670  0.60470  0.10118  Biso   1.000  C
  C279     1.0000 0.95890  0.54830  0.08993  Biso   1.000  C
  H508     1.0000 0.94340  0.55360  0.07060  Biso   1.000  H
  C280     1.0000 0.91400  0.51750  0.10869  Biso   1.000  C
  C281     1.0000 0.99800  0.60040  0.13095  Biso   1.000  C
  H509     1.0000 0.00870  0.63650  0.13770  Biso   1.000  H
  H510     1.0000 0.02970  0.57620  0.13130  Biso   1.000  H
  H511     1.0000 0.96960  0.58560  0.14330  Biso   1.000  H
  C282     1.0000 0.92980  0.65050  0.09915  Biso   1.000  C
  H512     1.0000 0.94350  0.68490  0.10670  Biso   1.000  H
  H513     1.0000 0.89810  0.63890  0.11020  Biso   1.000  H
  H514     1.0000 0.91920  0.65540  0.07940  Biso   1.000  H
  C283     1.0000 0.69240  0.41173  0.28819  Biso   1.000  C
  C284     1.0000 0.69810  0.37560  0.31255  Biso   1.000  C
  H515     1.0000 0.73770  0.37520  0.31730  Biso   1.000  H
  C285     1.0000 0.68170  0.31520  0.30741  Biso   1.000  C
  C286     1.0000 0.63350  0.41770  0.28199  Biso   1.000  C
  H516     1.0000 0.61400  0.42650  0.29940  Biso   1.000  H
  H517     1.0000 0.61940  0.38360  0.27420  Biso   1.000  H
  H518     1.0000 0.62820  0.44690  0.26820  Biso   1.000  H
  C287     1.0000 0.72280  0.39810  0.26278  Biso   1.000  C
  H519     1.0000 0.76160  0.39560  0.26730  Biso   1.000  H
  H520     1.0000 0.71720  0.42640  0.24850  Biso   1.000  H
  H521     1.0000 0.71020  0.36310  0.25540  Biso   1.000  H
  C288     1.0000 0.04810  0.80130  0.14856  Biso   1.000  C
  C289     1.0000 0.01740  0.84960  0.15415  Biso   1.000  C
  H522     1.0000 0.03820  0.88270  0.14840  Biso   1.000  H
  C290     1.0000 0.99620  0.85500  0.18596  Biso   1.000  C
  C291     1.0000 0.02320  0.74880  0.15910  Biso   1.000  C
  H523     1.0000 0.04800  0.71850  0.15520  Biso   1.000  H
  H524     1.0000 0.98850  0.74250  0.14940  Biso   1.000  H
  H525     1.0000 0.01690  0.75140  0.17950  Biso   1.000  H
  C292     1.0000 0.10430  0.80240  0.16231  Biso   1.000  C
  H526     1.0000 0.12280  0.76780  0.15890  Biso   1.000  H
  H527     1.0000 0.10040  0.80810  0.18270  Biso   1.000  H
  H528     1.0000 0.12570  0.83210  0.15420  Biso   1.000  H
  C293     1.0000 0.96370  0.08300  0.94824  Biso   1.000  C
  C294     1.0000 0.00400  0.12679  0.94237  Biso   1.000  C
  H529     1.0000 0.99370  0.14710  0.92490  Biso   1.000  H
  C295     1.0000 0.06160  0.10210  0.93918  Biso   1.000  C
  C296     1.0000 0.97535  0.04630  0.97345  Biso   1.000  C
  H530     1.0000 0.94630  0.01930  0.97530  Biso   1.000  H
  H531     1.0000 0.97710  0.06830  0.99070  Biso   1.000  H
  H532     1.0000 0.01020  0.02780  0.97060  Biso   1.000  H
  C297     1.0000 0.95410  0.04910  0.92096  Biso   1.000  C
  H533     1.0000 0.94690  0.07370  0.90510  Biso   1.000  H
  H534     1.0000 0.92290  0.02500  0.92370  Biso   1.000  H
  H535     1.0000 0.98650  0.02740  0.91690  Biso   1.000  H
  C298     1.0000 0.86660  0.27870  0.01817  Biso   1.000  C
  C299     1.0000 0.91710  0.25920  0.03163  Biso   1.000  C
  H536     1.0000 0.90690  0.22760  0.04390  Biso   1.000  H
  C300     1.0000 0.94250  0.30310  0.05130  Biso   1.000  C
  C301     1.0000 0.87540  0.32610  0.99934  Biso   1.000  C
  H537     1.0000 0.90490  0.31810  0.98610  Biso   1.000  H
  H538     1.0000 0.88500  0.35800  0.01070  Biso   1.000  H
  H539     1.0000 0.84200  0.33360  0.98880  Biso   1.000  H
  C302     1.0000 0.82350  0.28660  0.03963  Biso   1.000  C
  H540     1.0000 0.82090  0.25400  0.05150  Biso   1.000  H
  H541     1.0000 0.78870  0.29290  0.03020  Biso   1.000  H
  H542     1.0000 0.83250  0.31800  0.05150  Biso   1.000  H
  C303     1.0000 0.85140  0.29150  0.90073  Biso   1.000  C
  C304     1.0000 0.84940  0.29850  0.86909  Biso   1.000  C
  H543     1.0000 0.86800  0.26630  0.86060  Biso   1.000  H
  C305     1.0000 0.88040  0.34770  0.86024  Biso   1.000  C
  C306     1.0000 0.83030  0.34330  0.91436  Biso   1.000  C
  H544     1.0000 0.83130  0.33950  0.93500  Biso   1.000  H
  H545     1.0000 0.79280  0.34980  0.90830  Biso   1.000  H
  H546     1.0000 0.85310  0.37400  0.90860  Biso   1.000  H
  C307     1.0000 0.90510  0.27700  0.91367  Biso   1.000  C
  H547     1.0000 0.90120  0.27460  0.93420  Biso   1.000  H
  H548     1.0000 0.93200  0.30490  0.90900  Biso   1.000  H
  H549     1.0000 0.91730  0.24180  0.90630  Biso   1.000  H
  C308     1.0000 0.62650  0.18971  0.86191  Biso   1.000  C
  C309     1.0000 0.62150  0.24720  0.85284  Biso   1.000  C
  H550     1.0000 0.60510  0.26940  0.86840  Biso   1.000  H
  C310     1.0000 0.58550  0.25250  0.82484  Biso   1.000  C
  C311     1.0000 0.64680  0.15220  0.84137  Biso   1.000  C
  H551     1.0000 0.68210  0.16490  0.83440  Biso   1.000  H
  H552     1.0000 0.62120  0.14980  0.82560  Biso   1.000  H
  H553     1.0000 0.65100  0.11630  0.85010  Biso   1.000  H
  C312     1.0000 0.56990  0.17470  0.87421  Biso   1.000  C
  H554     1.0000 0.57010  0.13670  0.88040  Biso   1.000  H
  H555     1.0000 0.54210  0.17970  0.85960  Biso   1.000  H
  H556     1.0000 0.56180  0.19830  0.89040  Biso   1.000  H
  O141     1.0000 0.83650  0.41330  0.08498  Biso   1.000  O
  C313     1.0000 0.87440  0.43920  0.06290  Biso   1.000  C
  C314     1.0000 0.82890  0.46250  0.03950  Biso   1.000  C
  H557     1.0000 0.79220  0.45790  0.04720  Biso   1.000  H
  H558     1.0000 0.83230  0.44220  0.02180  Biso   1.000  H
  H559     1.0000 0.83570  0.50120  0.03600  Biso   1.000  H
  O142     1.0000 0.91630  0.43450  0.06440  Biso   1.000  O
  La34     1.0000 0.57099  0.53236  0.95735  Biso   1.000  La
  La35     1.0000 0.22075  0.65052  0.25807  Biso   1.000  La
  O143     1.0000 0.17990  0.71950  0.22163  Biso   1.000  O
  O144     1.0000 0.61840  0.45730  0.99753  Biso   1.000  O
  O145     1.0000 0.58500  0.44350  0.95457  Biso   1.000  O
  H560     1.0000 0.59470  0.34380  0.97790  Biso   1.000  H
  C315     1.0000 0.59960  0.42740  0.97844  Biso   1.000  C
  La36     1.0000 0.63863  0.56581  0.01615  Biso   1.000  La
  La37     1.0000 0.54450  0.54240  0.01078  Biso   1.000  La
  La38     1.0000 0.61700  0.55440  0.98273  Biso   1.000  La
  La39     1.0000 0.67160  0.27130  0.75929  Biso   1.000  La
  La40     1.0000 0.64330  0.31880  0.76581  Biso   1.000  La
  Ag41     1.0000 0.21794  0.84092  0.52182  Biso   1.000  Ag
  Ag42     1.0000 0.14601  0.38944  0.74913  Biso   1.000  Ag
  Ag43     1.0000 0.18697  0.50120  0.78791  Biso   1.000  Ag
  Ag44     1.0000 0.17157  0.94393  0.47770  Biso   1.000  Ag
  Ag45     1.0000 0.22797  0.75705  0.46009  Biso   1.000  Ag
  Ag46     1.0000 0.37462  0.78614  0.43845  Biso   1.000  Ag
  Ag47     1.0000 0.90753  0.30004  0.59745  Biso   1.000  Ag
  Ag48     1.0000 0.15111  0.85836  0.40744  Biso   1.000  Ag
  Pd31     1.0000 0.25814  0.00200  0.54495  Biso   1.000  Pd
  Pd32     1.0000 0.33731  0.72347  0.51940  Biso   1.000  Pd
  Pd33     1.0000 0.93166  0.45474  0.56386  Biso   1.000  Pd
  Pd34     1.0000 0.31565  0.52398  0.84636  Biso   1.000  Pd
  Pd35     1.0000 0.07241  0.81351  0.48203  Biso   1.000  Pd
  Pd36     1.0000 0.26195  0.75168  0.37602  Biso   1.000  Pd
  I6       1.0000 0.23655  0.37356  0.79053  Biso   1.000  I
  La41     1.0000 0.07930  0.61998  0.61428  Biso   1.000  La
  S61      1.0000 0.19781  0.93931  0.53005  Biso   1.000  S
  S62      1.0000 0.17359  0.48519  0.73611  Biso   1.000  S
  S63      1.0000 0.31357  0.81061  0.52862  Biso   1.000  S
  S64      1.0000 0.32221  0.72448  0.47194  Biso   1.000  S
  S65      1.0000 0.07741  0.36310  0.78584  Biso   1.000  S
  S66      1.0000 0.96849  0.37347  0.57666  Biso   1.000  S
  S67      1.0000 0.28543  0.51945  0.80141  Biso   1.000  S
  S68      1.0000 0.93903  0.20610  0.61026  Biso   1.000  S
  S69      1.0000 0.10264  0.88189  0.45378  Biso   1.000  S
  S70      1.0000 0.15404  0.78056  0.49581  Biso   1.000  S
  S71      1.0000 0.19739  0.76654  0.40926  Biso   1.000  S
  S72      1.0000 0.32647  0.80916  0.39203  Biso   1.000  S
  O146     1.0000 0.10938  0.04344  0.60122  Biso   1.000  O
  O147     1.0000 0.09175  0.96200  0.61586  Biso   1.000  O
  O148     1.0000 0.11493  0.60854  0.66288  Biso   1.000  O
  O149     1.0000 0.06360  0.62920  0.70107  Biso   1.000  O
  O150     1.0000 0.37646  0.73345  0.61732  Biso   1.000  O
  O151     1.0000 0.29845  0.77330  0.62604  Biso   1.000  O
  O152     1.0000 0.34650  0.53990  0.50707  Biso   1.000  O
  O153     1.0000 0.39400  0.54630  0.46786  Biso   1.000  O
  O154     1.0000 0.88360  0.36841  0.77573  Biso   1.000  O
  O155     1.0000 0.90110  0.28069  0.78206  Biso   1.000  O
  O156     1.0000 0.07284  0.52099  0.62083  Biso   1.000  O
  O157     1.0000 0.13243  0.45677  0.60794  Biso   1.000  O
  O158     1.0000 0.36443  0.69966  0.81532  Biso   1.000  O
  O159     1.0000 0.28610  0.71390  0.79348  Biso   1.000  O
  O160     1.0000 0.04790  0.16380  0.69306  Biso   1.000  O
  O161     1.0000 0.96820  0.12860  0.70217  Biso   1.000  O
  O162     1.0000 0.91040  0.90570  0.45871  Biso   1.000  O
  O163     1.0000 0.93080  0.90840  0.41105  Biso   1.000  O
  O164     1.0000 0.01455  0.67455  0.54352  Biso   1.000  O
  O165     1.0000 0.08195  0.68665  0.57408  Biso   1.000  O
  O166     1.0000 0.14384  0.61183  0.35415  Biso   1.000  O
  O167     1.0000 0.06603  0.65820  0.35974  Biso   1.000  O
  O168     1.0000 0.38674  0.73330  0.30501  Biso   1.000  O
  O169     1.0000 0.46191  0.74580  0.32877  Biso   1.000  O
  N61      1.0000 0.20461  0.01627  0.57574  Biso   1.000  N
  H561     1.0000 0.22340  0.02100  0.59240  Biso   1.000  H
  H562     1.0000 0.18710  0.04840  0.57180  Biso   1.000  H
  N62      1.0000 0.19318  0.56406  0.69051  Biso   1.000  N
  H563     1.0000 0.21330  0.59550  0.69020  Biso   1.000  H
  H564     1.0000 0.18330  0.55640  0.67220  Biso   1.000  H
  N63      1.0000 0.34340  0.71490  0.56182  Biso   1.000  N
  H565     1.0000 0.33010  0.68130  0.56680  Biso   1.000  H
  H566     1.0000 0.37960  0.71590  0.56680  Biso   1.000  H
  N64      1.0000 0.36990  0.64718  0.51296  Biso   1.000  N
  H567     1.0000 0.40350  0.64590  0.52140  Biso   1.000  H
  H568     1.0000 0.34810  0.62210  0.52190  Biso   1.000  H
  N65      1.0000 0.96965  0.39997  0.80457  Biso   1.000  N
  H569     1.0000 0.94910  0.39980  0.82080  Biso   1.000  H
  H570     1.0000 0.95270  0.42260  0.79180  Biso   1.000  H
  N66      1.0000 0.99275  0.48800  0.58724  Biso   1.000  N
  H571     1.0000 0.00330  0.52010  0.57900  Biso   1.000  H
  H572     1.0000 0.97980  0.49590  0.60500  Biso   1.000  H
  N67      1.0000 0.33056  0.60447  0.83850  Biso   1.000  N
  H573     1.0000 0.31950  0.62470  0.85380  Biso   1.000  H
  H574     1.0000 0.36740  0.60950  0.83630  Biso   1.000  H
  N68      1.0000 0.03140  0.15660  0.63691  Biso   1.000  N
  H575     1.0000 0.04830  0.12330  0.63620  Biso   1.000  H
  H576     1.0000 0.05440  0.17980  0.64630  Biso   1.000  H
  N69      1.0000 0.99760  0.83667  0.46710  Biso   1.000  N
  H577     1.0000 0.97860  0.80570  0.46260  Biso   1.000  H
  H578     1.0000 0.97930  0.85340  0.48160  Biso   1.000  H
  N70      1.0000 0.04258  0.75920  0.51282  Biso   1.000  N
  H579     1.0000 0.01560  0.77620  0.52300  Biso   1.000  H
  H580     1.0000 0.02740  0.72970  0.50390  Biso   1.000  H
  N71      1.0000 0.20726  0.70124  0.35836  Biso   1.000  N
  H581     1.0000 0.20600  0.70890  0.33930  Biso   1.000  H
  H582     1.0000 0.22040  0.66640  0.36020  Biso   1.000  H
  N72      1.0000 0.31932  0.73240  0.34651  Biso   1.000  N
  H583     1.0000 0.32020  0.69520  0.34460  Biso   1.000  H
  H584     1.0000 0.30850  0.74660  0.32940  Biso   1.000  H
  C316     1.0000 0.13980  0.95600  0.55402  Biso   1.000  C
  C317     1.0000 0.16440  0.97490  0.58011  Biso   1.000  C
  H585     1.0000 0.18320  0.94310  0.58890  Biso   1.000  H
  C318     1.0000 0.11750  0.99390  0.60173  Biso   1.000  C
  C319     1.0000 0.10300  0.99770  0.54024  Biso   1.000  C
  H586     1.0000 0.08760  0.98260  0.52290  Biso   1.000  H
  H587     1.0000 0.12400  0.03040  0.53570  Biso   1.000  H
  H588     1.0000 0.07350  0.00720  0.55330  Biso   1.000  H
  C320     1.0000 0.10770  0.89650  0.55845  Biso   1.000  C
  H589     1.0000 0.09150  0.88510  0.54050  Biso   1.000  H
  H590     1.0000 0.07920  0.90060  0.57270  Biso   1.000  H
  H591     1.0000 0.13380  0.86890  0.56470  Biso   1.000  H
  C321     1.0000 0.11825  0.52373  0.71771  Biso   1.000  C
  C322     1.0000 0.14290  0.57411  0.70735  Biso   1.000  C
  H592     1.0000 0.15340  0.59620  0.72420  Biso   1.000  H
  C323     1.0000 0.10380  0.61000  0.68879  Biso   1.000  C
  C324     1.0000 0.09700  0.48450  0.69370  Biso   1.000  C
  H593     1.0000 0.08080  0.45210  0.70230  Biso   1.000  H
  H594     1.0000 0.12740  0.47370  0.68160  Biso   1.000  H
  H595     1.0000 0.06950  0.50330  0.68230  Biso   1.000  H
  C325     1.0000 0.07580  0.53150  0.74108  Biso   1.000  C
  H596     1.0000 0.06030  0.49620  0.74620  Biso   1.000  H
  H597     1.0000 0.04690  0.55550  0.73430  Biso   1.000  H
  H598     1.0000 0.09310  0.54780  0.75770  Biso   1.000  H
  C326     1.0000 0.33290  0.81650  0.56720  Biso   1.000  C
  C327     1.0000 0.31320  0.75820  0.57863  Biso   1.000  C
  H599     1.0000 0.27290  0.75370  0.57730  Biso   1.000  H
  C328     1.0000 0.33455  0.75440  0.61081  Biso   1.000  C
  C329     1.0000 0.39710  0.82370  0.56790  Biso   1.000  C
  H600     1.0000 0.41440  0.79160  0.55960  Biso   1.000  H
  H601     1.0000 0.40920  0.82790  0.58750  Biso   1.000  H
  H602     1.0000 0.40720  0.85600  0.55700  Biso   1.000  H
  C330     1.0000 0.30070  0.86450  0.58027  Biso   1.000  C
  H603     1.0000 0.31520  0.89890  0.57300  Biso   1.000  H
  H604     1.0000 0.30440  0.86360  0.60090  Biso   1.000  H
  H605     1.0000 0.26230  0.86130  0.57510  Biso   1.000  H
  C331     1.0000 0.32560  0.65070  0.46608  Biso   1.000  C
  C332     1.0000 0.37560  0.63163  0.48460  Biso   1.000  C
  H606     1.0000 0.41170  0.64110  0.47630  Biso   1.000  H
  C333     1.0000 0.36440  0.56750  0.48640  Biso   1.000  C
  C334     1.0000 0.27400  0.62390  0.47432  Biso   1.000  C
  H607     1.0000 0.26950  0.62610  0.49490  Biso   1.000  H
  H608     1.0000 0.27490  0.58570  0.46850  Biso   1.000  H
  H609     1.0000 0.24350  0.64220  0.46500  Biso   1.000  H
  C335     1.0000 0.33120  0.64450  0.43802  Biso   1.000  C
  H610     1.0000 0.36560  0.66070  0.43190  Biso   1.000  H
  H611     1.0000 0.30100  0.66260  0.42830  Biso   1.000  H
  H612     1.0000 0.33100  0.60570  0.43330  Biso   1.000  H
  C336     1.0000 0.01310  0.34120  0.76856  Biso   1.000  C
  C337     1.0000 0.97058  0.34340  0.79259  Biso   1.000  C
  H613     1.0000 0.98040  0.31680  0.80770  Biso   1.000  H
  C338     1.0000 0.91250  0.32897  0.77998  Biso   1.000  C
  C339     1.0000 0.00060  0.38320  0.74467  Biso   1.000  C
  H614     1.0000 0.02850  0.38050  0.72990  Biso   1.000  H
  H615     1.0000 0.00070  0.41990  0.75260  Biso   1.000  H
  H616     1.0000 0.96490  0.37530  0.73650  Biso   1.000  H
  C340     1.0000 0.02550  0.28430  0.75579  Biso   1.000  C
  H617     1.0000 0.05300  0.28790  0.74090  Biso   1.000  H
  H618     1.0000 0.99220  0.26900  0.74770  Biso   1.000  H
  H619     1.0000 0.03910  0.26020  0.77070  Biso   1.000  H
  C341     1.0000 0.02330  0.39530  0.60118  Biso   1.000  C
  C342     1.0000 0.04110  0.45170  0.58993  Biso   1.000  C
  H620     1.0000 0.05660  0.44640  0.57060  Biso   1.000  H
  C343     1.0000 0.08600  0.48250  0.60869  Biso   1.000  C
  C344     1.0000 0.00200  0.39960  0.63095  Biso   1.000  C
  H621     1.0000 0.99130  0.36350  0.63770  Biso   1.000  H
  H622     1.0000 0.97030  0.42380  0.63130  Biso   1.000  H
  H623     1.0000 0.03040  0.41440  0.64330  Biso   1.000  H
  C345     1.0000 0.07020  0.34950  0.59915  Biso   1.000  C
  H624     1.0000 0.05650  0.31510  0.60670  Biso   1.000  H
  H625     1.0000 0.10190  0.36110  0.61020  Biso   1.000  H
  H626     1.0000 0.08080  0.34460  0.57940  Biso   1.000  H
  C346     1.0000 0.30760  0.58827  0.78819  Biso   1.000  C
  C347     1.0000 0.30190  0.62440  0.81255  Biso   1.000  C
  H627     1.0000 0.26230  0.62480  0.81730  Biso   1.000  H
  C348     1.0000 0.31830  0.68480  0.80741  Biso   1.000  C
  C349     1.0000 0.36650  0.58230  0.78199  Biso   1.000  C
  H628     1.0000 0.38600  0.57350  0.79940  Biso   1.000  H
  H629     1.0000 0.38060  0.61640  0.77420  Biso   1.000  H
  H630     1.0000 0.37180  0.55310  0.76820  Biso   1.000  H
  C350     1.0000 0.27720  0.60190  0.76278  Biso   1.000  C
  H631     1.0000 0.23840  0.60440  0.76730  Biso   1.000  H
  H632     1.0000 0.28280  0.57360  0.74850  Biso   1.000  H
  H633     1.0000 0.28980  0.63690  0.75540  Biso   1.000  H
  C351     1.0000 0.95190  0.19870  0.64856  Biso   1.000  C
  C352     1.0000 0.98260  0.15040  0.65415  Biso   1.000  C
  H634     1.0000 0.96180  0.11730  0.64840  Biso   1.000  H
  C353     1.0000 0.00380  0.14500  0.68596  Biso   1.000  C
  C354     1.0000 0.97680  0.25120  0.65910  Biso   1.000  C
  H635     1.0000 0.95200  0.28150  0.65520  Biso   1.000  H
  H636     1.0000 0.01150  0.25750  0.64940  Biso   1.000  H
  H637     1.0000 0.98310  0.24860  0.67950  Biso   1.000  H
  C355     1.0000 0.89570  0.19760  0.66231  Biso   1.000  C
  H638     1.0000 0.87720  0.23220  0.65890  Biso   1.000  H
  H639     1.0000 0.89960  0.19190  0.68270  Biso   1.000  H
  H640     1.0000 0.87430  0.16790  0.65420  Biso   1.000  H
  C356     1.0000 0.03630  0.91700  0.44824  Biso   1.000  C
  C357     1.0000 0.99600  0.87321  0.44237  Biso   1.000  C
  H641     1.0000 0.00630  0.85290  0.42490  Biso   1.000  H
  C358     1.0000 0.93840  0.89790  0.43918  Biso   1.000  C
  C359     1.0000 0.02465  0.95370  0.47345  Biso   1.000  C
  H642     1.0000 0.05370  0.98070  0.47530  Biso   1.000  H
  H643     1.0000 0.02290  0.93170  0.49070  Biso   1.000  H
  H644     1.0000 0.98980  0.97220  0.47060  Biso   1.000  H
  C360     1.0000 0.04590  0.95090  0.42096  Biso   1.000  C
  H645     1.0000 0.05310  0.92630  0.40510  Biso   1.000  H
  H646     1.0000 0.07710  0.97500  0.42370  Biso   1.000  H
  H647     1.0000 0.01350  0.97260  0.41690  Biso   1.000  H
  C361     1.0000 0.13340  0.72130  0.51817  Biso   1.000  C
  C362     1.0000 0.08290  0.74080  0.53163  Biso   1.000  C
  H648     1.0000 0.09310  0.77240  0.54390  Biso   1.000  H
  C363     1.0000 0.05750  0.69690  0.55130  Biso   1.000  C
  C364     1.0000 0.12460  0.67390  0.49934  Biso   1.000  C
  H649     1.0000 0.09510  0.68190  0.48610  Biso   1.000  H
  H650     1.0000 0.11500  0.64200  0.51070  Biso   1.000  H
  H651     1.0000 0.15800  0.66640  0.48880  Biso   1.000  H
  C365     1.0000 0.17650  0.71340  0.53963  Biso   1.000  C
  H652     1.0000 0.17910  0.74600  0.55150  Biso   1.000  H
  H653     1.0000 0.21130  0.70710  0.53020  Biso   1.000  H
  H654     1.0000 0.16750  0.68200  0.55150  Biso   1.000  H
  C366     1.0000 0.14860  0.70850  0.40073  Biso   1.000  C
  C367     1.0000 0.15060  0.70150  0.36909  Biso   1.000  C
  H655     1.0000 0.13200  0.73370  0.36060  Biso   1.000  H
  C368     1.0000 0.11960  0.65230  0.36024  Biso   1.000  C
  C369     1.0000 0.16970  0.65670  0.41436  Biso   1.000  C
  H656     1.0000 0.16870  0.66050  0.43500  Biso   1.000  H
  H657     1.0000 0.20720  0.65020  0.40830  Biso   1.000  H
  H658     1.0000 0.14690  0.62600  0.40860  Biso   1.000  H
  C370     1.0000 0.09490  0.72300  0.41367  Biso   1.000  C
  H659     1.0000 0.09880  0.72540  0.43420  Biso   1.000  H
  H660     1.0000 0.06800  0.69510  0.40900  Biso   1.000  H
  H661     1.0000 0.08270  0.75820  0.40630  Biso   1.000  H
  C371     1.0000 0.37350  0.81029  0.36191  Biso   1.000  C
  C372     1.0000 0.37850  0.75280  0.35284  Biso   1.000  C
  H662     1.0000 0.39490  0.73060  0.36840  Biso   1.000  H
  C373     1.0000 0.41450  0.74750  0.32484  Biso   1.000  C
  C374     1.0000 0.35320  0.84780  0.34137  Biso   1.000  C
  H663     1.0000 0.31790  0.83510  0.33440  Biso   1.000  H
  H664     1.0000 0.37880  0.85020  0.32560  Biso   1.000  H
  H665     1.0000 0.34900  0.88370  0.35010  Biso   1.000  H
  C375     1.0000 0.43010  0.82530  0.37421  Biso   1.000  C
  H666     1.0000 0.42990  0.86330  0.38040  Biso   1.000  H
  H667     1.0000 0.45790  0.82030  0.35960  Biso   1.000  H
  H668     1.0000 0.43820  0.80170  0.39040  Biso   1.000  H
  O170     1.0000 0.16350  0.58670  0.58498  Biso   1.000  O
  C376     1.0000 0.12560  0.56080  0.56290  Biso   1.000  C
  C377     1.0000 0.17110  0.53750  0.53950  Biso   1.000  C
  H669     1.0000 0.20780  0.54210  0.54720  Biso   1.000  H
  H670     1.0000 0.16770  0.55780  0.52180  Biso   1.000  H
  H671     1.0000 0.16430  0.49880  0.53600  Biso   1.000  H
  O171     1.0000 0.08370  0.56550  0.56440  Biso   1.000  O
  La42     1.0000 0.42901  0.46764  0.45735  Biso   1.000  La
  La43     1.0000 0.77925  0.34948  0.75807  Biso   1.000  La
  O172     1.0000 0.82010  0.28050  0.72163  Biso   1.000  O
  O173     1.0000 0.38160  0.54270  0.49753  Biso   1.000  O
  O174     1.0000 0.41500  0.55650  0.45457  Biso   1.000  O
  H672     1.0000 0.40530  0.65620  0.47790  Biso   1.000  H
  C378     1.0000 0.40040  0.57260  0.47844  Biso   1.000  C
  La44     1.0000 0.36137  0.43419  0.51615  Biso   1.000  La
  La45     1.0000 0.45550  0.45760  0.51078  Biso   1.000  La
  La46     1.0000 0.38300  0.44560  0.48273  Biso   1.000  La
  La47     1.0000 0.32840  0.72870  0.25929  Biso   1.000  La
  La48     1.0000 0.35670  0.68120  0.26581  Biso   1.000  La
  Ag49     1.0000 0.65908  0.71794  0.77182  Biso   1.000  Ag
  Ag50     1.0000 0.11056  0.64601  0.99913  Biso   1.000  Ag
  Ag51     1.0000 0.99880  0.68697  0.03791  Biso   1.000  Ag
  Ag52     1.0000 0.55607  0.67157  0.72770  Biso   1.000  Ag
  Ag53     1.0000 0.74295  0.72797  0.71009  Biso   1.000  Ag
  Ag54     1.0000 0.71386  0.87462  0.68845  Biso   1.000  Ag
  Ag55     1.0000 0.19996  0.40753  0.84745  Biso   1.000  Ag
  Ag56     1.0000 0.64164  0.65111  0.65744  Biso   1.000  Ag
  Pd37     1.0000 0.49800  0.75814  0.79495  Biso   1.000  Pd
  Pd38     1.0000 0.77653  0.83731  0.76940  Biso   1.000  Pd
  Pd39     1.0000 0.04526  0.43166  0.81386  Biso   1.000  Pd
  Pd40     1.0000 0.97602  0.81565  0.09636  Biso   1.000  Pd
  Pd41     1.0000 0.68649  0.57241  0.73203  Biso   1.000  Pd
  Pd42     1.0000 0.74832  0.76195  0.62602  Biso   1.000  Pd
  I7       1.0000 0.12644  0.73655  0.04053  Biso   1.000  I
  La49     1.0000 0.88002  0.57930  0.86428  Biso   1.000  La
  S73      1.0000 0.56069  0.69781  0.78005  Biso   1.000  S
  S74      1.0000 0.01481  0.67359  0.98611  Biso   1.000  S
  S75      1.0000 0.68939  0.81357  0.77862  Biso   1.000  S
  S76      1.0000 0.77552  0.82221  0.72194  Biso   1.000  S
  S77      1.0000 0.13690  0.57741  0.03584  Biso   1.000  S
  S78      1.0000 0.12653  0.46849  0.82666  Biso   1.000  S
  S79      1.0000 0.98055  0.78543  0.05141  Biso   1.000  S
  S80      1.0000 0.29390  0.43903  0.86026  Biso   1.000  S
  S81      1.0000 0.61811  0.60264  0.70378  Biso   1.000  S
  S82      1.0000 0.71944  0.65404  0.74581  Biso   1.000  S
  S83      1.0000 0.73346  0.69739  0.65926  Biso   1.000  S
  S84      1.0000 0.69084  0.82647  0.64203  Biso   1.000  S
  O175     1.0000 0.45656  0.60938  0.85122  Biso   1.000  O
  O176     1.0000 0.53800  0.59175  0.86586  Biso   1.000  O
  O177     1.0000 0.89146  0.61493  0.91288  Biso   1.000  O
  O178     1.0000 0.87080  0.56360  0.95107  Biso   1.000  O
  O179     1.0000 0.76655  0.87646  0.86732  Biso   1.000  O
  O180     1.0000 0.72670  0.79845  0.87604  Biso   1.000  O
  O181     1.0000 0.96010  0.84650  0.75707  Biso   1.000  O
  O182     1.0000 0.95370  0.89400  0.71786  Biso   1.000  O
  O183     1.0000 0.13159  0.38360  0.02573  Biso   1.000  O
  O184     1.0000 0.21931  0.40110  0.03206  Biso   1.000  O
  O185     1.0000 0.97901  0.57284  0.87083  Biso   1.000  O
  O186     1.0000 0.04323  0.63243  0.85794  Biso   1.000  O
  O187     1.0000 0.80034  0.86443  0.06532  Biso   1.000  O
  O188     1.0000 0.78610  0.78610  0.04348  Biso   1.000  O
  O189     1.0000 0.33620  0.54790  0.94306  Biso   1.000  O
  O190     1.0000 0.37140  0.46820  0.95217  Biso   1.000  O
  O191     1.0000 0.59430  0.41040  0.70871  Biso   1.000  O
  O192     1.0000 0.59160  0.43080  0.66105  Biso   1.000  O
  O193     1.0000 0.82545  0.51455  0.79352  Biso   1.000  O
  O194     1.0000 0.81335  0.58195  0.82408  Biso   1.000  O
  O195     1.0000 0.88817  0.64384  0.60415  Biso   1.000  O
  O196     1.0000 0.84180  0.56603  0.60974  Biso   1.000  O
  O197     1.0000 0.76670  0.88674  0.55501  Biso   1.000  O
  O198     1.0000 0.75420  0.96191  0.57877  Biso   1.000  O
  N73      1.0000 0.48373  0.70461  0.82574  Biso   1.000  N
  H673     1.0000 0.47900  0.72340  0.84240  Biso   1.000  H
  H674     1.0000 0.45160  0.68710  0.82180  Biso   1.000  H
  N74      1.0000 0.93594  0.69318  0.94051  Biso   1.000  N
  H675     1.0000 0.90450  0.71330  0.94020  Biso   1.000  H
  H676     1.0000 0.94360  0.68330  0.92220  Biso   1.000  H
  N75      1.0000 0.78510  0.84340  0.81182  Biso   1.000  N
  H677     1.0000 0.81870  0.83010  0.81680  Biso   1.000  H
  H678     1.0000 0.78410  0.87960  0.81680  Biso   1.000  H
  N76      1.0000 0.85282  0.86990  0.76296  Biso   1.000  N
  H679     1.0000 0.85410  0.90350  0.77140  Biso   1.000  H
  H680     1.0000 0.87790  0.84810  0.77190  Biso   1.000  H
  N77      1.0000 0.10003  0.46965  0.05457  Biso   1.000  N
  H681     1.0000 0.10020  0.44910  0.07080  Biso   1.000  H
  H682     1.0000 0.07740  0.45270  0.04180  Biso   1.000  H
  N78      1.0000 0.01200  0.49275  0.83724  Biso   1.000  N
  H683     1.0000 0.97990  0.50330  0.82900  Biso   1.000  H
  H684     1.0000 0.00410  0.47980  0.85500  Biso   1.000  H
  N79      1.0000 0.89553  0.83056  0.08850  Biso   1.000  N
  H685     1.0000 0.87530  0.81950  0.10380  Biso   1.000  H
  H686     1.0000 0.89050  0.86740  0.08630  Biso   1.000  H
  N80      1.0000 0.34340  0.53140  0.88691  Biso   1.000  N
  H687     1.0000 0.37670  0.54830  0.88620  Biso   1.000  H
  H688     1.0000 0.32020  0.55440  0.89630  Biso   1.000  H
  N81      1.0000 0.66333  0.49760  0.71710  Biso   1.000  N
  H689     1.0000 0.69430  0.47860  0.71260  Biso   1.000  H
  H690     1.0000 0.64660  0.47930  0.73160  Biso   1.000  H
  N82      1.0000 0.74080  0.54258  0.76282  Biso   1.000  N
  H691     1.0000 0.72380  0.51560  0.77300  Biso   1.000  H
  H692     1.0000 0.77030  0.52740  0.75390  Biso   1.000  H
  N83      1.0000 0.79876  0.70726  0.60836  Biso   1.000  N
  H693     1.0000 0.79110  0.70600  0.58930  Biso   1.000  H
  H694     1.0000 0.83360  0.72040  0.61020  Biso   1.000  H
  N84      1.0000 0.76760  0.81932  0.59651  Biso   1.000  N
  H695     1.0000 0.80480  0.82020  0.59460  Biso   1.000  H
  H696     1.0000 0.75340  0.80850  0.57940  Biso   1.000  H
  C379     1.0000 0.54400  0.63980  0.80402  Biso   1.000  C
  C380     1.0000 0.52510  0.66440  0.83011  Biso   1.000  C
  H697     1.0000 0.55690  0.68320  0.83890  Biso   1.000  H
  C381     1.0000 0.50610  0.61750  0.85173  Biso   1.000  C
  C382     1.0000 0.50230  0.60300  0.79024  Biso   1.000  C
  H698     1.0000 0.51740  0.58760  0.77290  Biso   1.000  H
  H699     1.0000 0.46960  0.62400  0.78570  Biso   1.000  H
  H700     1.0000 0.49280  0.57350  0.80330  Biso   1.000  H
  C383     1.0000 0.60350  0.60770  0.80845  Biso   1.000  C
  H701     1.0000 0.61490  0.59150  0.79050  Biso   1.000  H
  H702     1.0000 0.59940  0.57920  0.82270  Biso   1.000  H
  H703     1.0000 0.63110  0.63380  0.81470  Biso   1.000  H
  C384     1.0000 0.97627  0.61825  0.96771  Biso   1.000  C
  C385     1.0000 0.92589  0.64290  0.95735  Biso   1.000  C
  H704     1.0000 0.90380  0.65340  0.97420  Biso   1.000  H
  C386     1.0000 0.89000  0.60380  0.93879  Biso   1.000  C
  C387     1.0000 0.01550  0.59700  0.94370  Biso   1.000  C
  H705     1.0000 0.04790  0.58080  0.95230  Biso   1.000  H
  H706     1.0000 0.02630  0.62740  0.93160  Biso   1.000  H
  H707     1.0000 0.99670  0.56950  0.93230  Biso   1.000  H
  C388     1.0000 0.96850  0.57580  0.99108  Biso   1.000  C
  H708     1.0000 0.00380  0.56030  0.99620  Biso   1.000  H
  H709     1.0000 0.94450  0.54690  0.98430  Biso   1.000  H
  H710     1.0000 0.95220  0.59310  0.00770  Biso   1.000  H
  C389     1.0000 0.68350  0.83290  0.81720  Biso   1.000  C
  C390     1.0000 0.74180  0.81320  0.82863  Biso   1.000  C
  H711     1.0000 0.74630  0.77290  0.82730  Biso   1.000  H
  C391     1.0000 0.74560  0.83455  0.86081  Biso   1.000  C
  C392     1.0000 0.67630  0.89710  0.81790  Biso   1.000  C
  H712     1.0000 0.70840  0.91440  0.80960  Biso   1.000  H
  H713     1.0000 0.67210  0.90920  0.83750  Biso   1.000  H
  H714     1.0000 0.64400  0.90720  0.80700  Biso   1.000  H
  C393     1.0000 0.63550  0.80070  0.83027  Biso   1.000  C
  H715     1.0000 0.60110  0.81520  0.82300  Biso   1.000  H
  H716     1.0000 0.63640  0.80440  0.85090  Biso   1.000  H
  H717     1.0000 0.63870  0.76230  0.82510  Biso   1.000  H
  C394     1.0000 0.84930  0.82560  0.71608  Biso   1.000  C
  C395     1.0000 0.86837  0.87560  0.73460  Biso   1.000  C
  H718     1.0000 0.85890  0.91170  0.72630  Biso   1.000  H
  C396     1.0000 0.93250  0.86440  0.73640  Biso   1.000  C
  C397     1.0000 0.87610  0.77400  0.72432  Biso   1.000  C
  H719     1.0000 0.87390  0.76950  0.74490  Biso   1.000  H
  H720     1.0000 0.91430  0.77490  0.71850  Biso   1.000  H
  H721     1.0000 0.85780  0.74350  0.71500  Biso   1.000  H
  C398     1.0000 0.85550  0.83120  0.68802  Biso   1.000  C
  H722     1.0000 0.83930  0.86560  0.68190  Biso   1.000  H
  H723     1.0000 0.83740  0.80100  0.67830  Biso   1.000  H
  H724     1.0000 0.89430  0.83100  0.68330  Biso   1.000  H
  C399     1.0000 0.15880  0.51310  0.01856  Biso   1.000  C
  C400     1.0000 0.15660  0.47058  0.04259  Biso   1.000  C
  H725     1.0000 0.18320  0.48040  0.05770  Biso   1.000  H
  C401     1.0000 0.17103  0.41250  0.02998  Biso   1.000  C
  C402     1.0000 0.11680  0.50060  0.99467  Biso   1.000  C
  H726     1.0000 0.11950  0.52850  0.97990  Biso   1.000  H
  H727     1.0000 0.08010  0.50070  0.00260  Biso   1.000  H
  H728     1.0000 0.12470  0.46490  0.98650  Biso   1.000  H
  C403     1.0000 0.21570  0.52550  0.00579  Biso   1.000  C
  H729     1.0000 0.21210  0.55300  0.99090  Biso   1.000  H
  H730     1.0000 0.23100  0.49220  0.99770  Biso   1.000  H
  H731     1.0000 0.23980  0.53910  0.02070  Biso   1.000  H
  C404     1.0000 0.10470  0.52330  0.85118  Biso   1.000  C
  C405     1.0000 0.04830  0.54110  0.83993  Biso   1.000  C
  H732     1.0000 0.05360  0.55660  0.82060  Biso   1.000  H
  C406     1.0000 0.01750  0.58600  0.85869  Biso   1.000  C
  C407     1.0000 0.10040  0.50200  0.88095  Biso   1.000  C
  H733     1.0000 0.13650  0.49130  0.88770  Biso   1.000  H
  H734     1.0000 0.07620  0.47030  0.88130  Biso   1.000  H
  H735     1.0000 0.08560  0.53040  0.89330  Biso   1.000  H
  C408     1.0000 0.15050  0.57020  0.84915  Biso   1.000  C
  H736     1.0000 0.18490  0.55650  0.85670  Biso   1.000  H
  H737     1.0000 0.13890  0.60190  0.86020  Biso   1.000  H
  H738     1.0000 0.15540  0.58080  0.82940  Biso   1.000  H
  C409     1.0000 0.91173  0.80760  0.03819  Biso   1.000  C
  C410     1.0000 0.87560  0.80190  0.06255  Biso   1.000  C
  H739     1.0000 0.87520  0.76230  0.06730  Biso   1.000  H
  C411     1.0000 0.81520  0.81830  0.05741  Biso   1.000  C
  C412     1.0000 0.91770  0.86650  0.03199  Biso   1.000  C
  H740     1.0000 0.92650  0.88600  0.04940  Biso   1.000  H
  H741     1.0000 0.88360  0.88060  0.02420  Biso   1.000  H
  H742     1.0000 0.94690  0.87180  0.01820  Biso   1.000  H
  C413     1.0000 0.89810  0.77720  0.01278  Biso   1.000  C
  H743     1.0000 0.89560  0.73840  0.01730  Biso   1.000  H
  H744     1.0000 0.92640  0.78280  0.99850  Biso   1.000  H
  H745     1.0000 0.86310  0.78980  0.00540  Biso   1.000  H
  C414     1.0000 0.30130  0.45190  0.89856  Biso   1.000  C
  C415     1.0000 0.34960  0.48260  0.90415  Biso   1.000  C
  H746     1.0000 0.38270  0.46180  0.89840  Biso   1.000  H
  C416     1.0000 0.35500  0.50380  0.93596  Biso   1.000  C
  C417     1.0000 0.24880  0.47680  0.90910  Biso   1.000  C
  H747     1.0000 0.21850  0.45200  0.90520  Biso   1.000  H
  H748     1.0000 0.24250  0.51150  0.89940  Biso   1.000  H
  H749     1.0000 0.25140  0.48310  0.92950  Biso   1.000  H
  C418     1.0000 0.30240  0.39570  0.91231  Biso   1.000  C
  H750     1.0000 0.26780  0.37720  0.90890  Biso   1.000  H
  H751     1.0000 0.30810  0.39960  0.93270  Biso   1.000  H
  H752     1.0000 0.33210  0.37430  0.90420  Biso   1.000  H
  C419     1.0000 0.58300  0.53630  0.69824  Biso   1.000  C
  C420     1.0000 0.62679  0.49600  0.69237  Biso   1.000  C
  H753     1.0000 0.64710  0.50630  0.67490  Biso   1.000  H
  C421     1.0000 0.60210  0.43840  0.68918  Biso   1.000  C
  C422     1.0000 0.54630  0.52465  0.72345  Biso   1.000  C
  H754     1.0000 0.51930  0.55370  0.72530  Biso   1.000  H
  H755     1.0000 0.56830  0.52290  0.74070  Biso   1.000  H
  H756     1.0000 0.52780  0.48980  0.72060  Biso   1.000  H
  C423     1.0000 0.54910  0.54590  0.67096  Biso   1.000  C
  H757     1.0000 0.57370  0.55310  0.65510  Biso   1.000  H
  H758     1.0000 0.52500  0.57710  0.67370  Biso   1.000  H
  H759     1.0000 0.52740  0.51350  0.66690  Biso   1.000  H
  C424     1.0000 0.77870  0.63340  0.76817  Biso   1.000  C
  C425     1.0000 0.75920  0.58290  0.78163  Biso   1.000  C
  H760     1.0000 0.72760  0.59310  0.79390  Biso   1.000  H
  C426     1.0000 0.80310  0.55750  0.80130  Biso   1.000  C
  C427     1.0000 0.82610  0.62460  0.74934  Biso   1.000  C
  H761     1.0000 0.81810  0.59510  0.73610  Biso   1.000  H
  H762     1.0000 0.85800  0.61500  0.76070  Biso   1.000  H
  H763     1.0000 0.83360  0.65800  0.73880  Biso   1.000  H
  C428     1.0000 0.78660  0.67650  0.78963  Biso   1.000  C
  H764     1.0000 0.75400  0.67910  0.80150  Biso   1.000  H
  H765     1.0000 0.79290  0.71130  0.78020  Biso   1.000  H
  H766     1.0000 0.81800  0.66750  0.80150  Biso   1.000  H
  C429     1.0000 0.79150  0.64860  0.65073  Biso   1.000  C
  C430     1.0000 0.79850  0.65060  0.61909  Biso   1.000  C
  H767     1.0000 0.76630  0.63200  0.61060  Biso   1.000  H
  C431     1.0000 0.84770  0.61960  0.61024  Biso   1.000  C
  C432     1.0000 0.84330  0.66970  0.66436  Biso   1.000  C
  H768     1.0000 0.83950  0.66870  0.68500  Biso   1.000  H
  H769     1.0000 0.84980  0.70720  0.65830  Biso   1.000  H
  H770     1.0000 0.87400  0.64690  0.65860  Biso   1.000  H
  C433     1.0000 0.77700  0.59490  0.66367  Biso   1.000  C
  H771     1.0000 0.77460  0.59880  0.68420  Biso   1.000  H
  H772     1.0000 0.80490  0.56800  0.65900  Biso   1.000  H
  H773     1.0000 0.74180  0.58270  0.65630  Biso   1.000  H
  C434     1.0000 0.68971  0.87350  0.61191  Biso   1.000  C
  C435     1.0000 0.74720  0.87850  0.60284  Biso   1.000  C
  H774     1.0000 0.76940  0.89490  0.61840  Biso   1.000  H
  C436     1.0000 0.75250  0.91450  0.57484  Biso   1.000  C
  C437     1.0000 0.65220  0.85320  0.59137  Biso   1.000  C
  H775     1.0000 0.66490  0.81790  0.58440  Biso   1.000  H
  H776     1.0000 0.64980  0.87880  0.57560  Biso   1.000  H
  H777     1.0000 0.61630  0.84900  0.60010  Biso   1.000  H
  C438     1.0000 0.67470  0.93010  0.62421  Biso   1.000  C
  H778     1.0000 0.63670  0.92990  0.63040  Biso   1.000  H
  H779     1.0000 0.67970  0.95790  0.60960  Biso   1.000  H
  H780     1.0000 0.69830  0.93820  0.64040  Biso   1.000  H
  O199     1.0000 0.91330  0.66350  0.83498  Biso   1.000  O
  C439     1.0000 0.93920  0.62560  0.81290  Biso   1.000  C
  C440     1.0000 0.96250  0.67110  0.78950  Biso   1.000  C
  H781     1.0000 0.95790  0.70780  0.79720  Biso   1.000  H
  H782     1.0000 0.94220  0.66770  0.77180  Biso   1.000  H
  H783     1.0000 0.00120  0.66430  0.78600  Biso   1.000  H
  O200     1.0000 0.93450  0.58370  0.81440  Biso   1.000  O
  La50     1.0000 0.03236  0.92901  0.70735  Biso   1.000  La
  La51     1.0000 0.15052  0.27925  0.00807  Biso   1.000  La
  O201     1.0000 0.21950  0.32010  0.97163  Biso   1.000  O
  O202     1.0000 0.95730  0.88160  0.74753  Biso   1.000  O
  O203     1.0000 0.94350  0.91500  0.70457  Biso   1.000  O
  H784     1.0000 0.84380  0.90530  0.72790  Biso   1.000  H
  C441     1.0000 0.92740  0.90040  0.72844  Biso   1.000  C
  La52     1.0000 0.06581  0.86137  0.76615  Biso   1.000  La
  La53     1.0000 0.04240  0.95550  0.76078  Biso   1.000  La
  La54     1.0000 0.05440  0.88300  0.73273  Biso   1.000  La
  La55     1.0000 0.77130  0.82840  0.50929  Biso   1.000  La
  La56     1.0000 0.81880  0.85670  0.51581  Biso   1.000  La
  Ag57     1.0000 0.34092  0.28206  0.27182  Biso   1.000  Ag
  Ag58     1.0000 0.88944  0.35399  0.49913  Biso   1.000  Ag
  Ag59     1.0000 0.00120  0.31303  0.53791  Biso   1.000  Ag
  Ag60     1.0000 0.44393  0.32843  0.22770  Biso   1.000  Ag
  Ag61     1.0000 0.25705  0.27203  0.21009  Biso   1.000  Ag
  Ag62     1.0000 0.28614  0.12538  0.18845  Biso   1.000  Ag
  Ag63     1.0000 0.80004  0.59247  0.34745  Biso   1.000  Ag
  Ag64     1.0000 0.35836  0.34889  0.15744  Biso   1.000  Ag
  Pd43     1.0000 0.50200  0.24186  0.29495  Biso   1.000  Pd
  Pd44     1.0000 0.22347  0.16269  0.26940  Biso   1.000  Pd
  Pd45     1.0000 0.95474  0.56834  0.31386  Biso   1.000  Pd
  Pd46     1.0000 0.02398  0.18435  0.59636  Biso   1.000  Pd
  Pd47     1.0000 0.31351  0.42759  0.23203  Biso   1.000  Pd
  Pd48     1.0000 0.25168  0.23805  0.12602  Biso   1.000  Pd
  I8       1.0000 0.87356  0.26345  0.54053  Biso   1.000  I
  La57     1.0000 0.11998  0.42071  0.36428  Biso   1.000  La
  S85      1.0000 0.43931  0.30219  0.28005  Biso   1.000  S
  S86      1.0000 0.98519  0.32641  0.48611  Biso   1.000  S
  S87      1.0000 0.31061  0.18643  0.27862  Biso   1.000  S
  S88      1.0000 0.22448  0.17779  0.22194  Biso   1.000  S
  S89      1.0000 0.86310  0.42259  0.53584  Biso   1.000  S
  S90      1.0000 0.87347  0.53151  0.32666  Biso   1.000  S
  S91      1.0000 0.01945  0.21457  0.55141  Biso   1.000  S
  S92      1.0000 0.70610  0.56097  0.36026  Biso   1.000  S
  S93      1.0000 0.38189  0.39736  0.20378  Biso   1.000  S
  S94      1.0000 0.28056  0.34596  0.24581  Biso   1.000  S
  S95      1.0000 0.26654  0.30261  0.15926  Biso   1.000  S
  S96      1.0000 0.30916  0.17353  0.14203  Biso   1.000  S
  O204     1.0000 0.54344  0.39062  0.35122  Biso   1.000  O
  O205     1.0000 0.46200  0.40825  0.36586  Biso   1.000  O
  O206     1.0000 0.10854  0.38507  0.41288  Biso   1.000  O
  O207     1.0000 0.12920  0.43640  0.45107  Biso   1.000  O
  O208     1.0000 0.23345  0.12354  0.36732  Biso   1.000  O
  O209     1.0000 0.27330  0.20155  0.37604  Biso   1.000  O
  O210     1.0000 0.03990  0.15350  0.25707  Biso   1.000  O
  O211     1.0000 0.04630  0.10600  0.21786  Biso   1.000  O
  O212     1.0000 0.86841  0.61640  0.52573  Biso   1.000  O
  O213     1.0000 0.78069  0.59890  0.53206  Biso   1.000  O
  O214     1.0000 0.02099  0.42716  0.37083  Biso   1.000  O
  O215     1.0000 0.95677  0.36757  0.35794  Biso   1.000  O
  O216     1.0000 0.19966  0.13557  0.56532  Biso   1.000  O
  O217     1.0000 0.21390  0.21390  0.54348  Biso   1.000  O
  O218     1.0000 0.66380  0.45210  0.44306  Biso   1.000  O
  O219     1.0000 0.62860  0.53180  0.45217  Biso   1.000  O
  O220     1.0000 0.40570  0.58960  0.20871  Biso   1.000  O
  O221     1.0000 0.40840  0.56920  0.16105  Biso   1.000  O
  O222     1.0000 0.17455  0.48545  0.29352  Biso   1.000  O
  O223     1.0000 0.18665  0.41805  0.32408  Biso   1.000  O
  O224     1.0000 0.11183  0.35616  0.10415  Biso   1.000  O
  O225     1.0000 0.15820  0.43397  0.10974  Biso   1.000  O
  O226     1.0000 0.23330  0.11326  0.05501  Biso   1.000  O
  O227     1.0000 0.24580  0.03809  0.07877  Biso   1.000  O
  N85      1.0000 0.51627  0.29539  0.32574  Biso   1.000  N
  H785     1.0000 0.52100  0.27660  0.34240  Biso   1.000  H
  H786     1.0000 0.54840  0.31290  0.32180  Biso   1.000  H
  N86      1.0000 0.06406  0.30682  0.44051  Biso   1.000  N
  H787     1.0000 0.09550  0.28670  0.44020  Biso   1.000  H
  H788     1.0000 0.05640  0.31670  0.42220  Biso   1.000  H
  N87      1.0000 0.21490  0.15660  0.31182  Biso   1.000  N
  H789     1.0000 0.18130  0.16990  0.31680  Biso   1.000  H
  H790     1.0000 0.21590  0.12040  0.31680  Biso   1.000  H
  N88      1.0000 0.14718  0.13010  0.26296  Biso   1.000  N
  H791     1.0000 0.14590  0.09650  0.27140  Biso   1.000  H
  H792     1.0000 0.12210  0.15190  0.27190  Biso   1.000  H
  N89      1.0000 0.89997  0.53035  0.55457  Biso   1.000  N
  H793     1.0000 0.89980  0.55090  0.57080  Biso   1.000  H
  H794     1.0000 0.92260  0.54730  0.54180  Biso   1.000  H
  N90      1.0000 0.98800  0.50725  0.33724  Biso   1.000  N
  H795     1.0000 0.02010  0.49670  0.32900  Biso   1.000  H
  H796     1.0000 0.99590  0.52020  0.35500  Biso   1.000  H
  N91      1.0000 0.10447  0.16944  0.58850  Biso   1.000  N
  H797     1.0000 0.12470  0.18050  0.60380  Biso   1.000  H
  H798     1.0000 0.10950  0.13260  0.58630  Biso   1.000  H
  N92      1.0000 0.65660  0.46860  0.38691  Biso   1.000  N
  H799     1.0000 0.62330  0.45170  0.38620  Biso   1.000  H
  H800     1.0000 0.67980  0.44560  0.39630  Biso   1.000  H
  N93      1.0000 0.33667  0.50240  0.21710  Biso   1.000  N
  H801     1.0000 0.30570  0.52140  0.21260  Biso   1.000  H
  H802     1.0000 0.35340  0.52070  0.23160  Biso   1.000  H
  N94      1.0000 0.25920  0.45742  0.26282  Biso   1.000  N
  H803     1.0000 0.27620  0.48440  0.27300  Biso   1.000  H
  H804     1.0000 0.22970  0.47260  0.25390  Biso   1.000  H
  N95      1.0000 0.20124  0.29274  0.10836  Biso   1.000  N
  H805     1.0000 0.20890  0.29400  0.08930  Biso   1.000  H
  H806     1.0000 0.16640  0.27960  0.11020  Biso   1.000  H
  N96      1.0000 0.23240  0.18068  0.09651  Biso   1.000  N
  H807     1.0000 0.19520  0.17980  0.09460  Biso   1.000  H
  H808     1.0000 0.24660  0.19150  0.07940  Biso   1.000  H
  C442     1.0000 0.45600  0.36020  0.30402  Biso   1.000  C
  C443     1.0000 0.47490  0.33560  0.33011  Biso   1.000  C
  H809     1.0000 0.44310  0.31680  0.33890  Biso   1.000  H
  C444     1.0000 0.49390  0.38250  0.35173  Biso   1.000  C
  C445     1.0000 0.49770  0.39700  0.29024  Biso   1.000  C
  H810     1.0000 0.48260  0.41240  0.27290  Biso   1.000  H
  H811     1.0000 0.53040  0.37600  0.28570  Biso   1.000  H
  H812     1.0000 0.50720  0.42650  0.30330  Biso   1.000  H
  C446     1.0000 0.39650  0.39230  0.30845  Biso   1.000  C
  H813     1.0000 0.38510  0.40850  0.29050  Biso   1.000  H
  H814     1.0000 0.40060  0.42080  0.32270  Biso   1.000  H
  H815     1.0000 0.36890  0.36620  0.31470  Biso   1.000  H
  C447     1.0000 0.02373  0.38175  0.46771  Biso   1.000  C
  C448     1.0000 0.07411  0.35710  0.45735  Biso   1.000  C
  H816     1.0000 0.09620  0.34660  0.47420  Biso   1.000  H
  C449     1.0000 0.11000  0.39620  0.43879  Biso   1.000  C
  C450     1.0000 0.98450  0.40300  0.44370  Biso   1.000  C
  H817     1.0000 0.95210  0.41920  0.45230  Biso   1.000  H
  H818     1.0000 0.97370  0.37260  0.43160  Biso   1.000  H
  H819     1.0000 0.00330  0.43050  0.43230  Biso   1.000  H
  C451     1.0000 0.03150  0.42420  0.49108  Biso   1.000  C
  H820     1.0000 0.99620  0.43970  0.49620  Biso   1.000  H
  H821     1.0000 0.05550  0.45310  0.48430  Biso   1.000  H
  H822     1.0000 0.04780  0.40690  0.50770  Biso   1.000  H
  C452     1.0000 0.31650  0.16710  0.31720  Biso   1.000  C
  C453     1.0000 0.25820  0.18680  0.32863  Biso   1.000  C
  H823     1.0000 0.25370  0.22710  0.32730  Biso   1.000  H
  C454     1.0000 0.25440  0.16545  0.36081  Biso   1.000  C
  C455     1.0000 0.32370  0.10290  0.31790  Biso   1.000  C
  H824     1.0000 0.29160  0.08560  0.30960  Biso   1.000  H
  H825     1.0000 0.32790  0.09080  0.33750  Biso   1.000  H
  H826     1.0000 0.35600  0.09280  0.30700  Biso   1.000  H
  C456     1.0000 0.36450  0.19930  0.33027  Biso   1.000  C
  H827     1.0000 0.39890  0.18480  0.32300  Biso   1.000  H
  H828     1.0000 0.36360  0.19560  0.35090  Biso   1.000  H
  H829     1.0000 0.36130  0.23770  0.32510  Biso   1.000  H
  C457     1.0000 0.15070  0.17440  0.21608  Biso   1.000  C
  C458     1.0000 0.13163  0.12440  0.23460  Biso   1.000  C
  H830     1.0000 0.14110  0.08830  0.22630  Biso   1.000  H
  C459     1.0000 0.06750  0.13560  0.23640  Biso   1.000  C
  C460     1.0000 0.12390  0.22600  0.22432  Biso   1.000  C
  H831     1.0000 0.12610  0.23050  0.24490  Biso   1.000  H
  H832     1.0000 0.08570  0.22510  0.21850  Biso   1.000  H
  H833     1.0000 0.14220  0.25650  0.21500  Biso   1.000  H
  C461     1.0000 0.14450  0.16880  0.18802  Biso   1.000  C
  H834     1.0000 0.16070  0.13440  0.18190  Biso   1.000  H
  H835     1.0000 0.16260  0.19900  0.17830  Biso   1.000  H
  H836     1.0000 0.10570  0.16900  0.18330  Biso   1.000  H
  C462     1.0000 0.84120  0.48690  0.51856  Biso   1.000  C
  C463     1.0000 0.84340  0.52942  0.54259  Biso   1.000  C
  H837     1.0000 0.81680  0.51960  0.55770  Biso   1.000  H
  C464     1.0000 0.82897  0.58750  0.52998  Biso   1.000  C
  C465     1.0000 0.88320  0.49940  0.49467  Biso   1.000  C
  H838     1.0000 0.88050  0.47150  0.47990  Biso   1.000  H
  H839     1.0000 0.91990  0.49930  0.50260  Biso   1.000  H
  H840     1.0000 0.87530  0.53510  0.48650  Biso   1.000  H
  C466     1.0000 0.78430  0.47450  0.50579  Biso   1.000  C
  H841     1.0000 0.78790  0.44700  0.49090  Biso   1.000  H
  H842     1.0000 0.76900  0.50780  0.49770  Biso   1.000  H
  H843     1.0000 0.76020  0.46090  0.52070  Biso   1.000  H
  C467     1.0000 0.89530  0.47670  0.35118  Biso   1.000  C
  C468     1.0000 0.95170  0.45890  0.33993  Biso   1.000  C
  H844     1.0000 0.94640  0.44340  0.32060  Biso   1.000  H
  C469     1.0000 0.98250  0.41400  0.35869  Biso   1.000  C
  C470     1.0000 0.89960  0.49800  0.38095  Biso   1.000  C
  H845     1.0000 0.86350  0.50870  0.38770  Biso   1.000  H
  H846     1.0000 0.92380  0.52970  0.38130  Biso   1.000  H
  H847     1.0000 0.91440  0.46960  0.39330  Biso   1.000  H
  C471     1.0000 0.84950  0.42980  0.34915  Biso   1.000  C
  H848     1.0000 0.81510  0.44350  0.35670  Biso   1.000  H
  H849     1.0000 0.86110  0.39810  0.36020  Biso   1.000  H
  H850     1.0000 0.84460  0.41920  0.32940  Biso   1.000  H
  C472     1.0000 0.08827  0.19240  0.53819  Biso   1.000  C
  C473     1.0000 0.12440  0.19810  0.56255  Biso   1.000  C
  H851     1.0000 0.12480  0.23770  0.56730  Biso   1.000  H
  C474     1.0000 0.18480  0.18170  0.55741  Biso   1.000  C
  C475     1.0000 0.08230  0.13350  0.53199  Biso   1.000  C
  H852     1.0000 0.07350  0.11400  0.54940  Biso   1.000  H
  H853     1.0000 0.11640  0.11940  0.52420  Biso   1.000  H
  H854     1.0000 0.05310  0.12820  0.51820  Biso   1.000  H
  C476     1.0000 0.10190  0.22280  0.51278  Biso   1.000  C
  H855     1.0000 0.10440  0.26160  0.51730  Biso   1.000  H
  H856     1.0000 0.07360  0.21720  0.49850  Biso   1.000  H
  H857     1.0000 0.13690  0.21020  0.50540  Biso   1.000  H
  C477     1.0000 0.69870  0.54810  0.39856  Biso   1.000  C
  C478     1.0000 0.65040  0.51740  0.40415  Biso   1.000  C
  H858     1.0000 0.61730  0.53820  0.39840  Biso   1.000  H
  C479     1.0000 0.64500  0.49620  0.43596  Biso   1.000  C
  C480     1.0000 0.75120  0.52320  0.40910  Biso   1.000  C
  H859     1.0000 0.78150  0.54800  0.40520  Biso   1.000  H
  H860     1.0000 0.75750  0.48850  0.39940  Biso   1.000  H
  H861     1.0000 0.74860  0.51690  0.42950  Biso   1.000  H
  C481     1.0000 0.69760  0.60430  0.41231  Biso   1.000  C
  H862     1.0000 0.73220  0.62280  0.40890  Biso   1.000  H
  H863     1.0000 0.69190  0.60040  0.43270  Biso   1.000  H
  H864     1.0000 0.66790  0.62570  0.40420  Biso   1.000  H
  C482     1.0000 0.41700  0.46370  0.19824  Biso   1.000  C
  C483     1.0000 0.37321  0.50400  0.19237  Biso   1.000  C
  H865     1.0000 0.35290  0.49370  0.17490  Biso   1.000  H
  C484     1.0000 0.39790  0.56160  0.18918  Biso   1.000  C
  C485     1.0000 0.45370  0.47535  0.22345  Biso   1.000  C
  H866     1.0000 0.48070  0.44630  0.22530  Biso   1.000  H
  H867     1.0000 0.43170  0.47710  0.24070  Biso   1.000  H
  H868     1.0000 0.47220  0.51020  0.22060  Biso   1.000  H
  C486     1.0000 0.45090  0.45410  0.17096  Biso   1.000  C
  H869     1.0000 0.42630  0.44690  0.15510  Biso   1.000  H
  H870     1.0000 0.47500  0.42290  0.17370  Biso   1.000  H
  H871     1.0000 0.47260  0.48650  0.16690  Biso   1.000  H
  C487     1.0000 0.22130  0.36660  0.26817  Biso   1.000  C
  C488     1.0000 0.24080  0.41710  0.28163  Biso   1.000  C
  H872     1.0000 0.27240  0.40690  0.29390  Biso   1.000  H
  C489     1.0000 0.19690  0.44250  0.30130  Biso   1.000  C
  C490     1.0000 0.17390  0.37540  0.24934  Biso   1.000  C
  H873     1.0000 0.18190  0.40490  0.23610  Biso   1.000  H
  H874     1.0000 0.14200  0.38500  0.26070  Biso   1.000  H
  H875     1.0000 0.16640  0.34200  0.23880  Biso   1.000  H
  C491     1.0000 0.21340  0.32350  0.28963  Biso   1.000  C
  H876     1.0000 0.24600  0.32090  0.30150  Biso   1.000  H
  H877     1.0000 0.20710  0.28870  0.28020  Biso   1.000  H
  H878     1.0000 0.18200  0.33250  0.30150  Biso   1.000  H
  C492     1.0000 0.20850  0.35140  0.15073  Biso   1.000  C
  C493     1.0000 0.20150  0.34940  0.11909  Biso   1.000  C
  H879     1.0000 0.23370  0.36800  0.11060  Biso   1.000  H
  C494     1.0000 0.15230  0.38040  0.11024  Biso   1.000  C
  C495     1.0000 0.15670  0.33030  0.16436  Biso   1.000  C
  H880     1.0000 0.16050  0.33130  0.18500  Biso   1.000  H
  H881     1.0000 0.15020  0.29280  0.15830  Biso   1.000  H
  H882     1.0000 0.12600  0.35310  0.15860  Biso   1.000  H
  C496     1.0000 0.22300  0.40510  0.16367  Biso   1.000  C
  H883     1.0000 0.22540  0.40120  0.18420  Biso   1.000  H
  H884     1.0000 0.19510  0.43200  0.15900  Biso   1.000  H
  H885     1.0000 0.25820  0.41730  0.15630  Biso   1.000  H
  C497     1.0000 0.31029  0.12650  0.11191  Biso   1.000  C
  C498     1.0000 0.25280  0.12150  0.10284  Biso   1.000  C
  H886     1.0000 0.23060  0.10510  0.11840  Biso   1.000  H
  C499     1.0000 0.24750  0.08550  0.07484  Biso   1.000  C
  C500     1.0000 0.34780  0.14680  0.09137  Biso   1.000  C
  H887     1.0000 0.33510  0.18210  0.08440  Biso   1.000  H
  H888     1.0000 0.35020  0.12120  0.07560  Biso   1.000  H
  H889     1.0000 0.38370  0.15100  0.10010  Biso   1.000  H
  C501     1.0000 0.32530  0.06990  0.12421  Biso   1.000  C
  H890     1.0000 0.36330  0.07010  0.13040  Biso   1.000  H
  H891     1.0000 0.32030  0.04210  0.10960  Biso   1.000  H
  H892     1.0000 0.30170  0.06180  0.14040  Biso   1.000  H
  O228     1.0000 0.08670  0.33650  0.33498  Biso   1.000  O
  C502     1.0000 0.06080  0.37440  0.31290  Biso   1.000  C
  C503     1.0000 0.03750  0.32890  0.28950  Biso   1.000  C
  H893     1.0000 0.04210  0.29220  0.29720  Biso   1.000  H
  H894     1.0000 0.05780  0.33230  0.27180  Biso   1.000  H
  H895     1.0000 0.99880  0.33570  0.28600  Biso   1.000  H
  O229     1.0000 0.06550  0.41630  0.31440  Biso   1.000  O
  La58     1.0000 0.96764  0.07099  0.20735  Biso   1.000  La
  La59     1.0000 0.84948  0.72075  0.50807  Biso   1.000  La
  O230     1.0000 0.78050  0.67990  0.47163  Biso   1.000  O
  O231     1.0000 0.04270  0.11840  0.24753  Biso   1.000  O
  O232     1.0000 0.05650  0.08500  0.20457  Biso   1.000  O
  H896     1.0000 0.15620  0.09470  0.22790  Biso   1.000  H
  C504     1.0000 0.07260  0.09960  0.22844  Biso   1.000  C
  La60     1.0000 0.93419  0.13863  0.26615  Biso   1.000  La
  La61     1.0000 0.95760  0.04450  0.26078  Biso   1.000  La
  La62     1.0000 0.94560  0.11700  0.23273  Biso   1.000  La
  La63     1.0000 0.22870  0.17160  0.00929  Biso   1.000  La
  La64     1.0000 0.18120  0.14330  0.01581  Biso   1.000  La
