data_image0
_cell_length_a       18.6992
_cell_length_b       18.6992
_cell_length_c       35.768
_cell_angle_alpha    90
_cell_angle_beta     90
_cell_angle_gamma    90

_symmetry_space_group_name_H-M    "P 1"
_symmetry_int_tables_number       1

loop_
  _symmetry_equiv_pos_as_xyz
  'x, y, z'

loop_
  _atom_site_label
  _atom_site_occupancy
  _atom_site_fract_x
  _atom_site_fract_y
  _atom_site_fract_z
  _atom_site_thermal_displace_type
  _atom_site_B_iso_or_equiv
  _atom_site_type_symbol
  N1       1.0000 0.34990  0.03120  0.95970  Biso   1.000  N
  N2       1.0000 0.21720  0.04030  0.95950  Biso   1.000  N
  C1       1.0000 0.41760  0.06340  0.96510  Biso   1.000  C
  C2       1.0000 0.45300  0.07150  0.93000  Biso   1.000  C
  C3       1.0000 0.40520  0.05660  0.90310  Biso   1.000  C
  H1       1.0000 0.41230  0.06310  0.87760  Biso   1.000  H
  C4       1.0000 0.33970  0.02840  0.92040  Biso   1.000  C
  C5       1.0000 0.22440  0.03110  0.92070  Biso   1.000  C
  C6       1.0000 0.17100  0.05930  0.90240  Biso   1.000  C
  H2       1.0000 0.16860  0.06730  0.87680  Biso   1.000  H
  C7       1.0000 0.11060  0.07770  0.93250  Biso   1.000  C
  H3       1.0000 0.06410  0.09360  0.92850  Biso   1.000  H
  C8       1.0000 0.14470  0.06380  0.96560  Biso   1.000  C
  C9       1.0000 0.27680  0.06410  0.84220  Biso   1.000  C
  H4       1.0000 0.27990  0.10720  0.85510  Biso   1.000  H
  C10      1.0000 0.26940  0.06510  0.80345  Biso   1.000  C
  C11      1.0000 0.26340  0.13150  0.78342  Biso   1.000  C
  O1       1.0000 0.28860  0.18660  0.79941  Biso   1.000  O
  O2       1.0000 0.23610  0.13220  0.75151  Biso   1.000  O
  N3       1.0000 0.84990  0.53120  0.45970  Biso   1.000  N
  N4       1.0000 0.71720  0.54030  0.45950  Biso   1.000  N
  C12      1.0000 0.91760  0.56340  0.46510  Biso   1.000  C
  C13      1.0000 0.95300  0.57150  0.43000  Biso   1.000  C
  C14      1.0000 0.90520  0.55660  0.40310  Biso   1.000  C
  H5       1.0000 0.91230  0.56310  0.37760  Biso   1.000  H
  C15      1.0000 0.83970  0.52840  0.42040  Biso   1.000  C
  C16      1.0000 0.72440  0.53110  0.42070  Biso   1.000  C
  C17      1.0000 0.67100  0.55930  0.40240  Biso   1.000  C
  H6       1.0000 0.66860  0.56730  0.37680  Biso   1.000  H
  C18      1.0000 0.61060  0.57770  0.43250  Biso   1.000  C
  H7       1.0000 0.56410  0.59360  0.42850  Biso   1.000  H
  C19      1.0000 0.64470  0.56380  0.46560  Biso   1.000  C
  C20      1.0000 0.77680  0.56410  0.34220  Biso   1.000  C
  H8       1.0000 0.77990  0.60720  0.35510  Biso   1.000  H
  C21      1.0000 0.76940  0.56510  0.30345  Biso   1.000  C
  C22      1.0000 0.76340  0.63150  0.28342  Biso   1.000  C
  O3       1.0000 0.78860  0.68660  0.29941  Biso   1.000  O
  O4       1.0000 0.73610  0.63220  0.25151  Biso   1.000  O
  N5       1.0000 0.65010  0.96880  0.95970  Biso   1.000  N
  N6       1.0000 0.78280  0.95970  0.95950  Biso   1.000  N
  C23      1.0000 0.58240  0.93660  0.96510  Biso   1.000  C
  C24      1.0000 0.54700  0.92850  0.93000  Biso   1.000  C
  C25      1.0000 0.59480  0.94340  0.90310  Biso   1.000  C
  H9       1.0000 0.58770  0.93690  0.87760  Biso   1.000  H
  C26      1.0000 0.66030  0.97160  0.92040  Biso   1.000  C
  C27      1.0000 0.77560  0.96890  0.92070  Biso   1.000  C
  C28      1.0000 0.82900  0.94070  0.90240  Biso   1.000  C
  H10      1.0000 0.83140  0.93270  0.87680  Biso   1.000  H
  C29      1.0000 0.88940  0.92230  0.93250  Biso   1.000  C
  H11      1.0000 0.93590  0.90640  0.92850  Biso   1.000  H
  C30      1.0000 0.85530  0.93620  0.96560  Biso   1.000  C
  C31      1.0000 0.72320  0.93590  0.84220  Biso   1.000  C
  H12      1.0000 0.72010  0.89280  0.85510  Biso   1.000  H
  C32      1.0000 0.73060  0.93490  0.80345  Biso   1.000  C
  C33      1.0000 0.73660  0.86850  0.78342  Biso   1.000  C
  O5       1.0000 0.71140  0.81340  0.79941  Biso   1.000  O
  O6       1.0000 0.76390  0.86780  0.75151  Biso   1.000  O
  N7       1.0000 0.15010  0.46880  0.45970  Biso   1.000  N
  N8       1.0000 0.28280  0.45970  0.45950  Biso   1.000  N
  C34      1.0000 0.08240  0.43660  0.46510  Biso   1.000  C
  C35      1.0000 0.04700  0.42850  0.43000  Biso   1.000  C
  C36      1.0000 0.09480  0.44340  0.40310  Biso   1.000  C
  H13      1.0000 0.08770  0.43690  0.37760  Biso   1.000  H
  C37      1.0000 0.16030  0.47160  0.42040  Biso   1.000  C
  C38      1.0000 0.27560  0.46890  0.42070  Biso   1.000  C
  C39      1.0000 0.32900  0.44070  0.40240  Biso   1.000  C
  H14      1.0000 0.33140  0.43270  0.37680  Biso   1.000  H
  C40      1.0000 0.38940  0.42230  0.43250  Biso   1.000  C
  H15      1.0000 0.43590  0.40640  0.42850  Biso   1.000  H
  C41      1.0000 0.35530  0.43620  0.46560  Biso   1.000  C
  C42      1.0000 0.22320  0.43590  0.34220  Biso   1.000  C
  H16      1.0000 0.22010  0.39280  0.35510  Biso   1.000  H
  C43      1.0000 0.23060  0.43490  0.30345  Biso   1.000  C
  C44      1.0000 0.23660  0.36850  0.28342  Biso   1.000  C
  O7       1.0000 0.21140  0.31340  0.29941  Biso   1.000  O
  O8       1.0000 0.26390  0.36780  0.25151  Biso   1.000  O
  N9       1.0000 0.96880  0.34990  0.95970  Biso   1.000  N
  N10      1.0000 0.95970  0.21720  0.95950  Biso   1.000  N
  C45      1.0000 0.93660  0.41760  0.96510  Biso   1.000  C
  C46      1.0000 0.92850  0.45300  0.93000  Biso   1.000  C
  C47      1.0000 0.94340  0.40520  0.90310  Biso   1.000  C
  H17      1.0000 0.93690  0.41230  0.87760  Biso   1.000  H
  C48      1.0000 0.97160  0.33970  0.92040  Biso   1.000  C
  C49      1.0000 0.96890  0.22440  0.92070  Biso   1.000  C
  C50      1.0000 0.94070  0.17100  0.90240  Biso   1.000  C
  H18      1.0000 0.93270  0.16860  0.87680  Biso   1.000  H
  C51      1.0000 0.92230  0.11060  0.93250  Biso   1.000  C
  H19      1.0000 0.90640  0.06410  0.92850  Biso   1.000  H
  C52      1.0000 0.93620  0.14470  0.96560  Biso   1.000  C
  C53      1.0000 0.93590  0.27680  0.84220  Biso   1.000  C
  H20      1.0000 0.89280  0.27990  0.85510  Biso   1.000  H
  C54      1.0000 0.93490  0.26940  0.80345  Biso   1.000  C
  C55      1.0000 0.86850  0.26340  0.78342  Biso   1.000  C
  O9       1.0000 0.81340  0.28860  0.79941  Biso   1.000  O
  O10      1.0000 0.86780  0.23610  0.75151  Biso   1.000  O
  N11      1.0000 0.46880  0.84990  0.45970  Biso   1.000  N
  N12      1.0000 0.45970  0.71720  0.45950  Biso   1.000  N
  C56      1.0000 0.43660  0.91760  0.46510  Biso   1.000  C
  C57      1.0000 0.42850  0.95300  0.43000  Biso   1.000  C
  C58      1.0000 0.44340  0.90520  0.40310  Biso   1.000  C
  H21      1.0000 0.43690  0.91230  0.37760  Biso   1.000  H
  C59      1.0000 0.47160  0.83970  0.42040  Biso   1.000  C
  C60      1.0000 0.46890  0.72440  0.42070  Biso   1.000  C
  C61      1.0000 0.44070  0.67100  0.40240  Biso   1.000  C
  H22      1.0000 0.43270  0.66860  0.37680  Biso   1.000  H
  C62      1.0000 0.42230  0.61060  0.43250  Biso   1.000  C
  H23      1.0000 0.40640  0.56410  0.42850  Biso   1.000  H
  C63      1.0000 0.43620  0.64470  0.46560  Biso   1.000  C
  C64      1.0000 0.43590  0.77680  0.34220  Biso   1.000  C
  H24      1.0000 0.39280  0.77990  0.35510  Biso   1.000  H
  C65      1.0000 0.43490  0.76940  0.30345  Biso   1.000  C
  C66      1.0000 0.36850  0.76340  0.28342  Biso   1.000  C
  O11      1.0000 0.31340  0.78860  0.29941  Biso   1.000  O
  O12      1.0000 0.36780  0.73610  0.25151  Biso   1.000  O
  N13      1.0000 0.03120  0.65010  0.95970  Biso   1.000  N
  N14      1.0000 0.04030  0.78280  0.95950  Biso   1.000  N
  C67      1.0000 0.06340  0.58240  0.96510  Biso   1.000  C
  C68      1.0000 0.07150  0.54700  0.93000  Biso   1.000  C
  C69      1.0000 0.05660  0.59480  0.90310  Biso   1.000  C
  H25      1.0000 0.06310  0.58770  0.87760  Biso   1.000  H
  C70      1.0000 0.02840  0.66030  0.92040  Biso   1.000  C
  C71      1.0000 0.03110  0.77560  0.92070  Biso   1.000  C
  C72      1.0000 0.05930  0.82900  0.90240  Biso   1.000  C
  H26      1.0000 0.06730  0.83140  0.87680  Biso   1.000  H
  C73      1.0000 0.07770  0.88940  0.93250  Biso   1.000  C
  H27      1.0000 0.09360  0.93590  0.92850  Biso   1.000  H
  C74      1.0000 0.06380  0.85530  0.96560  Biso   1.000  C
  C75      1.0000 0.06410  0.72320  0.84220  Biso   1.000  C
  H28      1.0000 0.10720  0.72010  0.85510  Biso   1.000  H
  C76      1.0000 0.06510  0.73060  0.80345  Biso   1.000  C
  C77      1.0000 0.13150  0.73660  0.78342  Biso   1.000  C
  O13      1.0000 0.18660  0.71140  0.79941  Biso   1.000  O
  O14      1.0000 0.13220  0.76390  0.75151  Biso   1.000  O
  N15      1.0000 0.53120  0.15010  0.45970  Biso   1.000  N
  N16      1.0000 0.54030  0.28280  0.45950  Biso   1.000  N
  C78      1.0000 0.56340  0.08240  0.46510  Biso   1.000  C
  C79      1.0000 0.57150  0.04700  0.43000  Biso   1.000  C
  C80      1.0000 0.55660  0.09480  0.40310  Biso   1.000  C
  H29      1.0000 0.56310  0.08770  0.37760  Biso   1.000  H
  C81      1.0000 0.52840  0.16030  0.42040  Biso   1.000  C
  C82      1.0000 0.53110  0.27560  0.42070  Biso   1.000  C
  C83      1.0000 0.55930  0.32900  0.40240  Biso   1.000  C
  H30      1.0000 0.56730  0.33140  0.37680  Biso   1.000  H
  C84      1.0000 0.57770  0.38940  0.43250  Biso   1.000  C
  H31      1.0000 0.59360  0.43590  0.42850  Biso   1.000  H
  C85      1.0000 0.56380  0.35530  0.46560  Biso   1.000  C
  C86      1.0000 0.56410  0.22320  0.34220  Biso   1.000  C
  H32      1.0000 0.60720  0.22010  0.35510  Biso   1.000  H
  C87      1.0000 0.56510  0.23060  0.30345  Biso   1.000  C
  C88      1.0000 0.63150  0.23660  0.28342  Biso   1.000  C
  O15      1.0000 0.68660  0.21140  0.29941  Biso   1.000  O
  O16      1.0000 0.63220  0.26390  0.25151  Biso   1.000  O
  N17      1.0000 0.65010  0.03120  0.04030  Biso   1.000  N
  N18      1.0000 0.78280  0.04030  0.04050  Biso   1.000  N
  C89      1.0000 0.58240  0.06340  0.03490  Biso   1.000  C
  C90      1.0000 0.54700  0.07150  0.07000  Biso   1.000  C
  C91      1.0000 0.59480  0.05660  0.09690  Biso   1.000  C
  H33      1.0000 0.58770  0.06310  0.12240  Biso   1.000  H
  C92      1.0000 0.66030  0.02840  0.07960  Biso   1.000  C
  C93      1.0000 0.77560  0.03110  0.07930  Biso   1.000  C
  C94      1.0000 0.82900  0.05930  0.09760  Biso   1.000  C
  H34      1.0000 0.83140  0.06730  0.12320  Biso   1.000  H
  C95      1.0000 0.88940  0.07770  0.06750  Biso   1.000  C
  H35      1.0000 0.93590  0.09360  0.07150  Biso   1.000  H
  C96      1.0000 0.85530  0.06380  0.03440  Biso   1.000  C
  C97      1.0000 0.72320  0.06410  0.15780  Biso   1.000  C
  H36      1.0000 0.72010  0.10720  0.14490  Biso   1.000  H
  C98      1.0000 0.73060  0.06510  0.19655  Biso   1.000  C
  C99      1.0000 0.73660  0.13150  0.21658  Biso   1.000  C
  O17      1.0000 0.71140  0.18660  0.20059  Biso   1.000  O
  O18      1.0000 0.76390  0.13220  0.24849  Biso   1.000  O
  N19      1.0000 0.15010  0.53120  0.54030  Biso   1.000  N
  N20      1.0000 0.28280  0.54030  0.54050  Biso   1.000  N
  C100     1.0000 0.08240  0.56340  0.53490  Biso   1.000  C
  C101     1.0000 0.04700  0.57150  0.57000  Biso   1.000  C
  C102     1.0000 0.09480  0.55660  0.59690  Biso   1.000  C
  H37      1.0000 0.08770  0.56310  0.62240  Biso   1.000  H
  C103     1.0000 0.16030  0.52840  0.57960  Biso   1.000  C
  C104     1.0000 0.27560  0.53110  0.57930  Biso   1.000  C
  C105     1.0000 0.32900  0.55930  0.59760  Biso   1.000  C
  H38      1.0000 0.33140  0.56730  0.62320  Biso   1.000  H
  C106     1.0000 0.38940  0.57770  0.56750  Biso   1.000  C
  H39      1.0000 0.43590  0.59360  0.57150  Biso   1.000  H
  C107     1.0000 0.35530  0.56380  0.53440  Biso   1.000  C
  C108     1.0000 0.22320  0.56410  0.65780  Biso   1.000  C
  H40      1.0000 0.22010  0.60720  0.64490  Biso   1.000  H
  C109     1.0000 0.23060  0.56510  0.69655  Biso   1.000  C
  C110     1.0000 0.23660  0.63150  0.71658  Biso   1.000  C
  O19      1.0000 0.21140  0.68660  0.70059  Biso   1.000  O
  O20      1.0000 0.26390  0.63220  0.74849  Biso   1.000  O
  N21      1.0000 0.34990  0.96880  0.04030  Biso   1.000  N
  N22      1.0000 0.21720  0.95970  0.04050  Biso   1.000  N
  C111     1.0000 0.41760  0.93660  0.03490  Biso   1.000  C
  C112     1.0000 0.45300  0.92850  0.07000  Biso   1.000  C
  C113     1.0000 0.40520  0.94340  0.09690  Biso   1.000  C
  H41      1.0000 0.41230  0.93690  0.12240  Biso   1.000  H
  C114     1.0000 0.33970  0.97160  0.07960  Biso   1.000  C
  C115     1.0000 0.22440  0.96890  0.07930  Biso   1.000  C
  C116     1.0000 0.17100  0.94070  0.09760  Biso   1.000  C
  H42      1.0000 0.16860  0.93270  0.12320  Biso   1.000  H
  C117     1.0000 0.11060  0.92230  0.06750  Biso   1.000  C
  H43      1.0000 0.06410  0.90640  0.07150  Biso   1.000  H
  C118     1.0000 0.14470  0.93620  0.03440  Biso   1.000  C
  C119     1.0000 0.27680  0.93590  0.15780  Biso   1.000  C
  H44      1.0000 0.27990  0.89280  0.14490  Biso   1.000  H
  C120     1.0000 0.26940  0.93490  0.19655  Biso   1.000  C
  C121     1.0000 0.26340  0.86850  0.21658  Biso   1.000  C
  O21      1.0000 0.28860  0.81340  0.20059  Biso   1.000  O
  O22      1.0000 0.23610  0.86780  0.24849  Biso   1.000  O
  N23      1.0000 0.84990  0.46880  0.54030  Biso   1.000  N
  N24      1.0000 0.71720  0.45970  0.54050  Biso   1.000  N
  C122     1.0000 0.91760  0.43660  0.53490  Biso   1.000  C
  C123     1.0000 0.95300  0.42850  0.57000  Biso   1.000  C
  C124     1.0000 0.90520  0.44340  0.59690  Biso   1.000  C
  H45      1.0000 0.91230  0.43690  0.62240  Biso   1.000  H
  C125     1.0000 0.83970  0.47160  0.57960  Biso   1.000  C
  C126     1.0000 0.72440  0.46890  0.57930  Biso   1.000  C
  C127     1.0000 0.67100  0.44070  0.59760  Biso   1.000  C
  H46      1.0000 0.66860  0.43270  0.62320  Biso   1.000  H
  C128     1.0000 0.61060  0.42230  0.56750  Biso   1.000  C
  H47      1.0000 0.56410  0.40640  0.57150  Biso   1.000  H
  C129     1.0000 0.64470  0.43620  0.53440  Biso   1.000  C
  C130     1.0000 0.77680  0.43590  0.65780  Biso   1.000  C
  H48      1.0000 0.77990  0.39280  0.64490  Biso   1.000  H
  C131     1.0000 0.76940  0.43490  0.69655  Biso   1.000  C
  C132     1.0000 0.76340  0.36850  0.71658  Biso   1.000  C
  O23      1.0000 0.78860  0.31340  0.70059  Biso   1.000  O
  O24      1.0000 0.73610  0.36780  0.74849  Biso   1.000  O
  N25      1.0000 0.03120  0.34990  0.04030  Biso   1.000  N
  N26      1.0000 0.04030  0.21720  0.04050  Biso   1.000  N
  C133     1.0000 0.06340  0.41760  0.03490  Biso   1.000  C
  C134     1.0000 0.07150  0.45300  0.07000  Biso   1.000  C
  C135     1.0000 0.05660  0.40520  0.09690  Biso   1.000  C
  H49      1.0000 0.06310  0.41230  0.12240  Biso   1.000  H
  C136     1.0000 0.02840  0.33970  0.07960  Biso   1.000  C
  C137     1.0000 0.03110  0.22440  0.07930  Biso   1.000  C
  C138     1.0000 0.05930  0.17100  0.09760  Biso   1.000  C
  H50      1.0000 0.06730  0.16860  0.12320  Biso   1.000  H
  C139     1.0000 0.07770  0.11060  0.06750  Biso   1.000  C
  H51      1.0000 0.09360  0.06410  0.07150  Biso   1.000  H
  C140     1.0000 0.06380  0.14470  0.03440  Biso   1.000  C
  C141     1.0000 0.06410  0.27680  0.15780  Biso   1.000  C
  H52      1.0000 0.10720  0.27990  0.14490  Biso   1.000  H
  C142     1.0000 0.06510  0.26940  0.19655  Biso   1.000  C
  C143     1.0000 0.13150  0.26340  0.21658  Biso   1.000  C
  O25      1.0000 0.18660  0.28860  0.20059  Biso   1.000  O
  O26      1.0000 0.13220  0.23610  0.24849  Biso   1.000  O
  N27      1.0000 0.53120  0.84990  0.54030  Biso   1.000  N
  N28      1.0000 0.54030  0.71720  0.54050  Biso   1.000  N
  C144     1.0000 0.56340  0.91760  0.53490  Biso   1.000  C
  C145     1.0000 0.57150  0.95300  0.57000  Biso   1.000  C
  C146     1.0000 0.55660  0.90520  0.59690  Biso   1.000  C
  H53      1.0000 0.56310  0.91230  0.62240  Biso   1.000  H
  C147     1.0000 0.52840  0.83970  0.57960  Biso   1.000  C
  C148     1.0000 0.53110  0.72440  0.57930  Biso   1.000  C
  C149     1.0000 0.55930  0.67100  0.59760  Biso   1.000  C
  H54      1.0000 0.56730  0.66860  0.62320  Biso   1.000  H
  C150     1.0000 0.57770  0.61060  0.56750  Biso   1.000  C
  H55      1.0000 0.59360  0.56410  0.57150  Biso   1.000  H
  C151     1.0000 0.56380  0.64470  0.53440  Biso   1.000  C
  C152     1.0000 0.56410  0.77680  0.65780  Biso   1.000  C
  H56      1.0000 0.60720  0.77990  0.64490  Biso   1.000  H
  C153     1.0000 0.56510  0.76940  0.69655  Biso   1.000  C
  C154     1.0000 0.63150  0.76340  0.71658  Biso   1.000  C
  O27      1.0000 0.68660  0.78860  0.70059  Biso   1.000  O
  O28      1.0000 0.63220  0.73610  0.74849  Biso   1.000  O
  N29      1.0000 0.96880  0.65010  0.04030  Biso   1.000  N
  N30      1.0000 0.95970  0.78280  0.04050  Biso   1.000  N
  C155     1.0000 0.93660  0.58240  0.03490  Biso   1.000  C
  C156     1.0000 0.92850  0.54700  0.07000  Biso   1.000  C
  C157     1.0000 0.94340  0.59480  0.09690  Biso   1.000  C
  H57      1.0000 0.93690  0.58770  0.12240  Biso   1.000  H
  C158     1.0000 0.97160  0.66030  0.07960  Biso   1.000  C
  C159     1.0000 0.96890  0.77560  0.07930  Biso   1.000  C
  C160     1.0000 0.94070  0.82900  0.09760  Biso   1.000  C
  H58      1.0000 0.93270  0.83140  0.12320  Biso   1.000  H
  C161     1.0000 0.92230  0.88940  0.06750  Biso   1.000  C
  H59      1.0000 0.90640  0.93590  0.07150  Biso   1.000  H
  C162     1.0000 0.93620  0.85530  0.03440  Biso   1.000  C
  C163     1.0000 0.93590  0.72320  0.15780  Biso   1.000  C
  H60      1.0000 0.89280  0.72010  0.14490  Biso   1.000  H
  C164     1.0000 0.93490  0.73060  0.19655  Biso   1.000  C
  C165     1.0000 0.86850  0.73660  0.21658  Biso   1.000  C
  O29      1.0000 0.81340  0.71140  0.20059  Biso   1.000  O
  O30      1.0000 0.86780  0.76390  0.24849  Biso   1.000  O
  N31      1.0000 0.46880  0.15010  0.54030  Biso   1.000  N
  N32      1.0000 0.45970  0.28280  0.54050  Biso   1.000  N
  C166     1.0000 0.43660  0.08240  0.53490  Biso   1.000  C
  C167     1.0000 0.42850  0.04700  0.57000  Biso   1.000  C
  C168     1.0000 0.44340  0.09480  0.59690  Biso   1.000  C
  H61      1.0000 0.43690  0.08770  0.62240  Biso   1.000  H
  C169     1.0000 0.47160  0.16030  0.57960  Biso   1.000  C
  C170     1.0000 0.46890  0.27560  0.57930  Biso   1.000  C
  C171     1.0000 0.44070  0.32900  0.59760  Biso   1.000  C
  H62      1.0000 0.43270  0.33140  0.62320  Biso   1.000  H
  C172     1.0000 0.42230  0.38940  0.56750  Biso   1.000  C
  H63      1.0000 0.40640  0.43590  0.57150  Biso   1.000  H
  C173     1.0000 0.43620  0.35530  0.53440  Biso   1.000  C
  C174     1.0000 0.43590  0.22320  0.65780  Biso   1.000  C
  H64      1.0000 0.39280  0.22010  0.64490  Biso   1.000  H
  C175     1.0000 0.43490  0.23060  0.69655  Biso   1.000  C
  C176     1.0000 0.36850  0.23660  0.71658  Biso   1.000  C
  O31      1.0000 0.31340  0.21140  0.70059  Biso   1.000  O
  O32      1.0000 0.36780  0.26390  0.74849  Biso   1.000  O
  N33      1.0000 0.65010  0.96880  0.04030  Biso   1.000  N
  N34      1.0000 0.78280  0.95970  0.04050  Biso   1.000  N
  C177     1.0000 0.58240  0.93660  0.03490  Biso   1.000  C
  C178     1.0000 0.54700  0.92850  0.07000  Biso   1.000  C
  C179     1.0000 0.59480  0.94340  0.09690  Biso   1.000  C
  H65      1.0000 0.58770  0.93690  0.12240  Biso   1.000  H
  C180     1.0000 0.66030  0.97160  0.07960  Biso   1.000  C
  C181     1.0000 0.77560  0.96890  0.07930  Biso   1.000  C
  C182     1.0000 0.82900  0.94070  0.09760  Biso   1.000  C
  H66      1.0000 0.83140  0.93270  0.12320  Biso   1.000  H
  C183     1.0000 0.88940  0.92230  0.06750  Biso   1.000  C
  H67      1.0000 0.93590  0.90640  0.07150  Biso   1.000  H
  C184     1.0000 0.85530  0.93620  0.03440  Biso   1.000  C
  C185     1.0000 0.72320  0.93590  0.15780  Biso   1.000  C
  H68      1.0000 0.72010  0.89280  0.14490  Biso   1.000  H
  C186     1.0000 0.73060  0.93490  0.19655  Biso   1.000  C
  C187     1.0000 0.73660  0.86850  0.21658  Biso   1.000  C
  O33      1.0000 0.71140  0.81340  0.20059  Biso   1.000  O
  O34      1.0000 0.76390  0.86780  0.24849  Biso   1.000  O
  N35      1.0000 0.15010  0.46880  0.54030  Biso   1.000  N
  N36      1.0000 0.28280  0.45970  0.54050  Biso   1.000  N
  C188     1.0000 0.08240  0.43660  0.53490  Biso   1.000  C
  C189     1.0000 0.04700  0.42850  0.57000  Biso   1.000  C
  C190     1.0000 0.09480  0.44340  0.59690  Biso   1.000  C
  H69      1.0000 0.08770  0.43690  0.62240  Biso   1.000  H
  C191     1.0000 0.16030  0.47160  0.57960  Biso   1.000  C
  C192     1.0000 0.27560  0.46890  0.57930  Biso   1.000  C
  C193     1.0000 0.32900  0.44070  0.59760  Biso   1.000  C
  H70      1.0000 0.33140  0.43270  0.62320  Biso   1.000  H
  C194     1.0000 0.38940  0.42230  0.56750  Biso   1.000  C
  H71      1.0000 0.43590  0.40640  0.57150  Biso   1.000  H
  C195     1.0000 0.35530  0.43620  0.53440  Biso   1.000  C
  C196     1.0000 0.22320  0.43590  0.65780  Biso   1.000  C
  H72      1.0000 0.22010  0.39280  0.64490  Biso   1.000  H
  C197     1.0000 0.23060  0.43490  0.69655  Biso   1.000  C
  C198     1.0000 0.23660  0.36850  0.71658  Biso   1.000  C
  O35      1.0000 0.21140  0.31340  0.70059  Biso   1.000  O
  O36      1.0000 0.26390  0.36780  0.74849  Biso   1.000  O
  N37      1.0000 0.34990  0.03120  0.04030  Biso   1.000  N
  N38      1.0000 0.21720  0.04030  0.04050  Biso   1.000  N
  C199     1.0000 0.41760  0.06340  0.03490  Biso   1.000  C
  C200     1.0000 0.45300  0.07150  0.07000  Biso   1.000  C
  C201     1.0000 0.40520  0.05660  0.09690  Biso   1.000  C
  H73      1.0000 0.41230  0.06310  0.12240  Biso   1.000  H
  C202     1.0000 0.33970  0.02840  0.07960  Biso   1.000  C
  C203     1.0000 0.22440  0.03110  0.07930  Biso   1.000  C
  C204     1.0000 0.17100  0.05930  0.09760  Biso   1.000  C
  H74      1.0000 0.16860  0.06730  0.12320  Biso   1.000  H
  C205     1.0000 0.11060  0.07770  0.06750  Biso   1.000  C
  H75      1.0000 0.06410  0.09360  0.07150  Biso   1.000  H
  C206     1.0000 0.14470  0.06380  0.03440  Biso   1.000  C
  C207     1.0000 0.27680  0.06410  0.15780  Biso   1.000  C
  H76      1.0000 0.27990  0.10720  0.14490  Biso   1.000  H
  C208     1.0000 0.26940  0.06510  0.19655  Biso   1.000  C
  C209     1.0000 0.26340  0.13150  0.21658  Biso   1.000  C
  O37      1.0000 0.28860  0.18660  0.20059  Biso   1.000  O
  O38      1.0000 0.23610  0.13220  0.24849  Biso   1.000  O
  N39      1.0000 0.84990  0.53120  0.54030  Biso   1.000  N
  N40      1.0000 0.71720  0.54030  0.54050  Biso   1.000  N
  C210     1.0000 0.91760  0.56340  0.53490  Biso   1.000  C
  C211     1.0000 0.95300  0.57150  0.57000  Biso   1.000  C
  C212     1.0000 0.90520  0.55660  0.59690  Biso   1.000  C
  H77      1.0000 0.91230  0.56310  0.62240  Biso   1.000  H
  C213     1.0000 0.83970  0.52840  0.57960  Biso   1.000  C
  C214     1.0000 0.72440  0.53110  0.57930  Biso   1.000  C
  C215     1.0000 0.67100  0.55930  0.59760  Biso   1.000  C
  H78      1.0000 0.66860  0.56730  0.62320  Biso   1.000  H
  C216     1.0000 0.61060  0.57770  0.56750  Biso   1.000  C
  H79      1.0000 0.56410  0.59360  0.57150  Biso   1.000  H
  C217     1.0000 0.64470  0.56380  0.53440  Biso   1.000  C
  C218     1.0000 0.77680  0.56410  0.65780  Biso   1.000  C
  H80      1.0000 0.77990  0.60720  0.64490  Biso   1.000  H
  C219     1.0000 0.76940  0.56510  0.69655  Biso   1.000  C
  C220     1.0000 0.76340  0.63150  0.71658  Biso   1.000  C
  O39      1.0000 0.78860  0.68660  0.70059  Biso   1.000  O
  O40      1.0000 0.73610  0.63220  0.74849  Biso   1.000  O
  N41      1.0000 0.03120  0.65010  0.04030  Biso   1.000  N
  N42      1.0000 0.04030  0.78280  0.04050  Biso   1.000  N
  C221     1.0000 0.06340  0.58240  0.03490  Biso   1.000  C
  C222     1.0000 0.07150  0.54700  0.07000  Biso   1.000  C
  C223     1.0000 0.05660  0.59480  0.09690  Biso   1.000  C
  H81      1.0000 0.06310  0.58770  0.12240  Biso   1.000  H
  C224     1.0000 0.02840  0.66030  0.07960  Biso   1.000  C
  C225     1.0000 0.03110  0.77560  0.07930  Biso   1.000  C
  C226     1.0000 0.05930  0.82900  0.09760  Biso   1.000  C
  H82      1.0000 0.06730  0.83140  0.12320  Biso   1.000  H
  C227     1.0000 0.07770  0.88940  0.06750  Biso   1.000  C
  H83      1.0000 0.09360  0.93590  0.07150  Biso   1.000  H
  C228     1.0000 0.06380  0.85530  0.03440  Biso   1.000  C
  C229     1.0000 0.06410  0.72320  0.15780  Biso   1.000  C
  H84      1.0000 0.10720  0.72010  0.14490  Biso   1.000  H
  C230     1.0000 0.06510  0.73060  0.19655  Biso   1.000  C
  C231     1.0000 0.13150  0.73660  0.21658  Biso   1.000  C
  O41      1.0000 0.18660  0.71140  0.20059  Biso   1.000  O
  O42      1.0000 0.13220  0.76390  0.24849  Biso   1.000  O
  N43      1.0000 0.53120  0.15010  0.54030  Biso   1.000  N
  N44      1.0000 0.54030  0.28280  0.54050  Biso   1.000  N
  C232     1.0000 0.56340  0.08240  0.53490  Biso   1.000  C
  C233     1.0000 0.57150  0.04700  0.57000  Biso   1.000  C
  C234     1.0000 0.55660  0.09480  0.59690  Biso   1.000  C
  H85      1.0000 0.56310  0.08770  0.62240  Biso   1.000  H
  C235     1.0000 0.52840  0.16030  0.57960  Biso   1.000  C
  C236     1.0000 0.53110  0.27560  0.57930  Biso   1.000  C
  C237     1.0000 0.55930  0.32900  0.59760  Biso   1.000  C
  H86      1.0000 0.56730  0.33140  0.62320  Biso   1.000  H
  C238     1.0000 0.57770  0.38940  0.56750  Biso   1.000  C
  H87      1.0000 0.59360  0.43590  0.57150  Biso   1.000  H
  C239     1.0000 0.56380  0.35530  0.53440  Biso   1.000  C
  C240     1.0000 0.56410  0.22320  0.65780  Biso   1.000  C
  H88      1.0000 0.60720  0.22010  0.64490  Biso   1.000  H
  C241     1.0000 0.56510  0.23060  0.69655  Biso   1.000  C
  C242     1.0000 0.63150  0.23660  0.71658  Biso   1.000  C
  O43      1.0000 0.68660  0.21140  0.70059  Biso   1.000  O
  O44      1.0000 0.63220  0.26390  0.74849  Biso   1.000  O
  N45      1.0000 0.96880  0.34990  0.04030  Biso   1.000  N
  N46      1.0000 0.95970  0.21720  0.04050  Biso   1.000  N
  C243     1.0000 0.93660  0.41760  0.03490  Biso   1.000  C
  C244     1.0000 0.92850  0.45300  0.07000  Biso   1.000  C
  C245     1.0000 0.94340  0.40520  0.09690  Biso   1.000  C
  H89      1.0000 0.93690  0.41230  0.12240  Biso   1.000  H
  C246     1.0000 0.97160  0.33970  0.07960  Biso   1.000  C
  C247     1.0000 0.96890  0.22440  0.07930  Biso   1.000  C
  C248     1.0000 0.94070  0.17100  0.09760  Biso   1.000  C
  H90      1.0000 0.93270  0.16860  0.12320  Biso   1.000  H
  C249     1.0000 0.92230  0.11060  0.06750  Biso   1.000  C
  H91      1.0000 0.90640  0.06410  0.07150  Biso   1.000  H
  C250     1.0000 0.93620  0.14470  0.03440  Biso   1.000  C
  C251     1.0000 0.93590  0.27680  0.15780  Biso   1.000  C
  H92      1.0000 0.89280  0.27990  0.14490  Biso   1.000  H
  C252     1.0000 0.93490  0.26940  0.19655  Biso   1.000  C
  C253     1.0000 0.86850  0.26340  0.21658  Biso   1.000  C
  O45      1.0000 0.81340  0.28860  0.20059  Biso   1.000  O
  O46      1.0000 0.86780  0.23610  0.24849  Biso   1.000  O
  N47      1.0000 0.46880  0.84990  0.54030  Biso   1.000  N
  N48      1.0000 0.45970  0.71720  0.54050  Biso   1.000  N
  C254     1.0000 0.43660  0.91760  0.53490  Biso   1.000  C
  C255     1.0000 0.42850  0.95300  0.57000  Biso   1.000  C
  C256     1.0000 0.44340  0.90520  0.59690  Biso   1.000  C
  H93      1.0000 0.43690  0.91230  0.62240  Biso   1.000  H
  C257     1.0000 0.47160  0.83970  0.57960  Biso   1.000  C
  C258     1.0000 0.46890  0.72440  0.57930  Biso   1.000  C
  C259     1.0000 0.44070  0.67100  0.59760  Biso   1.000  C
  H94      1.0000 0.43270  0.66860  0.62320  Biso   1.000  H
  C260     1.0000 0.42230  0.61060  0.56750  Biso   1.000  C
  H95      1.0000 0.40640  0.56410  0.57150  Biso   1.000  H
  C261     1.0000 0.43620  0.64470  0.53440  Biso   1.000  C
  C262     1.0000 0.43590  0.77680  0.65780  Biso   1.000  C
  H96      1.0000 0.39280  0.77990  0.64490  Biso   1.000  H
  C263     1.0000 0.43490  0.76940  0.69655  Biso   1.000  C
  C264     1.0000 0.36850  0.76340  0.71658  Biso   1.000  C
  O47      1.0000 0.31340  0.78860  0.70059  Biso   1.000  O
  O48      1.0000 0.36780  0.73610  0.74849  Biso   1.000  O
  N49      1.0000 0.34990  0.96880  0.95970  Biso   1.000  N
  N50      1.0000 0.21720  0.95970  0.95950  Biso   1.000  N
  C265     1.0000 0.41760  0.93660  0.96510  Biso   1.000  C
  C266     1.0000 0.45300  0.92850  0.93000  Biso   1.000  C
  C267     1.0000 0.40520  0.94340  0.90310  Biso   1.000  C
  H97      1.0000 0.41230  0.93690  0.87760  Biso   1.000  H
  C268     1.0000 0.33970  0.97160  0.92040  Biso   1.000  C
  C269     1.0000 0.22440  0.96890  0.92070  Biso   1.000  C
  C270     1.0000 0.17100  0.94070  0.90240  Biso   1.000  C
  H98      1.0000 0.16860  0.93270  0.87680  Biso   1.000  H
  C271     1.0000 0.11060  0.92230  0.93250  Biso   1.000  C
  H99      1.0000 0.06410  0.90640  0.92850  Biso   1.000  H
  C272     1.0000 0.14470  0.93620  0.96560  Biso   1.000  C
  C273     1.0000 0.27680  0.93590  0.84220  Biso   1.000  C
  H100     1.0000 0.27990  0.89280  0.85510  Biso   1.000  H
  C274     1.0000 0.26940  0.93490  0.80345  Biso   1.000  C
  C275     1.0000 0.26340  0.86850  0.78342  Biso   1.000  C
  O49      1.0000 0.28860  0.81340  0.79941  Biso   1.000  O
  O50      1.0000 0.23610  0.86780  0.75151  Biso   1.000  O
  N51      1.0000 0.84990  0.46880  0.45970  Biso   1.000  N
  N52      1.0000 0.71720  0.45970  0.45950  Biso   1.000  N
  C276     1.0000 0.91760  0.43660  0.46510  Biso   1.000  C
  C277     1.0000 0.95300  0.42850  0.43000  Biso   1.000  C
  C278     1.0000 0.90520  0.44340  0.40310  Biso   1.000  C
  H101     1.0000 0.91230  0.43690  0.37760  Biso   1.000  H
  C279     1.0000 0.83970  0.47160  0.42040  Biso   1.000  C
  C280     1.0000 0.72440  0.46890  0.42070  Biso   1.000  C
  C281     1.0000 0.67100  0.44070  0.40240  Biso   1.000  C
  H102     1.0000 0.66860  0.43270  0.37680  Biso   1.000  H
  C282     1.0000 0.61060  0.42230  0.43250  Biso   1.000  C
  H103     1.0000 0.56410  0.40640  0.42850  Biso   1.000  H
  C283     1.0000 0.64470  0.43620  0.46560  Biso   1.000  C
  C284     1.0000 0.77680  0.43590  0.34220  Biso   1.000  C
  H104     1.0000 0.77990  0.39280  0.35510  Biso   1.000  H
  C285     1.0000 0.76940  0.43490  0.30345  Biso   1.000  C
  C286     1.0000 0.76340  0.36850  0.28342  Biso   1.000  C
  O51      1.0000 0.78860  0.31340  0.29941  Biso   1.000  O
  O52      1.0000 0.73610  0.36780  0.25151  Biso   1.000  O
  N53      1.0000 0.65010  0.03120  0.95970  Biso   1.000  N
  N54      1.0000 0.78280  0.04030  0.95950  Biso   1.000  N
  C287     1.0000 0.58240  0.06340  0.96510  Biso   1.000  C
  C288     1.0000 0.54700  0.07150  0.93000  Biso   1.000  C
  C289     1.0000 0.59480  0.05660  0.90310  Biso   1.000  C
  H105     1.0000 0.58770  0.06310  0.87760  Biso   1.000  H
  C290     1.0000 0.66030  0.02840  0.92040  Biso   1.000  C
  C291     1.0000 0.77560  0.03110  0.92070  Biso   1.000  C
  C292     1.0000 0.82900  0.05930  0.90240  Biso   1.000  C
  H106     1.0000 0.83140  0.06730  0.87680  Biso   1.000  H
  C293     1.0000 0.88940  0.07770  0.93250  Biso   1.000  C
  H107     1.0000 0.93590  0.09360  0.92850  Biso   1.000  H
  C294     1.0000 0.85530  0.06380  0.96560  Biso   1.000  C
  C295     1.0000 0.72320  0.06410  0.84220  Biso   1.000  C
  H108     1.0000 0.72010  0.10720  0.85510  Biso   1.000  H
  C296     1.0000 0.73060  0.06510  0.80345  Biso   1.000  C
  C297     1.0000 0.73660  0.13150  0.78342  Biso   1.000  C
  O53      1.0000 0.71140  0.18660  0.79941  Biso   1.000  O
  O54      1.0000 0.76390  0.13220  0.75151  Biso   1.000  O
  N55      1.0000 0.15010  0.53120  0.45970  Biso   1.000  N
  N56      1.0000 0.28280  0.54030  0.45950  Biso   1.000  N
  C298     1.0000 0.08240  0.56340  0.46510  Biso   1.000  C
  C299     1.0000 0.04700  0.57150  0.43000  Biso   1.000  C
  C300     1.0000 0.09480  0.55660  0.40310  Biso   1.000  C
  H109     1.0000 0.08770  0.56310  0.37760  Biso   1.000  H
  C301     1.0000 0.16030  0.52840  0.42040  Biso   1.000  C
  C302     1.0000 0.27560  0.53110  0.42070  Biso   1.000  C
  C303     1.0000 0.32900  0.55930  0.40240  Biso   1.000  C
  H110     1.0000 0.33140  0.56730  0.37680  Biso   1.000  H
  C304     1.0000 0.38940  0.57770  0.43250  Biso   1.000  C
  H111     1.0000 0.43590  0.59360  0.42850  Biso   1.000  H
  C305     1.0000 0.35530  0.56380  0.46560  Biso   1.000  C
  C306     1.0000 0.22320  0.56410  0.34220  Biso   1.000  C
  H112     1.0000 0.22010  0.60720  0.35510  Biso   1.000  H
  C307     1.0000 0.23060  0.56510  0.30345  Biso   1.000  C
  C308     1.0000 0.23660  0.63150  0.28342  Biso   1.000  C
  O55      1.0000 0.21140  0.68660  0.29941  Biso   1.000  O
  O56      1.0000 0.26390  0.63220  0.25151  Biso   1.000  O
  N57      1.0000 0.96880  0.65010  0.95970  Biso   1.000  N
  N58      1.0000 0.95970  0.78280  0.95950  Biso   1.000  N
  C309     1.0000 0.93660  0.58240  0.96510  Biso   1.000  C
  C310     1.0000 0.92850  0.54700  0.93000  Biso   1.000  C
  C311     1.0000 0.94340  0.59480  0.90310  Biso   1.000  C
  H113     1.0000 0.93690  0.58770  0.87760  Biso   1.000  H
  C312     1.0000 0.97160  0.66030  0.92040  Biso   1.000  C
  C313     1.0000 0.96890  0.77560  0.92070  Biso   1.000  C
  C314     1.0000 0.94070  0.82900  0.90240  Biso   1.000  C
  H114     1.0000 0.93270  0.83140  0.87680  Biso   1.000  H
  C315     1.0000 0.92230  0.88940  0.93250  Biso   1.000  C
  H115     1.0000 0.90640  0.93590  0.92850  Biso   1.000  H
  C316     1.0000 0.93620  0.85530  0.96560  Biso   1.000  C
  C317     1.0000 0.93590  0.72320  0.84220  Biso   1.000  C
  H116     1.0000 0.89280  0.72010  0.85510  Biso   1.000  H
  C318     1.0000 0.93490  0.73060  0.80345  Biso   1.000  C
  C319     1.0000 0.86850  0.73660  0.78342  Biso   1.000  C
  O57      1.0000 0.81340  0.71140  0.79941  Biso   1.000  O
  O58      1.0000 0.86780  0.76390  0.75151  Biso   1.000  O
  N59      1.0000 0.46880  0.15010  0.45970  Biso   1.000  N
  N60      1.0000 0.45970  0.28280  0.45950  Biso   1.000  N
  C320     1.0000 0.43660  0.08240  0.46510  Biso   1.000  C
  C321     1.0000 0.42850  0.04700  0.43000  Biso   1.000  C
  C322     1.0000 0.44340  0.09480  0.40310  Biso   1.000  C
  H117     1.0000 0.43690  0.08770  0.37760  Biso   1.000  H
  C323     1.0000 0.47160  0.16030  0.42040  Biso   1.000  C
  C324     1.0000 0.46890  0.27560  0.42070  Biso   1.000  C
  C325     1.0000 0.44070  0.32900  0.40240  Biso   1.000  C
  H118     1.0000 0.43270  0.33140  0.37680  Biso   1.000  H
  C326     1.0000 0.42230  0.38940  0.43250  Biso   1.000  C
  H119     1.0000 0.40640  0.43590  0.42850  Biso   1.000  H
  C327     1.0000 0.43620  0.35530  0.46560  Biso   1.000  C
  C328     1.0000 0.43590  0.22320  0.34220  Biso   1.000  C
  H120     1.0000 0.39280  0.22010  0.35510  Biso   1.000  H
  C329     1.0000 0.43490  0.23060  0.30345  Biso   1.000  C
  C330     1.0000 0.36850  0.23660  0.28342  Biso   1.000  C
  O59      1.0000 0.31340  0.21140  0.29941  Biso   1.000  O
  O60      1.0000 0.36780  0.26390  0.25151  Biso   1.000  O
  N61      1.0000 0.03120  0.34990  0.95970  Biso   1.000  N
  N62      1.0000 0.04030  0.21720  0.95950  Biso   1.000  N
  C331     1.0000 0.06340  0.41760  0.96510  Biso   1.000  C
  C332     1.0000 0.07150  0.45300  0.93000  Biso   1.000  C
  C333     1.0000 0.05660  0.40520  0.90310  Biso   1.000  C
  H121     1.0000 0.06310  0.41230  0.87760  Biso   1.000  H
  C334     1.0000 0.02840  0.33970  0.92040  Biso   1.000  C
  C335     1.0000 0.03110  0.22440  0.92070  Biso   1.000  C
  C336     1.0000 0.05930  0.17100  0.90240  Biso   1.000  C
  H122     1.0000 0.06730  0.16860  0.87680  Biso   1.000  H
  C337     1.0000 0.07770  0.11060  0.93250  Biso   1.000  C
  H123     1.0000 0.09360  0.06410  0.92850  Biso   1.000  H
  C338     1.0000 0.06380  0.14470  0.96560  Biso   1.000  C
  C339     1.0000 0.06410  0.27680  0.84220  Biso   1.000  C
  H124     1.0000 0.10720  0.27990  0.85510  Biso   1.000  H
  C340     1.0000 0.06510  0.26940  0.80345  Biso   1.000  C
  C341     1.0000 0.13150  0.26340  0.78342  Biso   1.000  C
  O61      1.0000 0.18660  0.28860  0.79941  Biso   1.000  O
  O62      1.0000 0.13220  0.23610  0.75151  Biso   1.000  O
  N63      1.0000 0.53120  0.84990  0.45970  Biso   1.000  N
  N64      1.0000 0.54030  0.71720  0.45950  Biso   1.000  N
  C342     1.0000 0.56340  0.91760  0.46510  Biso   1.000  C
  C343     1.0000 0.57150  0.95300  0.43000  Biso   1.000  C
  C344     1.0000 0.55660  0.90520  0.40310  Biso   1.000  C
  H125     1.0000 0.56310  0.91230  0.37760  Biso   1.000  H
  C345     1.0000 0.52840  0.83970  0.42040  Biso   1.000  C
  C346     1.0000 0.53110  0.72440  0.42070  Biso   1.000  C
  C347     1.0000 0.55930  0.67100  0.40240  Biso   1.000  C
  H126     1.0000 0.56730  0.66860  0.37680  Biso   1.000  H
  C348     1.0000 0.57770  0.61060  0.43250  Biso   1.000  C
  H127     1.0000 0.59360  0.56410  0.42850  Biso   1.000  H
  C349     1.0000 0.56380  0.64470  0.46560  Biso   1.000  C
  C350     1.0000 0.56410  0.77680  0.34220  Biso   1.000  C
  H128     1.0000 0.60720  0.77990  0.35510  Biso   1.000  H
  C351     1.0000 0.56510  0.76940  0.30345  Biso   1.000  C
  C352     1.0000 0.63150  0.76340  0.28342  Biso   1.000  C
  O63      1.0000 0.68660  0.78860  0.29941  Biso   1.000  O
  O64      1.0000 0.63220  0.73610  0.25151  Biso   1.000  O
  Zn1      1.0000 0.28898  0.00000  0.00000  Biso   1.000  Zn
  Zn2      1.0000 0.78898  0.50000  0.50000  Biso   1.000  Zn
  Zn3      1.0000 0.71102  0.00000  0.00000  Biso   1.000  Zn
  Zn4      1.0000 0.21102  0.50000  0.50000  Biso   1.000  Zn
  Zn5      1.0000 0.00000  0.28898  0.00000  Biso   1.000  Zn
  Zn6      1.0000 0.50000  0.78898  0.50000  Biso   1.000  Zn
  Zn7      1.0000 0.00000  0.71102  0.00000  Biso   1.000  Zn
  Zn8      1.0000 0.50000  0.21102  0.50000  Biso   1.000  Zn
  C353     1.0000 0.44670  0.07700  0.00000  Biso   1.000  C
  H129     1.0000 0.49200  0.09730  0.00000  Biso   1.000  H
  C354     1.0000 0.11000  0.09500  0.00000  Biso   1.000  C
  C355     1.0000 0.94670  0.57700  0.50000  Biso   1.000  C
  H130     1.0000 0.99200  0.59730  0.50000  Biso   1.000  H
  C356     1.0000 0.61000  0.59500  0.50000  Biso   1.000  C
  C357     1.0000 0.55330  0.92300  0.00000  Biso   1.000  C
  H131     1.0000 0.50800  0.90270  0.00000  Biso   1.000  H
  C358     1.0000 0.89000  0.90500  0.00000  Biso   1.000  C
  C359     1.0000 0.05330  0.42300  0.50000  Biso   1.000  C
  H132     1.0000 0.00800  0.40270  0.50000  Biso   1.000  H
  C360     1.0000 0.39000  0.40500  0.50000  Biso   1.000  C
  C361     1.0000 0.92300  0.44670  0.00000  Biso   1.000  C
  H133     1.0000 0.90270  0.49200  0.00000  Biso   1.000  H
  C362     1.0000 0.90500  0.11000  0.00000  Biso   1.000  C
  C363     1.0000 0.42300  0.94670  0.50000  Biso   1.000  C
  H134     1.0000 0.40270  0.99200  0.50000  Biso   1.000  H
  C364     1.0000 0.40500  0.61000  0.50000  Biso   1.000  C
  C365     1.0000 0.07700  0.55330  0.00000  Biso   1.000  C
  H135     1.0000 0.09730  0.50800  0.00000  Biso   1.000  H
  C366     1.0000 0.09500  0.89000  0.00000  Biso   1.000  C
  C367     1.0000 0.57700  0.05330  0.50000  Biso   1.000  C
  H136     1.0000 0.59730  0.00800  0.50000  Biso   1.000  H
  C368     1.0000 0.59500  0.39000  0.50000  Biso   1.000  C
  C369     1.0000 0.55330  0.07700  0.00000  Biso   1.000  C
  H137     1.0000 0.50800  0.09730  0.00000  Biso   1.000  H
  C370     1.0000 0.89000  0.09500  0.00000  Biso   1.000  C
  C371     1.0000 0.05330  0.57700  0.50000  Biso   1.000  C
  H138     1.0000 0.00800  0.59730  0.50000  Biso   1.000  H
  C372     1.0000 0.39000  0.59500  0.50000  Biso   1.000  C
  C373     1.0000 0.44670  0.92300  0.00000  Biso   1.000  C
  H139     1.0000 0.49200  0.90270  0.00000  Biso   1.000  H
  C374     1.0000 0.11000  0.90500  0.00000  Biso   1.000  C
  C375     1.0000 0.94670  0.42300  0.50000  Biso   1.000  C
  H140     1.0000 0.99200  0.40270  0.50000  Biso   1.000  H
  C376     1.0000 0.61000  0.40500  0.50000  Biso   1.000  C
  C377     1.0000 0.07700  0.44670  0.00000  Biso   1.000  C
  H141     1.0000 0.09730  0.49200  0.00000  Biso   1.000  H
  C378     1.0000 0.09500  0.11000  0.00000  Biso   1.000  C
  C379     1.0000 0.57700  0.94670  0.50000  Biso   1.000  C
  H142     1.0000 0.59730  0.99200  0.50000  Biso   1.000  H
  C380     1.0000 0.59500  0.61000  0.50000  Biso   1.000  C
  C381     1.0000 0.92300  0.55330  0.00000  Biso   1.000  C
  H143     1.0000 0.90270  0.50800  0.00000  Biso   1.000  H
  C382     1.0000 0.90500  0.89000  0.00000  Biso   1.000  C
  C383     1.0000 0.42300  0.05330  0.50000  Biso   1.000  C
  H144     1.0000 0.40270  0.00800  0.50000  Biso   1.000  H
  C384     1.0000 0.40500  0.39000  0.50000  Biso   1.000  C
  H145     1.0000 0.50000  0.08480  0.92650  Biso   1.000  H
  H146     1.0000 0.00000  0.58480  0.42650  Biso   1.000  H
  H147     1.0000 0.50000  0.91520  0.92650  Biso   1.000  H
  H148     1.0000 0.00000  0.41520  0.42650  Biso   1.000  H
  H149     1.0000 0.91520  0.50000  0.92650  Biso   1.000  H
  H150     1.0000 0.41520  0.00000  0.42650  Biso   1.000  H
  H151     1.0000 0.08480  0.50000  0.92650  Biso   1.000  H
  H152     1.0000 0.58480  0.00000  0.42650  Biso   1.000  H
  H153     1.0000 0.50000  0.08480  0.07350  Biso   1.000  H
  H154     1.0000 0.00000  0.58480  0.57350  Biso   1.000  H
  H155     1.0000 0.50000  0.91520  0.07350  Biso   1.000  H
  H156     1.0000 0.00000  0.41520  0.57350  Biso   1.000  H
  H157     1.0000 0.08480  0.50000  0.07350  Biso   1.000  H
  H158     1.0000 0.58480  0.00000  0.57350  Biso   1.000  H
  H159     1.0000 0.91520  0.50000  0.07350  Biso   1.000  H
  H160     1.0000 0.41520  0.00000  0.57350  Biso   1.000  H
  C385     1.0000 0.28180  0.00000  0.90380  Biso   1.000  C
  C386     1.0000 0.27960  0.00000  0.86190  Biso   1.000  C
  C387     1.0000 0.26170  0.00000  0.78412  Biso   1.000  C
  H161     1.0000 0.25160  0.00000  0.75870  Biso   1.000  H
  C388     1.0000 0.78180  0.50000  0.40380  Biso   1.000  C
  C389     1.0000 0.77960  0.50000  0.36190  Biso   1.000  C
  C390     1.0000 0.76170  0.50000  0.28412  Biso   1.000  C
  H162     1.0000 0.75160  0.50000  0.25870  Biso   1.000  H
  C391     1.0000 0.71820  0.00000  0.90380  Biso   1.000  C
  C392     1.0000 0.72040  0.00000  0.86190  Biso   1.000  C
  C393     1.0000 0.73830  0.00000  0.78412  Biso   1.000  C
  H163     1.0000 0.74840  0.00000  0.75870  Biso   1.000  H
  C394     1.0000 0.21820  0.50000  0.40380  Biso   1.000  C
  C395     1.0000 0.22040  0.50000  0.36190  Biso   1.000  C
  C396     1.0000 0.23830  0.50000  0.28412  Biso   1.000  C
  H164     1.0000 0.24840  0.50000  0.25870  Biso   1.000  H
  C397     1.0000 0.00000  0.28180  0.90380  Biso   1.000  C
  C398     1.0000 0.00000  0.27960  0.86190  Biso   1.000  C
  C399     1.0000 0.00000  0.26170  0.78412  Biso   1.000  C
  H165     1.0000 0.00000  0.25160  0.75870  Biso   1.000  H
  C400     1.0000 0.50000  0.78180  0.40380  Biso   1.000  C
  C401     1.0000 0.50000  0.77960  0.36190  Biso   1.000  C
  C402     1.0000 0.50000  0.76170  0.28412  Biso   1.000  C
  H166     1.0000 0.50000  0.75160  0.25870  Biso   1.000  H
  C403     1.0000 0.00000  0.71820  0.90380  Biso   1.000  C
  C404     1.0000 0.00000  0.72040  0.86190  Biso   1.000  C
  C405     1.0000 0.00000  0.73830  0.78412  Biso   1.000  C
  H167     1.0000 0.00000  0.74840  0.75870  Biso   1.000  H
  C406     1.0000 0.50000  0.21820  0.40380  Biso   1.000  C
  C407     1.0000 0.50000  0.22040  0.36190  Biso   1.000  C
  C408     1.0000 0.50000  0.23830  0.28412  Biso   1.000  C
  H168     1.0000 0.50000  0.24840  0.25870  Biso   1.000  H
  C409     1.0000 0.71820  0.00000  0.09620  Biso   1.000  C
  C410     1.0000 0.72040  0.00000  0.13810  Biso   1.000  C
  C411     1.0000 0.73830  0.00000  0.21588  Biso   1.000  C
  H169     1.0000 0.74840  0.00000  0.24130  Biso   1.000  H
  C412     1.0000 0.21820  0.50000  0.59620  Biso   1.000  C
  C413     1.0000 0.22040  0.50000  0.63810  Biso   1.000  C
  C414     1.0000 0.23830  0.50000  0.71588  Biso   1.000  C
  H170     1.0000 0.24840  0.50000  0.74130  Biso   1.000  H
  C415     1.0000 0.28180  0.00000  0.09620  Biso   1.000  C
  C416     1.0000 0.27960  0.00000  0.13810  Biso   1.000  C
  C417     1.0000 0.26170  0.00000  0.21588  Biso   1.000  C
  H171     1.0000 0.25160  0.00000  0.24130  Biso   1.000  H
  C418     1.0000 0.78180  0.50000  0.59620  Biso   1.000  C
  C419     1.0000 0.77960  0.50000  0.63810  Biso   1.000  C
  C420     1.0000 0.76170  0.50000  0.71588  Biso   1.000  C
  H172     1.0000 0.75160  0.50000  0.74130  Biso   1.000  H
  C421     1.0000 0.00000  0.28180  0.09620  Biso   1.000  C
  C422     1.0000 0.00000  0.27960  0.13810  Biso   1.000  C
  C423     1.0000 0.00000  0.26170  0.21588  Biso   1.000  C
  H173     1.0000 0.00000  0.25160  0.24130  Biso   1.000  H
  C424     1.0000 0.50000  0.78180  0.59620  Biso   1.000  C
  C425     1.0000 0.50000  0.77960  0.63810  Biso   1.000  C
  C426     1.0000 0.50000  0.76170  0.71588  Biso   1.000  C
  H174     1.0000 0.50000  0.75160  0.74130  Biso   1.000  H
  C427     1.0000 0.00000  0.71820  0.09620  Biso   1.000  C
  C428     1.0000 0.00000  0.72040  0.13810  Biso   1.000  C
  C429     1.0000 0.00000  0.73830  0.21588  Biso   1.000  C
  H175     1.0000 0.00000  0.74840  0.24130  Biso   1.000  H
  C430     1.0000 0.50000  0.21820  0.59620  Biso   1.000  C
  C431     1.0000 0.50000  0.22040  0.63810  Biso   1.000  C
  C432     1.0000 0.50000  0.23830  0.71588  Biso   1.000  C
  H176     1.0000 0.50000  0.24840  0.74130  Biso   1.000  H
  Cu1      1.0000 0.28238  0.28238  0.77844  Biso   1.000  Cu
  Cu2      1.0000 0.78238  0.78238  0.27844  Biso   1.000  Cu
  Cu3      1.0000 0.71762  0.71762  0.77844  Biso   1.000  Cu
  Cu4      1.0000 0.21762  0.21762  0.27844  Biso   1.000  Cu
  Cu5      1.0000 0.71762  0.28238  0.77844  Biso   1.000  Cu
  Cu6      1.0000 0.21762  0.78238  0.27844  Biso   1.000  Cu
  Cu7      1.0000 0.28238  0.71762  0.77844  Biso   1.000  Cu
  Cu8      1.0000 0.78238  0.21762  0.27844  Biso   1.000  Cu
  Cu9      1.0000 0.71762  0.28238  0.22156  Biso   1.000  Cu
  Cu10     1.0000 0.21762  0.78238  0.72156  Biso   1.000  Cu
  Cu11     1.0000 0.28238  0.71762  0.22156  Biso   1.000  Cu
  Cu12     1.0000 0.78238  0.21762  0.72156  Biso   1.000  Cu
  Cu13     1.0000 0.28238  0.28238  0.22156  Biso   1.000  Cu
  Cu14     1.0000 0.78238  0.78238  0.72156  Biso   1.000  Cu
  Cu15     1.0000 0.71762  0.71762  0.22156  Biso   1.000  Cu
  Cu16     1.0000 0.21762  0.21762  0.72156  Biso   1.000  Cu
