data_image0
_cell_length_a       21.501
_cell_length_b       26.51
_cell_length_c       30.067
_cell_angle_alpha    90
_cell_angle_beta     90
_cell_angle_gamma    90

_symmetry_space_group_name_H-M    "P 1"
_symmetry_int_tables_number       1

loop_
  _symmetry_equiv_pos_as_xyz
  'x, y, z'

loop_
  _atom_site_label
  _atom_site_occupancy
  _atom_site_fract_x
  _atom_site_fract_y
  _atom_site_fract_z
  _atom_site_thermal_displace_type
  _atom_site_B_iso_or_equiv
  _atom_site_type_symbol
  O1       1.0000 0.91940  0.96850  0.04330  Biso   1.000  O
  O2       1.0000 0.00200  0.92920  0.06240  Biso   1.000  O
  O3       1.0000 0.82470  0.76790  0.19570  Biso   1.000  O
  O4       1.0000 0.76130  0.82940  0.20810  Biso   1.000  O
  C1       1.0000 0.90520  0.90570  0.09550  Biso   1.000  C
  C2       1.0000 0.84520  0.91650  0.10510  Biso   1.000  C
  C3       1.0000 0.81240  0.88620  0.13680  Biso   1.000  C
  C4       1.0000 0.83900  0.84510  0.15430  Biso   1.000  C
  C5       1.0000 0.90000  0.83260  0.14370  Biso   1.000  C
  H1       1.0000 0.91910  0.80370  0.15630  Biso   1.000  H
  C6       1.0000 0.93270  0.86330  0.11390  Biso   1.000  C
  H2       1.0000 0.97430  0.85500  0.10620  Biso   1.000  H
  C7       1.0000 0.94900  0.93530  0.06490  Biso   1.000  C
  C8       1.0000 0.80830  0.81090  0.18670  Biso   1.000  C
  N1       1.0000 0.81170  0.95830  0.09160  Biso   1.000  N
  H3       1.0000 0.76730  0.97040  0.10210  Biso   1.000  H
  H4       1.0000 0.82290  0.98630  0.07200  Biso   1.000  H
  H5       1.0000 0.76520  0.90000  0.14530  Biso   1.000  H
  N2       1.0000 0.75070  0.90040  0.13870  Biso   1.000  N
  H6       1.0000 0.73800  0.92650  0.12180  Biso   1.000  H
  H7       1.0000 0.72360  0.88460  0.15670  Biso   1.000  H
  H8       1.0000 0.82100  0.94370  0.08890  Biso   1.000  H
  O5       1.0000 0.91940  0.46850  0.54330  Biso   1.000  O
  O6       1.0000 0.00200  0.42920  0.56240  Biso   1.000  O
  O7       1.0000 0.82470  0.26790  0.69570  Biso   1.000  O
  O8       1.0000 0.76130  0.32940  0.70810  Biso   1.000  O
  C9       1.0000 0.90520  0.40570  0.59550  Biso   1.000  C
  C10      1.0000 0.84520  0.41650  0.60510  Biso   1.000  C
  C11      1.0000 0.81240  0.38620  0.63680  Biso   1.000  C
  C12      1.0000 0.83900  0.34510  0.65430  Biso   1.000  C
  C13      1.0000 0.90000  0.33260  0.64370  Biso   1.000  C
  H9       1.0000 0.91910  0.30370  0.65630  Biso   1.000  H
  C14      1.0000 0.93270  0.36330  0.61390  Biso   1.000  C
  H10      1.0000 0.97430  0.35500  0.60620  Biso   1.000  H
  C15      1.0000 0.94900  0.43530  0.56490  Biso   1.000  C
  C16      1.0000 0.80830  0.31090  0.68670  Biso   1.000  C
  N3       1.0000 0.81170  0.45830  0.59160  Biso   1.000  N
  H11      1.0000 0.76730  0.47040  0.60210  Biso   1.000  H
  H12      1.0000 0.82290  0.48630  0.57200  Biso   1.000  H
  H13      1.0000 0.76520  0.40000  0.64530  Biso   1.000  H
  N4       1.0000 0.75070  0.40040  0.63870  Biso   1.000  N
  H14      1.0000 0.73800  0.42650  0.62180  Biso   1.000  H
  H15      1.0000 0.72360  0.38460  0.65670  Biso   1.000  H
  H16      1.0000 0.82100  0.44370  0.58890  Biso   1.000  H
  O9       1.0000 0.41940  0.96850  0.54330  Biso   1.000  O
  O10      1.0000 0.50200  0.92920  0.56240  Biso   1.000  O
  O11      1.0000 0.32470  0.76790  0.69570  Biso   1.000  O
  O12      1.0000 0.26130  0.82940  0.70810  Biso   1.000  O
  C17      1.0000 0.40520  0.90570  0.59550  Biso   1.000  C
  C18      1.0000 0.34520  0.91650  0.60510  Biso   1.000  C
  C19      1.0000 0.31240  0.88620  0.63680  Biso   1.000  C
  C20      1.0000 0.33900  0.84510  0.65430  Biso   1.000  C
  C21      1.0000 0.40000  0.83260  0.64370  Biso   1.000  C
  H17      1.0000 0.41910  0.80370  0.65630  Biso   1.000  H
  C22      1.0000 0.43270  0.86330  0.61390  Biso   1.000  C
  H18      1.0000 0.47430  0.85500  0.60620  Biso   1.000  H
  C23      1.0000 0.44900  0.93530  0.56490  Biso   1.000  C
  C24      1.0000 0.30830  0.81090  0.68670  Biso   1.000  C
  N5       1.0000 0.31170  0.95830  0.59160  Biso   1.000  N
  H19      1.0000 0.26730  0.97040  0.60210  Biso   1.000  H
  H20      1.0000 0.32290  0.98630  0.57200  Biso   1.000  H
  H21      1.0000 0.26520  0.90000  0.64530  Biso   1.000  H
  N6       1.0000 0.25070  0.90040  0.63870  Biso   1.000  N
  H22      1.0000 0.23800  0.92650  0.62180  Biso   1.000  H
  H23      1.0000 0.22360  0.88460  0.65670  Biso   1.000  H
  H24      1.0000 0.32100  0.94370  0.58890  Biso   1.000  H
  O13      1.0000 0.41940  0.46850  0.04330  Biso   1.000  O
  O14      1.0000 0.50200  0.42920  0.06240  Biso   1.000  O
  O15      1.0000 0.32470  0.26790  0.19570  Biso   1.000  O
  O16      1.0000 0.26130  0.32940  0.20810  Biso   1.000  O
  C25      1.0000 0.40520  0.40570  0.09550  Biso   1.000  C
  C26      1.0000 0.34520  0.41650  0.10510  Biso   1.000  C
  C27      1.0000 0.31240  0.38620  0.13680  Biso   1.000  C
  C28      1.0000 0.33900  0.34510  0.15430  Biso   1.000  C
  C29      1.0000 0.40000  0.33260  0.14370  Biso   1.000  C
  H25      1.0000 0.41910  0.30370  0.15630  Biso   1.000  H
  C30      1.0000 0.43270  0.36330  0.11390  Biso   1.000  C
  H26      1.0000 0.47430  0.35500  0.10620  Biso   1.000  H
  C31      1.0000 0.44900  0.43530  0.06490  Biso   1.000  C
  C32      1.0000 0.30830  0.31090  0.18670  Biso   1.000  C
  N7       1.0000 0.31170  0.45830  0.09160  Biso   1.000  N
  H27      1.0000 0.26730  0.47040  0.10210  Biso   1.000  H
  H28      1.0000 0.32290  0.48630  0.07200  Biso   1.000  H
  H29      1.0000 0.26520  0.40000  0.14530  Biso   1.000  H
  N8       1.0000 0.25070  0.40040  0.13870  Biso   1.000  N
  H30      1.0000 0.23800  0.42650  0.12180  Biso   1.000  H
  H31      1.0000 0.22360  0.38460  0.15670  Biso   1.000  H
  H32      1.0000 0.32100  0.44370  0.08890  Biso   1.000  H
  O17      1.0000 0.08060  0.03150  0.04330  Biso   1.000  O
  O18      1.0000 0.99800  0.07080  0.06240  Biso   1.000  O
  O19      1.0000 0.17530  0.23210  0.19570  Biso   1.000  O
  O20      1.0000 0.23870  0.17060  0.20810  Biso   1.000  O
  C33      1.0000 0.09480  0.09430  0.09550  Biso   1.000  C
  C34      1.0000 0.15480  0.08350  0.10510  Biso   1.000  C
  C35      1.0000 0.18760  0.11380  0.13680  Biso   1.000  C
  C36      1.0000 0.16100  0.15490  0.15430  Biso   1.000  C
  C37      1.0000 0.10000  0.16740  0.14370  Biso   1.000  C
  H33      1.0000 0.08090  0.19630  0.15630  Biso   1.000  H
  C38      1.0000 0.06730  0.13670  0.11390  Biso   1.000  C
  H34      1.0000 0.02570  0.14500  0.10620  Biso   1.000  H
  C39      1.0000 0.05100  0.06470  0.06490  Biso   1.000  C
  C40      1.0000 0.19170  0.18910  0.18670  Biso   1.000  C
  N9       1.0000 0.18830  0.04170  0.09160  Biso   1.000  N
  H35      1.0000 0.23270  0.02960  0.10210  Biso   1.000  H
  H36      1.0000 0.17710  0.01370  0.07200  Biso   1.000  H
  H37      1.0000 0.23480  0.10000  0.14530  Biso   1.000  H
  N10      1.0000 0.24930  0.09960  0.13870  Biso   1.000  N
  H38      1.0000 0.26200  0.07350  0.12180  Biso   1.000  H
  H39      1.0000 0.27640  0.11540  0.15670  Biso   1.000  H
  H40      1.0000 0.17900  0.05630  0.08890  Biso   1.000  H
  O21      1.0000 0.08060  0.53150  0.54330  Biso   1.000  O
  O22      1.0000 0.99800  0.57080  0.56240  Biso   1.000  O
  O23      1.0000 0.17530  0.73210  0.69570  Biso   1.000  O
  O24      1.0000 0.23870  0.67060  0.70810  Biso   1.000  O
  C41      1.0000 0.09480  0.59430  0.59550  Biso   1.000  C
  C42      1.0000 0.15480  0.58350  0.60510  Biso   1.000  C
  C43      1.0000 0.18760  0.61380  0.63680  Biso   1.000  C
  C44      1.0000 0.16100  0.65490  0.65430  Biso   1.000  C
  C45      1.0000 0.10000  0.66740  0.64370  Biso   1.000  C
  H41      1.0000 0.08090  0.69630  0.65630  Biso   1.000  H
  C46      1.0000 0.06730  0.63670  0.61390  Biso   1.000  C
  H42      1.0000 0.02570  0.64500  0.60620  Biso   1.000  H
  C47      1.0000 0.05100  0.56470  0.56490  Biso   1.000  C
  C48      1.0000 0.19170  0.68910  0.68670  Biso   1.000  C
  N11      1.0000 0.18830  0.54170  0.59160  Biso   1.000  N
  H43      1.0000 0.23270  0.52960  0.60210  Biso   1.000  H
  H44      1.0000 0.17710  0.51370  0.57200  Biso   1.000  H
  H45      1.0000 0.23480  0.60000  0.64530  Biso   1.000  H
  N12      1.0000 0.24930  0.59960  0.63870  Biso   1.000  N
  H46      1.0000 0.26200  0.57350  0.62180  Biso   1.000  H
  H47      1.0000 0.27640  0.61540  0.65670  Biso   1.000  H
  H48      1.0000 0.17900  0.55630  0.58890  Biso   1.000  H
  O25      1.0000 0.58060  0.03150  0.54330  Biso   1.000  O
  O26      1.0000 0.49800  0.07080  0.56240  Biso   1.000  O
  O27      1.0000 0.67530  0.23210  0.69570  Biso   1.000  O
  O28      1.0000 0.73870  0.17060  0.70810  Biso   1.000  O
  C49      1.0000 0.59480  0.09430  0.59550  Biso   1.000  C
  C50      1.0000 0.65480  0.08350  0.60510  Biso   1.000  C
  C51      1.0000 0.68760  0.11380  0.63680  Biso   1.000  C
  C52      1.0000 0.66100  0.15490  0.65430  Biso   1.000  C
  C53      1.0000 0.60000  0.16740  0.64370  Biso   1.000  C
  H49      1.0000 0.58090  0.19630  0.65630  Biso   1.000  H
  C54      1.0000 0.56730  0.13670  0.61390  Biso   1.000  C
  H50      1.0000 0.52570  0.14500  0.60620  Biso   1.000  H
  C55      1.0000 0.55100  0.06470  0.56490  Biso   1.000  C
  C56      1.0000 0.69170  0.18910  0.68670  Biso   1.000  C
  N13      1.0000 0.68830  0.04170  0.59160  Biso   1.000  N
  H51      1.0000 0.73270  0.02960  0.60210  Biso   1.000  H
  H52      1.0000 0.67710  0.01370  0.57200  Biso   1.000  H
  H53      1.0000 0.73480  0.10000  0.64530  Biso   1.000  H
  N14      1.0000 0.74930  0.09960  0.63870  Biso   1.000  N
  H54      1.0000 0.76200  0.07350  0.62180  Biso   1.000  H
  H55      1.0000 0.77640  0.11540  0.65670  Biso   1.000  H
  H56      1.0000 0.67900  0.05630  0.58890  Biso   1.000  H
  O29      1.0000 0.58060  0.53150  0.04330  Biso   1.000  O
  O30      1.0000 0.49800  0.57080  0.06240  Biso   1.000  O
  O31      1.0000 0.67530  0.73210  0.19570  Biso   1.000  O
  O32      1.0000 0.73870  0.67060  0.20810  Biso   1.000  O
  C57      1.0000 0.59480  0.59430  0.09550  Biso   1.000  C
  C58      1.0000 0.65480  0.58350  0.10510  Biso   1.000  C
  C59      1.0000 0.68760  0.61380  0.13680  Biso   1.000  C
  C60      1.0000 0.66100  0.65490  0.15430  Biso   1.000  C
  C61      1.0000 0.60000  0.66740  0.14370  Biso   1.000  C
  H57      1.0000 0.58090  0.69630  0.15630  Biso   1.000  H
  C62      1.0000 0.56730  0.63670  0.11390  Biso   1.000  C
  H58      1.0000 0.52570  0.64500  0.10620  Biso   1.000  H
  C63      1.0000 0.55100  0.56470  0.06490  Biso   1.000  C
  C64      1.0000 0.69170  0.68910  0.18670  Biso   1.000  C
  N15      1.0000 0.68830  0.54170  0.09160  Biso   1.000  N
  H59      1.0000 0.73270  0.52960  0.10210  Biso   1.000  H
  H60      1.0000 0.67710  0.51370  0.07200  Biso   1.000  H
  H61      1.0000 0.73480  0.60000  0.14530  Biso   1.000  H
  N16      1.0000 0.74930  0.59960  0.13870  Biso   1.000  N
  H62      1.0000 0.76200  0.57350  0.12180  Biso   1.000  H
  H63      1.0000 0.77640  0.61540  0.15670  Biso   1.000  H
  H64      1.0000 0.67900  0.55630  0.08890  Biso   1.000  H
  O33      1.0000 0.16940  0.28150  0.29330  Biso   1.000  O
  O34      1.0000 0.25200  0.32080  0.31240  Biso   1.000  O
  O35      1.0000 0.07470  0.48210  0.44570  Biso   1.000  O
  O36      1.0000 0.01130  0.42060  0.45810  Biso   1.000  O
  C65      1.0000 0.15520  0.34430  0.34550  Biso   1.000  C
  C66      1.0000 0.09520  0.33350  0.35510  Biso   1.000  C
  C67      1.0000 0.06240  0.36380  0.38680  Biso   1.000  C
  C68      1.0000 0.08900  0.40490  0.40430  Biso   1.000  C
  C69      1.0000 0.15000  0.41740  0.39370  Biso   1.000  C
  H65      1.0000 0.16910  0.44630  0.40630  Biso   1.000  H
  C70      1.0000 0.18270  0.38670  0.36390  Biso   1.000  C
  H66      1.0000 0.22430  0.39500  0.35620  Biso   1.000  H
  C71      1.0000 0.19900  0.31470  0.31490  Biso   1.000  C
  C72      1.0000 0.05830  0.43910  0.43670  Biso   1.000  C
  N17      1.0000 0.06170  0.29170  0.34160  Biso   1.000  N
  H67      1.0000 0.01730  0.27960  0.35210  Biso   1.000  H
  H68      1.0000 0.07290  0.26370  0.32200  Biso   1.000  H
  H69      1.0000 0.01520  0.35000  0.39530  Biso   1.000  H
  N18      1.0000 0.00070  0.34960  0.38870  Biso   1.000  N
  H70      1.0000 0.98800  0.32350  0.37180  Biso   1.000  H
  H71      1.0000 0.97360  0.36540  0.40670  Biso   1.000  H
  H72      1.0000 0.07100  0.30630  0.33890  Biso   1.000  H
  O37      1.0000 0.16940  0.78150  0.79330  Biso   1.000  O
  O38      1.0000 0.25200  0.82080  0.81240  Biso   1.000  O
  O39      1.0000 0.07470  0.98210  0.94570  Biso   1.000  O
  O40      1.0000 0.01130  0.92060  0.95810  Biso   1.000  O
  C73      1.0000 0.15520  0.84430  0.84550  Biso   1.000  C
  C74      1.0000 0.09520  0.83350  0.85510  Biso   1.000  C
  C75      1.0000 0.06240  0.86380  0.88680  Biso   1.000  C
  C76      1.0000 0.08900  0.90490  0.90430  Biso   1.000  C
  C77      1.0000 0.15000  0.91740  0.89370  Biso   1.000  C
  H73      1.0000 0.16910  0.94630  0.90630  Biso   1.000  H
  C78      1.0000 0.18270  0.88670  0.86390  Biso   1.000  C
  H74      1.0000 0.22430  0.89500  0.85620  Biso   1.000  H
  C79      1.0000 0.19900  0.81470  0.81490  Biso   1.000  C
  C80      1.0000 0.05830  0.93910  0.93670  Biso   1.000  C
  N19      1.0000 0.06170  0.79170  0.84160  Biso   1.000  N
  H75      1.0000 0.01730  0.77960  0.85210  Biso   1.000  H
  H76      1.0000 0.07290  0.76370  0.82200  Biso   1.000  H
  H77      1.0000 0.01520  0.85000  0.89530  Biso   1.000  H
  N20      1.0000 0.00070  0.84960  0.88870  Biso   1.000  N
  H78      1.0000 0.98800  0.82350  0.87180  Biso   1.000  H
  H79      1.0000 0.97360  0.86540  0.90670  Biso   1.000  H
  H80      1.0000 0.07100  0.80630  0.83890  Biso   1.000  H
  O41      1.0000 0.66940  0.28150  0.79330  Biso   1.000  O
  O42      1.0000 0.75200  0.32080  0.81240  Biso   1.000  O
  O43      1.0000 0.57470  0.48210  0.94570  Biso   1.000  O
  O44      1.0000 0.51130  0.42060  0.95810  Biso   1.000  O
  C81      1.0000 0.65520  0.34430  0.84550  Biso   1.000  C
  C82      1.0000 0.59520  0.33350  0.85510  Biso   1.000  C
  C83      1.0000 0.56240  0.36380  0.88680  Biso   1.000  C
  C84      1.0000 0.58900  0.40490  0.90430  Biso   1.000  C
  C85      1.0000 0.65000  0.41740  0.89370  Biso   1.000  C
  H81      1.0000 0.66910  0.44630  0.90630  Biso   1.000  H
  C86      1.0000 0.68270  0.38670  0.86390  Biso   1.000  C
  H82      1.0000 0.72430  0.39500  0.85620  Biso   1.000  H
  C87      1.0000 0.69900  0.31470  0.81490  Biso   1.000  C
  C88      1.0000 0.55830  0.43910  0.93670  Biso   1.000  C
  N21      1.0000 0.56170  0.29170  0.84160  Biso   1.000  N
  H83      1.0000 0.51730  0.27960  0.85210  Biso   1.000  H
  H84      1.0000 0.57290  0.26370  0.82200  Biso   1.000  H
  H85      1.0000 0.51520  0.35000  0.89530  Biso   1.000  H
  N22      1.0000 0.50070  0.34960  0.88870  Biso   1.000  N
  H86      1.0000 0.48800  0.32350  0.87180  Biso   1.000  H
  H87      1.0000 0.47360  0.36540  0.90670  Biso   1.000  H
  H88      1.0000 0.57100  0.30630  0.83890  Biso   1.000  H
  O45      1.0000 0.66940  0.78150  0.29330  Biso   1.000  O
  O46      1.0000 0.75200  0.82080  0.31240  Biso   1.000  O
  O47      1.0000 0.57470  0.98210  0.44570  Biso   1.000  O
  O48      1.0000 0.51130  0.92060  0.45810  Biso   1.000  O
  C89      1.0000 0.65520  0.84430  0.34550  Biso   1.000  C
  C90      1.0000 0.59520  0.83350  0.35510  Biso   1.000  C
  C91      1.0000 0.56240  0.86380  0.38680  Biso   1.000  C
  C92      1.0000 0.58900  0.90490  0.40430  Biso   1.000  C
  C93      1.0000 0.65000  0.91740  0.39370  Biso   1.000  C
  H89      1.0000 0.66910  0.94630  0.40630  Biso   1.000  H
  C94      1.0000 0.68270  0.88670  0.36390  Biso   1.000  C
  H90      1.0000 0.72430  0.89500  0.35620  Biso   1.000  H
  C95      1.0000 0.69900  0.81470  0.31490  Biso   1.000  C
  C96      1.0000 0.55830  0.93910  0.43670  Biso   1.000  C
  N23      1.0000 0.56170  0.79170  0.34160  Biso   1.000  N
  H91      1.0000 0.51730  0.77960  0.35210  Biso   1.000  H
  H92      1.0000 0.57290  0.76370  0.32200  Biso   1.000  H
  H93      1.0000 0.51520  0.85000  0.39530  Biso   1.000  H
  N24      1.0000 0.50070  0.84960  0.38870  Biso   1.000  N
  H94      1.0000 0.48800  0.82350  0.37180  Biso   1.000  H
  H95      1.0000 0.47360  0.86540  0.40670  Biso   1.000  H
  H96      1.0000 0.57100  0.80630  0.33890  Biso   1.000  H
  O49      1.0000 0.33060  0.21850  0.29330  Biso   1.000  O
  O50      1.0000 0.24800  0.17920  0.31240  Biso   1.000  O
  O51      1.0000 0.42530  0.01790  0.44570  Biso   1.000  O
  O52      1.0000 0.48870  0.07940  0.45810  Biso   1.000  O
  C97      1.0000 0.34480  0.15570  0.34550  Biso   1.000  C
  C98      1.0000 0.40480  0.16650  0.35510  Biso   1.000  C
  C99      1.0000 0.43760  0.13620  0.38680  Biso   1.000  C
  C100     1.0000 0.41100  0.09510  0.40430  Biso   1.000  C
  C101     1.0000 0.35000  0.08260  0.39370  Biso   1.000  C
  H97      1.0000 0.33090  0.05370  0.40630  Biso   1.000  H
  C102     1.0000 0.31730  0.11330  0.36390  Biso   1.000  C
  H98      1.0000 0.27570  0.10500  0.35620  Biso   1.000  H
  C103     1.0000 0.30100  0.18530  0.31490  Biso   1.000  C
  C104     1.0000 0.44170  0.06090  0.43670  Biso   1.000  C
  N25      1.0000 0.43830  0.20830  0.34160  Biso   1.000  N
  H99      1.0000 0.48270  0.22040  0.35210  Biso   1.000  H
  H100     1.0000 0.42710  0.23630  0.32200  Biso   1.000  H
  H101     1.0000 0.48480  0.15000  0.39530  Biso   1.000  H
  N26      1.0000 0.49930  0.15040  0.38870  Biso   1.000  N
  H102     1.0000 0.51200  0.17650  0.37180  Biso   1.000  H
  H103     1.0000 0.52640  0.13460  0.40670  Biso   1.000  H
  H104     1.0000 0.42900  0.19370  0.33890  Biso   1.000  H
  O53      1.0000 0.33060  0.71850  0.79330  Biso   1.000  O
  O54      1.0000 0.24800  0.67920  0.81240  Biso   1.000  O
  O55      1.0000 0.42530  0.51790  0.94570  Biso   1.000  O
  O56      1.0000 0.48870  0.57940  0.95810  Biso   1.000  O
  C105     1.0000 0.34480  0.65570  0.84550  Biso   1.000  C
  C106     1.0000 0.40480  0.66650  0.85510  Biso   1.000  C
  C107     1.0000 0.43760  0.63620  0.88680  Biso   1.000  C
  C108     1.0000 0.41100  0.59510  0.90430  Biso   1.000  C
  C109     1.0000 0.35000  0.58260  0.89370  Biso   1.000  C
  H105     1.0000 0.33090  0.55370  0.90630  Biso   1.000  H
  C110     1.0000 0.31730  0.61330  0.86390  Biso   1.000  C
  H106     1.0000 0.27570  0.60500  0.85620  Biso   1.000  H
  C111     1.0000 0.30100  0.68530  0.81490  Biso   1.000  C
  C112     1.0000 0.44170  0.56090  0.93670  Biso   1.000  C
  N27      1.0000 0.43830  0.70830  0.84160  Biso   1.000  N
  H107     1.0000 0.48270  0.72040  0.85210  Biso   1.000  H
  H108     1.0000 0.42710  0.73630  0.82200  Biso   1.000  H
  H109     1.0000 0.48480  0.65000  0.89530  Biso   1.000  H
  N28      1.0000 0.49930  0.65040  0.88870  Biso   1.000  N
  H110     1.0000 0.51200  0.67650  0.87180  Biso   1.000  H
  H111     1.0000 0.52640  0.63460  0.90670  Biso   1.000  H
  H112     1.0000 0.42900  0.69370  0.83890  Biso   1.000  H
  O57      1.0000 0.83060  0.21850  0.79330  Biso   1.000  O
  O58      1.0000 0.74800  0.17920  0.81240  Biso   1.000  O
  O59      1.0000 0.92530  0.01790  0.94570  Biso   1.000  O
  O60      1.0000 0.98870  0.07940  0.95810  Biso   1.000  O
  C113     1.0000 0.84480  0.15570  0.84550  Biso   1.000  C
  C114     1.0000 0.90480  0.16650  0.85510  Biso   1.000  C
  C115     1.0000 0.93760  0.13620  0.88680  Biso   1.000  C
  C116     1.0000 0.91100  0.09510  0.90430  Biso   1.000  C
  C117     1.0000 0.85000  0.08260  0.89370  Biso   1.000  C
  H113     1.0000 0.83090  0.05370  0.90630  Biso   1.000  H
  C118     1.0000 0.81730  0.11330  0.86390  Biso   1.000  C
  H114     1.0000 0.77570  0.10500  0.85620  Biso   1.000  H
  C119     1.0000 0.80100  0.18530  0.81490  Biso   1.000  C
  C120     1.0000 0.94170  0.06090  0.93670  Biso   1.000  C
  N29      1.0000 0.93830  0.20830  0.84160  Biso   1.000  N
  H115     1.0000 0.98270  0.22040  0.85210  Biso   1.000  H
  H116     1.0000 0.92710  0.23630  0.82200  Biso   1.000  H
  H117     1.0000 0.98480  0.15000  0.89530  Biso   1.000  H
  N30      1.0000 0.99930  0.15040  0.88870  Biso   1.000  N
  H118     1.0000 0.01200  0.17650  0.87180  Biso   1.000  H
  H119     1.0000 0.02640  0.13460  0.90670  Biso   1.000  H
  H120     1.0000 0.92900  0.19370  0.83890  Biso   1.000  H
  O61      1.0000 0.83060  0.71850  0.29330  Biso   1.000  O
  O62      1.0000 0.74800  0.67920  0.31240  Biso   1.000  O
  O63      1.0000 0.92530  0.51790  0.44570  Biso   1.000  O
  O64      1.0000 0.98870  0.57940  0.45810  Biso   1.000  O
  C121     1.0000 0.84480  0.65570  0.34550  Biso   1.000  C
  C122     1.0000 0.90480  0.66650  0.35510  Biso   1.000  C
  C123     1.0000 0.93760  0.63620  0.38680  Biso   1.000  C
  C124     1.0000 0.91100  0.59510  0.40430  Biso   1.000  C
  C125     1.0000 0.85000  0.58260  0.39370  Biso   1.000  C
  H121     1.0000 0.83090  0.55370  0.40630  Biso   1.000  H
  C126     1.0000 0.81730  0.61330  0.36390  Biso   1.000  C
  H122     1.0000 0.77570  0.60500  0.35620  Biso   1.000  H
  C127     1.0000 0.80100  0.68530  0.31490  Biso   1.000  C
  C128     1.0000 0.94170  0.56090  0.43670  Biso   1.000  C
  N31      1.0000 0.93830  0.70830  0.34160  Biso   1.000  N
  H123     1.0000 0.98270  0.72040  0.35210  Biso   1.000  H
  H124     1.0000 0.92710  0.73630  0.32200  Biso   1.000  H
  H125     1.0000 0.98480  0.65000  0.39530  Biso   1.000  H
  N32      1.0000 0.99930  0.65040  0.38870  Biso   1.000  N
  H126     1.0000 0.01200  0.67650  0.37180  Biso   1.000  H
  H127     1.0000 0.02640  0.63460  0.40670  Biso   1.000  H
  H128     1.0000 0.92900  0.69370  0.33890  Biso   1.000  H
  Cd1      1.0000 0.00000  0.00000  0.00222  Biso   1.000  Cd
  Cd2      1.0000 0.00000  0.50000  0.50222  Biso   1.000  Cd
  Cd3      1.0000 0.50000  0.00000  0.50222  Biso   1.000  Cd
  Cd4      1.0000 0.50000  0.50000  0.00222  Biso   1.000  Cd
  Cd5      1.0000 0.25000  0.25000  0.25222  Biso   1.000  Cd
  Cd6      1.0000 0.25000  0.75000  0.75222  Biso   1.000  Cd
  Cd7      1.0000 0.75000  0.25000  0.75222  Biso   1.000  Cd
  Cd8      1.0000 0.75000  0.75000  0.25222  Biso   1.000  Cd
  Cd9      1.0000 0.41454  0.74939  0.14260  Biso   1.000  Cd
  O65      1.0000 0.50220  0.78070  0.10630  Biso   1.000  O
  O66      1.0000 0.41680  0.80100  0.07120  Biso   1.000  O
  O67      1.0000 0.67470  0.90830  0.94280  Biso   1.000  O
  O68      1.0000 0.59430  0.95730  0.93140  Biso   1.000  O
  O69      1.0000 0.41400  0.67280  0.08820  Biso   1.000  O
  O70      1.0000 0.32930  0.71120  0.11180  Biso   1.000  O
  O71      1.0000 0.23430  0.52310  0.94660  Biso   1.000  O
  O72      1.0000 0.16440  0.57770  0.95020  Biso   1.000  O
  C129     1.0000 0.51080  0.83400  0.04270  Biso   1.000  C
  C130     1.0000 0.48190  0.86590  0.01490  Biso   1.000  C
  H129     1.0000 0.43800  0.86950  0.01670  Biso   1.000  H
  C131     1.0000 0.51610  0.89480  0.98240  Biso   1.000  C
  C132     1.0000 0.57720  0.89000  0.98100  Biso   1.000  C
  C133     1.0000 0.60840  0.85780  0.01180  Biso   1.000  C
  H130     1.0000 0.65250  0.85640  0.01270  Biso   1.000  H
  C134     1.0000 0.57320  0.82910  0.04010  Biso   1.000  C
  H131     1.0000 0.59330  0.80490  0.05850  Biso   1.000  H
  C135     1.0000 0.47460  0.80400  0.07720  Biso   1.000  C
  C136     1.0000 0.61790  0.92290  0.94950  Biso   1.000  C
  C137     1.0000 0.31730  0.64720  0.05690  Biso   1.000  C
  C138     1.0000 0.25430  0.65820  0.04850  Biso   1.000  C
  C139     1.0000 0.22150  0.62780  0.01950  Biso   1.000  C
  H132     1.0000 0.17900  0.63530  0.01410  Biso   1.000  H
  C140     1.0000 0.24720  0.58800  0.99840  Biso   1.000  C
  C141     1.0000 0.31120  0.57500  0.00790  Biso   1.000  C
  H133     1.0000 0.33010  0.54620  0.99480  Biso   1.000  H
  C142     1.0000 0.34310  0.60480  0.03570  Biso   1.000  C
  C143     1.0000 0.35580  0.67920  0.08680  Biso   1.000  C
  C144     1.0000 0.21140  0.56200  0.96210  Biso   1.000  C
  N33      1.0000 0.48240  0.92430  0.95250  Biso   1.000  N
  H134     1.0000 0.50260  0.93860  0.93130  Biso   1.000  H
  H135     1.0000 0.44270  0.92760  0.95420  Biso   1.000  H
  N34      1.0000 0.22400  0.69890  0.06510  Biso   1.000  N
  H136     1.0000 0.17710  0.71120  0.05880  Biso   1.000  H
  H137     1.0000 0.23590  0.72450  0.08680  Biso   1.000  H
  H138     1.0000 0.37800  0.60320  0.04320  Biso   1.000  H
  N35      1.0000 0.40840  0.59790  0.04510  Biso   1.000  N
  H139     1.0000 0.41390  0.61210  0.07200  Biso   1.000  H
  H140     1.0000 0.42990  0.57010  0.03760  Biso   1.000  H
  H141     1.0000 0.23600  0.69090  0.05830  Biso   1.000  H
  Cd10     1.0000 0.41454  0.24939  0.64260  Biso   1.000  Cd
  O73      1.0000 0.50220  0.28070  0.60630  Biso   1.000  O
  O74      1.0000 0.41680  0.30100  0.57120  Biso   1.000  O
  O75      1.0000 0.67470  0.40830  0.44280  Biso   1.000  O
  O76      1.0000 0.59430  0.45730  0.43140  Biso   1.000  O
  O77      1.0000 0.41400  0.17280  0.58820  Biso   1.000  O
  O78      1.0000 0.32930  0.21120  0.61180  Biso   1.000  O
  O79      1.0000 0.23430  0.02310  0.44660  Biso   1.000  O
  O80      1.0000 0.16440  0.07770  0.45020  Biso   1.000  O
  C145     1.0000 0.51080  0.33400  0.54270  Biso   1.000  C
  C146     1.0000 0.48190  0.36590  0.51490  Biso   1.000  C
  H142     1.0000 0.43800  0.36950  0.51670  Biso   1.000  H
  C147     1.0000 0.51610  0.39480  0.48240  Biso   1.000  C
  C148     1.0000 0.57720  0.39000  0.48100  Biso   1.000  C
  C149     1.0000 0.60840  0.35780  0.51180  Biso   1.000  C
  H143     1.0000 0.65250  0.35640  0.51270  Biso   1.000  H
  C150     1.0000 0.57320  0.32910  0.54010  Biso   1.000  C
  H144     1.0000 0.59330  0.30490  0.55850  Biso   1.000  H
  C151     1.0000 0.47460  0.30400  0.57720  Biso   1.000  C
  C152     1.0000 0.61790  0.42290  0.44950  Biso   1.000  C
  C153     1.0000 0.31730  0.14720  0.55690  Biso   1.000  C
  C154     1.0000 0.25430  0.15820  0.54850  Biso   1.000  C
  C155     1.0000 0.22150  0.12780  0.51950  Biso   1.000  C
  H145     1.0000 0.17900  0.13530  0.51410  Biso   1.000  H
  C156     1.0000 0.24720  0.08800  0.49840  Biso   1.000  C
  C157     1.0000 0.31120  0.07500  0.50790  Biso   1.000  C
  H146     1.0000 0.33010  0.04620  0.49480  Biso   1.000  H
  C158     1.0000 0.34310  0.10480  0.53570  Biso   1.000  C
  C159     1.0000 0.35580  0.17920  0.58680  Biso   1.000  C
  C160     1.0000 0.21140  0.06200  0.46210  Biso   1.000  C
  N36      1.0000 0.48240  0.42430  0.45250  Biso   1.000  N
  H147     1.0000 0.50260  0.43860  0.43130  Biso   1.000  H
  H148     1.0000 0.44270  0.42760  0.45420  Biso   1.000  H
  N37      1.0000 0.22400  0.19890  0.56510  Biso   1.000  N
  H149     1.0000 0.17710  0.21120  0.55880  Biso   1.000  H
  H150     1.0000 0.23590  0.22450  0.58680  Biso   1.000  H
  H151     1.0000 0.37800  0.10320  0.54320  Biso   1.000  H
  N38      1.0000 0.40840  0.09790  0.54510  Biso   1.000  N
  H152     1.0000 0.41390  0.11210  0.57200  Biso   1.000  H
  H153     1.0000 0.42990  0.07010  0.53760  Biso   1.000  H
  H154     1.0000 0.23600  0.19090  0.55830  Biso   1.000  H
  Cd11     1.0000 0.91454  0.74939  0.64260  Biso   1.000  Cd
  O81      1.0000 0.00220  0.78070  0.60630  Biso   1.000  O
  O82      1.0000 0.91680  0.80100  0.57120  Biso   1.000  O
  O83      1.0000 0.17470  0.90830  0.44280  Biso   1.000  O
  O84      1.0000 0.09430  0.95730  0.43140  Biso   1.000  O
  O85      1.0000 0.91400  0.67280  0.58820  Biso   1.000  O
  O86      1.0000 0.82930  0.71120  0.61180  Biso   1.000  O
  O87      1.0000 0.73430  0.52310  0.44660  Biso   1.000  O
  O88      1.0000 0.66440  0.57770  0.45020  Biso   1.000  O
  C161     1.0000 0.01080  0.83400  0.54270  Biso   1.000  C
  C162     1.0000 0.98190  0.86590  0.51490  Biso   1.000  C
  H155     1.0000 0.93800  0.86950  0.51670  Biso   1.000  H
  C163     1.0000 0.01610  0.89480  0.48240  Biso   1.000  C
  C164     1.0000 0.07720  0.89000  0.48100  Biso   1.000  C
  C165     1.0000 0.10840  0.85780  0.51180  Biso   1.000  C
  H156     1.0000 0.15250  0.85640  0.51270  Biso   1.000  H
  C166     1.0000 0.07320  0.82910  0.54010  Biso   1.000  C
  H157     1.0000 0.09330  0.80490  0.55850  Biso   1.000  H
  C167     1.0000 0.97460  0.80400  0.57720  Biso   1.000  C
  C168     1.0000 0.11790  0.92290  0.44950  Biso   1.000  C
  C169     1.0000 0.81730  0.64720  0.55690  Biso   1.000  C
  C170     1.0000 0.75430  0.65820  0.54850  Biso   1.000  C
  C171     1.0000 0.72150  0.62780  0.51950  Biso   1.000  C
  H158     1.0000 0.67900  0.63530  0.51410  Biso   1.000  H
  C172     1.0000 0.74720  0.58800  0.49840  Biso   1.000  C
  C173     1.0000 0.81120  0.57500  0.50790  Biso   1.000  C
  H159     1.0000 0.83010  0.54620  0.49480  Biso   1.000  H
  C174     1.0000 0.84310  0.60480  0.53570  Biso   1.000  C
  C175     1.0000 0.85580  0.67920  0.58680  Biso   1.000  C
  C176     1.0000 0.71140  0.56200  0.46210  Biso   1.000  C
  N39      1.0000 0.98240  0.92430  0.45250  Biso   1.000  N
  H160     1.0000 0.00260  0.93860  0.43130  Biso   1.000  H
  H161     1.0000 0.94270  0.92760  0.45420  Biso   1.000  H
  N40      1.0000 0.72400  0.69890  0.56510  Biso   1.000  N
  H162     1.0000 0.67710  0.71120  0.55880  Biso   1.000  H
  H163     1.0000 0.73590  0.72450  0.58680  Biso   1.000  H
  H164     1.0000 0.87800  0.60320  0.54320  Biso   1.000  H
  N41      1.0000 0.90840  0.59790  0.54510  Biso   1.000  N
  H165     1.0000 0.91390  0.61210  0.57200  Biso   1.000  H
  H166     1.0000 0.92990  0.57010  0.53760  Biso   1.000  H
  H167     1.0000 0.73600  0.69090  0.55830  Biso   1.000  H
  Cd12     1.0000 0.91454  0.24939  0.14260  Biso   1.000  Cd
  O89      1.0000 0.00220  0.28070  0.10630  Biso   1.000  O
  O90      1.0000 0.91680  0.30100  0.07120  Biso   1.000  O
  O91      1.0000 0.17470  0.40830  0.94280  Biso   1.000  O
  O92      1.0000 0.09430  0.45730  0.93140  Biso   1.000  O
  O93      1.0000 0.91400  0.17280  0.08820  Biso   1.000  O
  O94      1.0000 0.82930  0.21120  0.11180  Biso   1.000  O
  O95      1.0000 0.73430  0.02310  0.94660  Biso   1.000  O
  O96      1.0000 0.66440  0.07770  0.95020  Biso   1.000  O
  C177     1.0000 0.01080  0.33400  0.04270  Biso   1.000  C
  C178     1.0000 0.98190  0.36590  0.01490  Biso   1.000  C
  H168     1.0000 0.93800  0.36950  0.01670  Biso   1.000  H
  C179     1.0000 0.01610  0.39480  0.98240  Biso   1.000  C
  C180     1.0000 0.07720  0.39000  0.98100  Biso   1.000  C
  C181     1.0000 0.10840  0.35780  0.01180  Biso   1.000  C
  H169     1.0000 0.15250  0.35640  0.01270  Biso   1.000  H
  C182     1.0000 0.07320  0.32910  0.04010  Biso   1.000  C
  H170     1.0000 0.09330  0.30490  0.05850  Biso   1.000  H
  C183     1.0000 0.97460  0.30400  0.07720  Biso   1.000  C
  C184     1.0000 0.11790  0.42290  0.94950  Biso   1.000  C
  C185     1.0000 0.81730  0.14720  0.05690  Biso   1.000  C
  C186     1.0000 0.75430  0.15820  0.04850  Biso   1.000  C
  C187     1.0000 0.72150  0.12780  0.01950  Biso   1.000  C
  H171     1.0000 0.67900  0.13530  0.01410  Biso   1.000  H
  C188     1.0000 0.74720  0.08800  0.99840  Biso   1.000  C
  C189     1.0000 0.81120  0.07500  0.00790  Biso   1.000  C
  H172     1.0000 0.83010  0.04620  0.99480  Biso   1.000  H
  C190     1.0000 0.84310  0.10480  0.03570  Biso   1.000  C
  C191     1.0000 0.85580  0.17920  0.08680  Biso   1.000  C
  C192     1.0000 0.71140  0.06200  0.96210  Biso   1.000  C
  N42      1.0000 0.98240  0.42430  0.95250  Biso   1.000  N
  H173     1.0000 0.00260  0.43860  0.93130  Biso   1.000  H
  H174     1.0000 0.94270  0.42760  0.95420  Biso   1.000  H
  N43      1.0000 0.72400  0.19890  0.06510  Biso   1.000  N
  H175     1.0000 0.67710  0.21120  0.05880  Biso   1.000  H
  H176     1.0000 0.73590  0.22450  0.08680  Biso   1.000  H
  H177     1.0000 0.87800  0.10320  0.04320  Biso   1.000  H
  N44      1.0000 0.90840  0.09790  0.04510  Biso   1.000  N
  H178     1.0000 0.91390  0.11210  0.07200  Biso   1.000  H
  H179     1.0000 0.92990  0.07010  0.03760  Biso   1.000  H
  H180     1.0000 0.73600  0.19090  0.05830  Biso   1.000  H
  Cd13     1.0000 0.66454  0.50061  0.39260  Biso   1.000  Cd
  O97      1.0000 0.75220  0.46930  0.35630  Biso   1.000  O
  O98      1.0000 0.66680  0.44900  0.32120  Biso   1.000  O
  O99      1.0000 0.92470  0.34170  0.19280  Biso   1.000  O
  O100     1.0000 0.84430  0.29270  0.18140  Biso   1.000  O
  O101     1.0000 0.66400  0.57720  0.33820  Biso   1.000  O
  O102     1.0000 0.57930  0.53880  0.36180  Biso   1.000  O
  O103     1.0000 0.48430  0.72690  0.19660  Biso   1.000  O
  O104     1.0000 0.41440  0.67230  0.20020  Biso   1.000  O
  C193     1.0000 0.76080  0.41600  0.29270  Biso   1.000  C
  C194     1.0000 0.73190  0.38410  0.26490  Biso   1.000  C
  H181     1.0000 0.68800  0.38050  0.26670  Biso   1.000  H
  C195     1.0000 0.76610  0.35520  0.23240  Biso   1.000  C
  C196     1.0000 0.82720  0.36000  0.23100  Biso   1.000  C
  C197     1.0000 0.85840  0.39220  0.26180  Biso   1.000  C
  H182     1.0000 0.90250  0.39360  0.26270  Biso   1.000  H
  C198     1.0000 0.82320  0.42090  0.29010  Biso   1.000  C
  H183     1.0000 0.84330  0.44510  0.30850  Biso   1.000  H
  C199     1.0000 0.72460  0.44600  0.32720  Biso   1.000  C
  C200     1.0000 0.86790  0.32710  0.19950  Biso   1.000  C
  C201     1.0000 0.56730  0.60280  0.30690  Biso   1.000  C
  C202     1.0000 0.50430  0.59180  0.29850  Biso   1.000  C
  C203     1.0000 0.47150  0.62220  0.26950  Biso   1.000  C
  H184     1.0000 0.42900  0.61470  0.26410  Biso   1.000  H
  C204     1.0000 0.49720  0.66200  0.24840  Biso   1.000  C
  C205     1.0000 0.56120  0.67500  0.25790  Biso   1.000  C
  H185     1.0000 0.58010  0.70380  0.24480  Biso   1.000  H
  C206     1.0000 0.59310  0.64520  0.28570  Biso   1.000  C
  C207     1.0000 0.60580  0.57080  0.33680  Biso   1.000  C
  C208     1.0000 0.46140  0.68800  0.21210  Biso   1.000  C
  N45      1.0000 0.73240  0.32570  0.20250  Biso   1.000  N
  H186     1.0000 0.75260  0.31140  0.18130  Biso   1.000  H
  H187     1.0000 0.69270  0.32240  0.20420  Biso   1.000  H
  N46      1.0000 0.47400  0.55110  0.31510  Biso   1.000  N
  H188     1.0000 0.42710  0.53880  0.30880  Biso   1.000  H
  H189     1.0000 0.48590  0.52550  0.33680  Biso   1.000  H
  H190     1.0000 0.62800  0.64680  0.29320  Biso   1.000  H
  N47      1.0000 0.65840  0.65210  0.29510  Biso   1.000  N
  H191     1.0000 0.66390  0.63790  0.32200  Biso   1.000  H
  H192     1.0000 0.67990  0.67990  0.28760  Biso   1.000  H
  H193     1.0000 0.48600  0.55910  0.30830  Biso   1.000  H
  Cd14     1.0000 0.66454  0.00061  0.89260  Biso   1.000  Cd
  O105     1.0000 0.75220  0.96930  0.85630  Biso   1.000  O
  O106     1.0000 0.66680  0.94900  0.82120  Biso   1.000  O
  O107     1.0000 0.92470  0.84170  0.69280  Biso   1.000  O
  O108     1.0000 0.84430  0.79270  0.68140  Biso   1.000  O
  O109     1.0000 0.66400  0.07720  0.83820  Biso   1.000  O
  O110     1.0000 0.57930  0.03880  0.86180  Biso   1.000  O
  O111     1.0000 0.48430  0.22690  0.69660  Biso   1.000  O
  O112     1.0000 0.41440  0.17230  0.70020  Biso   1.000  O
  C209     1.0000 0.76080  0.91600  0.79270  Biso   1.000  C
  C210     1.0000 0.73190  0.88410  0.76490  Biso   1.000  C
  H194     1.0000 0.68800  0.88050  0.76670  Biso   1.000  H
  C211     1.0000 0.76610  0.85520  0.73240  Biso   1.000  C
  C212     1.0000 0.82720  0.86000  0.73100  Biso   1.000  C
  C213     1.0000 0.85840  0.89220  0.76180  Biso   1.000  C
  H195     1.0000 0.90250  0.89360  0.76270  Biso   1.000  H
  C214     1.0000 0.82320  0.92090  0.79010  Biso   1.000  C
  H196     1.0000 0.84330  0.94510  0.80850  Biso   1.000  H
  C215     1.0000 0.72460  0.94600  0.82720  Biso   1.000  C
  C216     1.0000 0.86790  0.82710  0.69950  Biso   1.000  C
  C217     1.0000 0.56730  0.10280  0.80690  Biso   1.000  C
  C218     1.0000 0.50430  0.09180  0.79850  Biso   1.000  C
  C219     1.0000 0.47150  0.12220  0.76950  Biso   1.000  C
  H197     1.0000 0.42900  0.11470  0.76410  Biso   1.000  H
  C220     1.0000 0.49720  0.16200  0.74840  Biso   1.000  C
  C221     1.0000 0.56120  0.17500  0.75790  Biso   1.000  C
  H198     1.0000 0.58010  0.20380  0.74480  Biso   1.000  H
  C222     1.0000 0.59310  0.14520  0.78570  Biso   1.000  C
  C223     1.0000 0.60580  0.07080  0.83680  Biso   1.000  C
  C224     1.0000 0.46140  0.18800  0.71210  Biso   1.000  C
  N48      1.0000 0.73240  0.82570  0.70250  Biso   1.000  N
  H199     1.0000 0.75260  0.81140  0.68130  Biso   1.000  H
  H200     1.0000 0.69270  0.82240  0.70420  Biso   1.000  H
  N49      1.0000 0.47400  0.05110  0.81510  Biso   1.000  N
  H201     1.0000 0.42710  0.03880  0.80880  Biso   1.000  H
  H202     1.0000 0.48590  0.02550  0.83680  Biso   1.000  H
  H203     1.0000 0.62800  0.14680  0.79320  Biso   1.000  H
  N50      1.0000 0.65840  0.15210  0.79510  Biso   1.000  N
  H204     1.0000 0.66390  0.13790  0.82200  Biso   1.000  H
  H205     1.0000 0.67990  0.17990  0.78760  Biso   1.000  H
  H206     1.0000 0.48600  0.05910  0.80830  Biso   1.000  H
  Cd15     1.0000 0.16454  0.50061  0.89260  Biso   1.000  Cd
  O113     1.0000 0.25220  0.46930  0.85630  Biso   1.000  O
  O114     1.0000 0.16680  0.44900  0.82120  Biso   1.000  O
  O115     1.0000 0.42470  0.34170  0.69280  Biso   1.000  O
  O116     1.0000 0.34430  0.29270  0.68140  Biso   1.000  O
  O117     1.0000 0.16400  0.57720  0.83820  Biso   1.000  O
  O118     1.0000 0.07930  0.53880  0.86180  Biso   1.000  O
  O119     1.0000 0.98430  0.72690  0.69660  Biso   1.000  O
  O120     1.0000 0.91440  0.67230  0.70020  Biso   1.000  O
  C225     1.0000 0.26080  0.41600  0.79270  Biso   1.000  C
  C226     1.0000 0.23190  0.38410  0.76490  Biso   1.000  C
  H207     1.0000 0.18800  0.38050  0.76670  Biso   1.000  H
  C227     1.0000 0.26610  0.35520  0.73240  Biso   1.000  C
  C228     1.0000 0.32720  0.36000  0.73100  Biso   1.000  C
  C229     1.0000 0.35840  0.39220  0.76180  Biso   1.000  C
  H208     1.0000 0.40250  0.39360  0.76270  Biso   1.000  H
  C230     1.0000 0.32320  0.42090  0.79010  Biso   1.000  C
  H209     1.0000 0.34330  0.44510  0.80850  Biso   1.000  H
  C231     1.0000 0.22460  0.44600  0.82720  Biso   1.000  C
  C232     1.0000 0.36790  0.32710  0.69950  Biso   1.000  C
  C233     1.0000 0.06730  0.60280  0.80690  Biso   1.000  C
  C234     1.0000 0.00430  0.59180  0.79850  Biso   1.000  C
  C235     1.0000 0.97150  0.62220  0.76950  Biso   1.000  C
  H210     1.0000 0.92900  0.61470  0.76410  Biso   1.000  H
  C236     1.0000 0.99720  0.66200  0.74840  Biso   1.000  C
  C237     1.0000 0.06120  0.67500  0.75790  Biso   1.000  C
  H211     1.0000 0.08010  0.70380  0.74480  Biso   1.000  H
  C238     1.0000 0.09310  0.64520  0.78570  Biso   1.000  C
  C239     1.0000 0.10580  0.57080  0.83680  Biso   1.000  C
  C240     1.0000 0.96140  0.68800  0.71210  Biso   1.000  C
  N51      1.0000 0.23240  0.32570  0.70250  Biso   1.000  N
  H212     1.0000 0.25260  0.31140  0.68130  Biso   1.000  H
  H213     1.0000 0.19270  0.32240  0.70420  Biso   1.000  H
  N52      1.0000 0.97400  0.55110  0.81510  Biso   1.000  N
  H214     1.0000 0.92710  0.53880  0.80880  Biso   1.000  H
  H215     1.0000 0.98590  0.52550  0.83680  Biso   1.000  H
  H216     1.0000 0.12800  0.64680  0.79320  Biso   1.000  H
  N53      1.0000 0.15840  0.65210  0.79510  Biso   1.000  N
  H217     1.0000 0.16390  0.63790  0.82200  Biso   1.000  H
  H218     1.0000 0.17990  0.67990  0.78760  Biso   1.000  H
  H219     1.0000 0.98600  0.55910  0.80830  Biso   1.000  H
  Cd16     1.0000 0.16454  0.00061  0.39260  Biso   1.000  Cd
  O121     1.0000 0.25220  0.96930  0.35630  Biso   1.000  O
  O122     1.0000 0.16680  0.94900  0.32120  Biso   1.000  O
  O123     1.0000 0.42470  0.84170  0.19280  Biso   1.000  O
  O124     1.0000 0.34430  0.79270  0.18140  Biso   1.000  O
  O125     1.0000 0.16400  0.07720  0.33820  Biso   1.000  O
  O126     1.0000 0.07930  0.03880  0.36180  Biso   1.000  O
  O127     1.0000 0.98430  0.22690  0.19660  Biso   1.000  O
  O128     1.0000 0.91440  0.17230  0.20020  Biso   1.000  O
  C241     1.0000 0.26080  0.91600  0.29270  Biso   1.000  C
  C242     1.0000 0.23190  0.88410  0.26490  Biso   1.000  C
  H220     1.0000 0.18800  0.88050  0.26670  Biso   1.000  H
  C243     1.0000 0.26610  0.85520  0.23240  Biso   1.000  C
  C244     1.0000 0.32720  0.86000  0.23100  Biso   1.000  C
  C245     1.0000 0.35840  0.89220  0.26180  Biso   1.000  C
  H221     1.0000 0.40250  0.89360  0.26270  Biso   1.000  H
  C246     1.0000 0.32320  0.92090  0.29010  Biso   1.000  C
  H222     1.0000 0.34330  0.94510  0.30850  Biso   1.000  H
  C247     1.0000 0.22460  0.94600  0.32720  Biso   1.000  C
  C248     1.0000 0.36790  0.82710  0.19950  Biso   1.000  C
  C249     1.0000 0.06730  0.10280  0.30690  Biso   1.000  C
  C250     1.0000 0.00430  0.09180  0.29850  Biso   1.000  C
  C251     1.0000 0.97150  0.12220  0.26950  Biso   1.000  C
  H223     1.0000 0.92900  0.11470  0.26410  Biso   1.000  H
  C252     1.0000 0.99720  0.16200  0.24840  Biso   1.000  C
  C253     1.0000 0.06120  0.17500  0.25790  Biso   1.000  C
  H224     1.0000 0.08010  0.20380  0.24480  Biso   1.000  H
  C254     1.0000 0.09310  0.14520  0.28570  Biso   1.000  C
  C255     1.0000 0.10580  0.07080  0.33680  Biso   1.000  C
  C256     1.0000 0.96140  0.18800  0.21210  Biso   1.000  C
  N54      1.0000 0.23240  0.82570  0.20250  Biso   1.000  N
  H225     1.0000 0.25260  0.81140  0.18130  Biso   1.000  H
  H226     1.0000 0.19270  0.82240  0.20420  Biso   1.000  H
  N55      1.0000 0.97400  0.05110  0.31510  Biso   1.000  N
  H227     1.0000 0.92710  0.03880  0.30880  Biso   1.000  H
  H228     1.0000 0.98590  0.02550  0.33680  Biso   1.000  H
  H229     1.0000 0.12800  0.14680  0.29320  Biso   1.000  H
  N56      1.0000 0.15840  0.15210  0.29510  Biso   1.000  N
  H230     1.0000 0.16390  0.13790  0.32200  Biso   1.000  H
  H231     1.0000 0.17990  0.17990  0.28760  Biso   1.000  H
  H232     1.0000 0.98600  0.05910  0.30830  Biso   1.000  H
  Cd17     1.0000 0.58546  0.25061  0.14260  Biso   1.000  Cd
  O129     1.0000 0.49780  0.21930  0.10630  Biso   1.000  O
  O130     1.0000 0.58320  0.19900  0.07120  Biso   1.000  O
  O131     1.0000 0.32530  0.09170  0.94280  Biso   1.000  O
  O132     1.0000 0.40570  0.04270  0.93140  Biso   1.000  O
  O133     1.0000 0.58600  0.32720  0.08820  Biso   1.000  O
  O134     1.0000 0.67070  0.28880  0.11180  Biso   1.000  O
  O135     1.0000 0.76570  0.47690  0.94660  Biso   1.000  O
  O136     1.0000 0.83560  0.42230  0.95020  Biso   1.000  O
  C257     1.0000 0.48920  0.16600  0.04270  Biso   1.000  C
  C258     1.0000 0.51810  0.13410  0.01490  Biso   1.000  C
  H233     1.0000 0.56200  0.13050  0.01670  Biso   1.000  H
  C259     1.0000 0.48390  0.10520  0.98240  Biso   1.000  C
  C260     1.0000 0.42280  0.11000  0.98100  Biso   1.000  C
  C261     1.0000 0.39160  0.14220  0.01180  Biso   1.000  C
  H234     1.0000 0.34750  0.14360  0.01270  Biso   1.000  H
  C262     1.0000 0.42680  0.17090  0.04010  Biso   1.000  C
  H235     1.0000 0.40670  0.19510  0.05850  Biso   1.000  H
  C263     1.0000 0.52540  0.19600  0.07720  Biso   1.000  C
  C264     1.0000 0.38210  0.07710  0.94950  Biso   1.000  C
  C265     1.0000 0.68270  0.35280  0.05690  Biso   1.000  C
  C266     1.0000 0.74570  0.34180  0.04850  Biso   1.000  C
  C267     1.0000 0.77850  0.37220  0.01950  Biso   1.000  C
  H236     1.0000 0.82100  0.36470  0.01410  Biso   1.000  H
  C268     1.0000 0.75280  0.41200  0.99840  Biso   1.000  C
  C269     1.0000 0.68880  0.42500  0.00790  Biso   1.000  C
  H237     1.0000 0.66990  0.45380  0.99480  Biso   1.000  H
  C270     1.0000 0.65690  0.39520  0.03570  Biso   1.000  C
  C271     1.0000 0.64420  0.32080  0.08680  Biso   1.000  C
  C272     1.0000 0.78860  0.43800  0.96210  Biso   1.000  C
  N57      1.0000 0.51760  0.07570  0.95250  Biso   1.000  N
  H238     1.0000 0.49740  0.06140  0.93130  Biso   1.000  H
  H239     1.0000 0.55730  0.07240  0.95420  Biso   1.000  H
  N58      1.0000 0.77600  0.30110  0.06510  Biso   1.000  N
  H240     1.0000 0.82290  0.28880  0.05880  Biso   1.000  H
  H241     1.0000 0.76410  0.27550  0.08680  Biso   1.000  H
  H242     1.0000 0.62200  0.39680  0.04320  Biso   1.000  H
  N59      1.0000 0.59160  0.40210  0.04510  Biso   1.000  N
  H243     1.0000 0.58610  0.38790  0.07200  Biso   1.000  H
  H244     1.0000 0.57010  0.42990  0.03760  Biso   1.000  H
  H245     1.0000 0.76400  0.30910  0.05830  Biso   1.000  H
  Cd18     1.0000 0.58546  0.75061  0.64260  Biso   1.000  Cd
  O137     1.0000 0.49780  0.71930  0.60630  Biso   1.000  O
  O138     1.0000 0.58320  0.69900  0.57120  Biso   1.000  O
  O139     1.0000 0.32530  0.59170  0.44280  Biso   1.000  O
  O140     1.0000 0.40570  0.54270  0.43140  Biso   1.000  O
  O141     1.0000 0.58600  0.82720  0.58820  Biso   1.000  O
  O142     1.0000 0.67070  0.78880  0.61180  Biso   1.000  O
  O143     1.0000 0.76570  0.97690  0.44660  Biso   1.000  O
  O144     1.0000 0.83560  0.92230  0.45020  Biso   1.000  O
  C273     1.0000 0.48920  0.66600  0.54270  Biso   1.000  C
  C274     1.0000 0.51810  0.63410  0.51490  Biso   1.000  C
  H246     1.0000 0.56200  0.63050  0.51670  Biso   1.000  H
  C275     1.0000 0.48390  0.60520  0.48240  Biso   1.000  C
  C276     1.0000 0.42280  0.61000  0.48100  Biso   1.000  C
  C277     1.0000 0.39160  0.64220  0.51180  Biso   1.000  C
  H247     1.0000 0.34750  0.64360  0.51270  Biso   1.000  H
  C278     1.0000 0.42680  0.67090  0.54010  Biso   1.000  C
  H248     1.0000 0.40670  0.69510  0.55850  Biso   1.000  H
  C279     1.0000 0.52540  0.69600  0.57720  Biso   1.000  C
  C280     1.0000 0.38210  0.57710  0.44950  Biso   1.000  C
  C281     1.0000 0.68270  0.85280  0.55690  Biso   1.000  C
  C282     1.0000 0.74570  0.84180  0.54850  Biso   1.000  C
  C283     1.0000 0.77850  0.87220  0.51950  Biso   1.000  C
  H249     1.0000 0.82100  0.86470  0.51410  Biso   1.000  H
  C284     1.0000 0.75280  0.91200  0.49840  Biso   1.000  C
  C285     1.0000 0.68880  0.92500  0.50790  Biso   1.000  C
  H250     1.0000 0.66990  0.95380  0.49480  Biso   1.000  H
  C286     1.0000 0.65690  0.89520  0.53570  Biso   1.000  C
  C287     1.0000 0.64420  0.82080  0.58680  Biso   1.000  C
  C288     1.0000 0.78860  0.93800  0.46210  Biso   1.000  C
  N60      1.0000 0.51760  0.57570  0.45250  Biso   1.000  N
  H251     1.0000 0.49740  0.56140  0.43130  Biso   1.000  H
  H252     1.0000 0.55730  0.57240  0.45420  Biso   1.000  H
  N61      1.0000 0.77600  0.80110  0.56510  Biso   1.000  N
  H253     1.0000 0.82290  0.78880  0.55880  Biso   1.000  H
  H254     1.0000 0.76410  0.77550  0.58680  Biso   1.000  H
  H255     1.0000 0.62200  0.89680  0.54320  Biso   1.000  H
  N62      1.0000 0.59160  0.90210  0.54510  Biso   1.000  N
  H256     1.0000 0.58610  0.88790  0.57200  Biso   1.000  H
  H257     1.0000 0.57010  0.92990  0.53760  Biso   1.000  H
  H258     1.0000 0.76400  0.80910  0.55830  Biso   1.000  H
  Cd19     1.0000 0.08546  0.25061  0.64260  Biso   1.000  Cd
  O145     1.0000 0.99780  0.21930  0.60630  Biso   1.000  O
  O146     1.0000 0.08320  0.19900  0.57120  Biso   1.000  O
  O147     1.0000 0.82530  0.09170  0.44280  Biso   1.000  O
  O148     1.0000 0.90570  0.04270  0.43140  Biso   1.000  O
  O149     1.0000 0.08600  0.32720  0.58820  Biso   1.000  O
  O150     1.0000 0.17070  0.28880  0.61180  Biso   1.000  O
  O151     1.0000 0.26570  0.47690  0.44660  Biso   1.000  O
  O152     1.0000 0.33560  0.42230  0.45020  Biso   1.000  O
  C289     1.0000 0.98920  0.16600  0.54270  Biso   1.000  C
  C290     1.0000 0.01810  0.13410  0.51490  Biso   1.000  C
  H259     1.0000 0.06200  0.13050  0.51670  Biso   1.000  H
  C291     1.0000 0.98390  0.10520  0.48240  Biso   1.000  C
  C292     1.0000 0.92280  0.11000  0.48100  Biso   1.000  C
  C293     1.0000 0.89160  0.14220  0.51180  Biso   1.000  C
  H260     1.0000 0.84750  0.14360  0.51270  Biso   1.000  H
  C294     1.0000 0.92680  0.17090  0.54010  Biso   1.000  C
  H261     1.0000 0.90670  0.19510  0.55850  Biso   1.000  H
  C295     1.0000 0.02540  0.19600  0.57720  Biso   1.000  C
  C296     1.0000 0.88210  0.07710  0.44950  Biso   1.000  C
  C297     1.0000 0.18270  0.35280  0.55690  Biso   1.000  C
  C298     1.0000 0.24570  0.34180  0.54850  Biso   1.000  C
  C299     1.0000 0.27850  0.37220  0.51950  Biso   1.000  C
  H262     1.0000 0.32100  0.36470  0.51410  Biso   1.000  H
  C300     1.0000 0.25280  0.41200  0.49840  Biso   1.000  C
  C301     1.0000 0.18880  0.42500  0.50790  Biso   1.000  C
  H263     1.0000 0.16990  0.45380  0.49480  Biso   1.000  H
  C302     1.0000 0.15690  0.39520  0.53570  Biso   1.000  C
  C303     1.0000 0.14420  0.32080  0.58680  Biso   1.000  C
  C304     1.0000 0.28860  0.43800  0.46210  Biso   1.000  C
  N63      1.0000 0.01760  0.07570  0.45250  Biso   1.000  N
  H264     1.0000 0.99740  0.06140  0.43130  Biso   1.000  H
  H265     1.0000 0.05730  0.07240  0.45420  Biso   1.000  H
  N64      1.0000 0.27600  0.30110  0.56510  Biso   1.000  N
  H266     1.0000 0.32290  0.28880  0.55880  Biso   1.000  H
  H267     1.0000 0.26410  0.27550  0.58680  Biso   1.000  H
  H268     1.0000 0.12200  0.39680  0.54320  Biso   1.000  H
  N65      1.0000 0.09160  0.40210  0.54510  Biso   1.000  N
  H269     1.0000 0.08610  0.38790  0.57200  Biso   1.000  H
  H270     1.0000 0.07010  0.42990  0.53760  Biso   1.000  H
  H271     1.0000 0.26400  0.30910  0.55830  Biso   1.000  H
  Cd20     1.0000 0.08546  0.75061  0.14260  Biso   1.000  Cd
  O153     1.0000 0.99780  0.71930  0.10630  Biso   1.000  O
  O154     1.0000 0.08320  0.69900  0.07120  Biso   1.000  O
  O155     1.0000 0.82530  0.59170  0.94280  Biso   1.000  O
  O156     1.0000 0.90570  0.54270  0.93140  Biso   1.000  O
  O157     1.0000 0.08600  0.82720  0.08820  Biso   1.000  O
  O158     1.0000 0.17070  0.78880  0.11180  Biso   1.000  O
  O159     1.0000 0.26570  0.97690  0.94660  Biso   1.000  O
  O160     1.0000 0.33560  0.92230  0.95020  Biso   1.000  O
  C305     1.0000 0.98920  0.66600  0.04270  Biso   1.000  C
  C306     1.0000 0.01810  0.63410  0.01490  Biso   1.000  C
  H272     1.0000 0.06200  0.63050  0.01670  Biso   1.000  H
  C307     1.0000 0.98390  0.60520  0.98240  Biso   1.000  C
  C308     1.0000 0.92280  0.61000  0.98100  Biso   1.000  C
  C309     1.0000 0.89160  0.64220  0.01180  Biso   1.000  C
  H273     1.0000 0.84750  0.64360  0.01270  Biso   1.000  H
  C310     1.0000 0.92680  0.67090  0.04010  Biso   1.000  C
  H274     1.0000 0.90670  0.69510  0.05850  Biso   1.000  H
  C311     1.0000 0.02540  0.69600  0.07720  Biso   1.000  C
  C312     1.0000 0.88210  0.57710  0.94950  Biso   1.000  C
  C313     1.0000 0.18270  0.85280  0.05690  Biso   1.000  C
  C314     1.0000 0.24570  0.84180  0.04850  Biso   1.000  C
  C315     1.0000 0.27850  0.87220  0.01950  Biso   1.000  C
  H275     1.0000 0.32100  0.86470  0.01410  Biso   1.000  H
  C316     1.0000 0.25280  0.91200  0.99840  Biso   1.000  C
  C317     1.0000 0.18880  0.92500  0.00790  Biso   1.000  C
  H276     1.0000 0.16990  0.95380  0.99480  Biso   1.000  H
  C318     1.0000 0.15690  0.89520  0.03570  Biso   1.000  C
  C319     1.0000 0.14420  0.82080  0.08680  Biso   1.000  C
  C320     1.0000 0.28860  0.93800  0.96210  Biso   1.000  C
  N66      1.0000 0.01760  0.57570  0.95250  Biso   1.000  N
  H277     1.0000 0.99740  0.56140  0.93130  Biso   1.000  H
  H278     1.0000 0.05730  0.57240  0.95420  Biso   1.000  H
  N67      1.0000 0.27600  0.80110  0.06510  Biso   1.000  N
  H279     1.0000 0.32290  0.78880  0.05880  Biso   1.000  H
  H280     1.0000 0.26410  0.77550  0.08680  Biso   1.000  H
  H281     1.0000 0.12200  0.89680  0.04320  Biso   1.000  H
  N68      1.0000 0.09160  0.90210  0.04510  Biso   1.000  N
  H282     1.0000 0.08610  0.88790  0.07200  Biso   1.000  H
  H283     1.0000 0.07010  0.92990  0.03760  Biso   1.000  H
  H284     1.0000 0.26400  0.80910  0.05830  Biso   1.000  H
  Cd21     1.0000 0.83546  0.99939  0.39260  Biso   1.000  Cd
  O161     1.0000 0.74780  0.03070  0.35630  Biso   1.000  O
  O162     1.0000 0.83320  0.05100  0.32120  Biso   1.000  O
  O163     1.0000 0.57530  0.15830  0.19280  Biso   1.000  O
  O164     1.0000 0.65570  0.20730  0.18140  Biso   1.000  O
  O165     1.0000 0.83600  0.92280  0.33820  Biso   1.000  O
  O166     1.0000 0.92070  0.96120  0.36180  Biso   1.000  O
  O167     1.0000 0.01570  0.77310  0.19660  Biso   1.000  O
  O168     1.0000 0.08560  0.82770  0.20020  Biso   1.000  O
  C321     1.0000 0.73920  0.08400  0.29270  Biso   1.000  C
  C322     1.0000 0.76810  0.11590  0.26490  Biso   1.000  C
  H285     1.0000 0.81200  0.11950  0.26670  Biso   1.000  H
  C323     1.0000 0.73390  0.14480  0.23240  Biso   1.000  C
  C324     1.0000 0.67280  0.14000  0.23100  Biso   1.000  C
  C325     1.0000 0.64160  0.10780  0.26180  Biso   1.000  C
  H286     1.0000 0.59750  0.10640  0.26270  Biso   1.000  H
  C326     1.0000 0.67680  0.07910  0.29010  Biso   1.000  C
  H287     1.0000 0.65670  0.05490  0.30850  Biso   1.000  H
  C327     1.0000 0.77540  0.05400  0.32720  Biso   1.000  C
  C328     1.0000 0.63210  0.17290  0.19950  Biso   1.000  C
  C329     1.0000 0.93270  0.89720  0.30690  Biso   1.000  C
  C330     1.0000 0.99570  0.90820  0.29850  Biso   1.000  C
  C331     1.0000 0.02850  0.87780  0.26950  Biso   1.000  C
  H288     1.0000 0.07100  0.88530  0.26410  Biso   1.000  H
  C332     1.0000 0.00280  0.83800  0.24840  Biso   1.000  C
  C333     1.0000 0.93880  0.82500  0.25790  Biso   1.000  C
  H289     1.0000 0.91990  0.79620  0.24480  Biso   1.000  H
  C334     1.0000 0.90690  0.85480  0.28570  Biso   1.000  C
  C335     1.0000 0.89420  0.92920  0.33680  Biso   1.000  C
  C336     1.0000 0.03860  0.81200  0.21210  Biso   1.000  C
  N69      1.0000 0.76760  0.17430  0.20250  Biso   1.000  N
  H290     1.0000 0.74740  0.18860  0.18130  Biso   1.000  H
  H291     1.0000 0.80730  0.17760  0.20420  Biso   1.000  H
  N70      1.0000 0.02600  0.94890  0.31510  Biso   1.000  N
  H292     1.0000 0.07290  0.96120  0.30880  Biso   1.000  H
  H293     1.0000 0.01410  0.97450  0.33680  Biso   1.000  H
  H294     1.0000 0.87200  0.85320  0.29320  Biso   1.000  H
  N71      1.0000 0.84160  0.84790  0.29510  Biso   1.000  N
  H295     1.0000 0.83610  0.86210  0.32200  Biso   1.000  H
  H296     1.0000 0.82010  0.82010  0.28760  Biso   1.000  H
  H297     1.0000 0.01400  0.94090  0.30830  Biso   1.000  H
  Cd22     1.0000 0.83546  0.49939  0.89260  Biso   1.000  Cd
  O169     1.0000 0.74780  0.53070  0.85630  Biso   1.000  O
  O170     1.0000 0.83320  0.55100  0.82120  Biso   1.000  O
  O171     1.0000 0.57530  0.65830  0.69280  Biso   1.000  O
  O172     1.0000 0.65570  0.70730  0.68140  Biso   1.000  O
  O173     1.0000 0.83600  0.42280  0.83820  Biso   1.000  O
  O174     1.0000 0.92070  0.46120  0.86180  Biso   1.000  O
  O175     1.0000 0.01570  0.27310  0.69660  Biso   1.000  O
  O176     1.0000 0.08560  0.32770  0.70020  Biso   1.000  O
  C337     1.0000 0.73920  0.58400  0.79270  Biso   1.000  C
  C338     1.0000 0.76810  0.61590  0.76490  Biso   1.000  C
  H298     1.0000 0.81200  0.61950  0.76670  Biso   1.000  H
  C339     1.0000 0.73390  0.64480  0.73240  Biso   1.000  C
  C340     1.0000 0.67280  0.64000  0.73100  Biso   1.000  C
  C341     1.0000 0.64160  0.60780  0.76180  Biso   1.000  C
  H299     1.0000 0.59750  0.60640  0.76270  Biso   1.000  H
  C342     1.0000 0.67680  0.57910  0.79010  Biso   1.000  C
  H300     1.0000 0.65670  0.55490  0.80850  Biso   1.000  H
  C343     1.0000 0.77540  0.55400  0.82720  Biso   1.000  C
  C344     1.0000 0.63210  0.67290  0.69950  Biso   1.000  C
  C345     1.0000 0.93270  0.39720  0.80690  Biso   1.000  C
  C346     1.0000 0.99570  0.40820  0.79850  Biso   1.000  C
  C347     1.0000 0.02850  0.37780  0.76950  Biso   1.000  C
  H301     1.0000 0.07100  0.38530  0.76410  Biso   1.000  H
  C348     1.0000 0.00280  0.33800  0.74840  Biso   1.000  C
  C349     1.0000 0.93880  0.32500  0.75790  Biso   1.000  C
  H302     1.0000 0.91990  0.29620  0.74480  Biso   1.000  H
  C350     1.0000 0.90690  0.35480  0.78570  Biso   1.000  C
  C351     1.0000 0.89420  0.42920  0.83680  Biso   1.000  C
  C352     1.0000 0.03860  0.31200  0.71210  Biso   1.000  C
  N72      1.0000 0.76760  0.67430  0.70250  Biso   1.000  N
  H303     1.0000 0.74740  0.68860  0.68130  Biso   1.000  H
  H304     1.0000 0.80730  0.67760  0.70420  Biso   1.000  H
  N73      1.0000 0.02600  0.44890  0.81510  Biso   1.000  N
  H305     1.0000 0.07290  0.46120  0.80880  Biso   1.000  H
  H306     1.0000 0.01410  0.47450  0.83680  Biso   1.000  H
  H307     1.0000 0.87200  0.35320  0.79320  Biso   1.000  H
  N74      1.0000 0.84160  0.34790  0.79510  Biso   1.000  N
  H308     1.0000 0.83610  0.36210  0.82200  Biso   1.000  H
  H309     1.0000 0.82010  0.32010  0.78760  Biso   1.000  H
  H310     1.0000 0.01400  0.44090  0.80830  Biso   1.000  H
  Cd23     1.0000 0.33546  0.99939  0.89260  Biso   1.000  Cd
  O177     1.0000 0.24780  0.03070  0.85630  Biso   1.000  O
  O178     1.0000 0.33320  0.05100  0.82120  Biso   1.000  O
  O179     1.0000 0.07530  0.15830  0.69280  Biso   1.000  O
  O180     1.0000 0.15570  0.20730  0.68140  Biso   1.000  O
  O181     1.0000 0.33600  0.92280  0.83820  Biso   1.000  O
  O182     1.0000 0.42070  0.96120  0.86180  Biso   1.000  O
  O183     1.0000 0.51570  0.77310  0.69660  Biso   1.000  O
  O184     1.0000 0.58560  0.82770  0.70020  Biso   1.000  O
  C353     1.0000 0.23920  0.08400  0.79270  Biso   1.000  C
  C354     1.0000 0.26810  0.11590  0.76490  Biso   1.000  C
  H311     1.0000 0.31200  0.11950  0.76670  Biso   1.000  H
  C355     1.0000 0.23390  0.14480  0.73240  Biso   1.000  C
  C356     1.0000 0.17280  0.14000  0.73100  Biso   1.000  C
  C357     1.0000 0.14160  0.10780  0.76180  Biso   1.000  C
  H312     1.0000 0.09750  0.10640  0.76270  Biso   1.000  H
  C358     1.0000 0.17680  0.07910  0.79010  Biso   1.000  C
  H313     1.0000 0.15670  0.05490  0.80850  Biso   1.000  H
  C359     1.0000 0.27540  0.05400  0.82720  Biso   1.000  C
  C360     1.0000 0.13210  0.17290  0.69950  Biso   1.000  C
  C361     1.0000 0.43270  0.89720  0.80690  Biso   1.000  C
  C362     1.0000 0.49570  0.90820  0.79850  Biso   1.000  C
  C363     1.0000 0.52850  0.87780  0.76950  Biso   1.000  C
  H314     1.0000 0.57100  0.88530  0.76410  Biso   1.000  H
  C364     1.0000 0.50280  0.83800  0.74840  Biso   1.000  C
  C365     1.0000 0.43880  0.82500  0.75790  Biso   1.000  C
  H315     1.0000 0.41990  0.79620  0.74480  Biso   1.000  H
  C366     1.0000 0.40690  0.85480  0.78570  Biso   1.000  C
  C367     1.0000 0.39420  0.92920  0.83680  Biso   1.000  C
  C368     1.0000 0.53860  0.81200  0.71210  Biso   1.000  C
  N75      1.0000 0.26760  0.17430  0.70250  Biso   1.000  N
  H316     1.0000 0.24740  0.18860  0.68130  Biso   1.000  H
  H317     1.0000 0.30730  0.17760  0.70420  Biso   1.000  H
  N76      1.0000 0.52600  0.94890  0.81510  Biso   1.000  N
  H318     1.0000 0.57290  0.96120  0.80880  Biso   1.000  H
  H319     1.0000 0.51410  0.97450  0.83680  Biso   1.000  H
  H320     1.0000 0.37200  0.85320  0.79320  Biso   1.000  H
  N77      1.0000 0.34160  0.84790  0.79510  Biso   1.000  N
  H321     1.0000 0.33610  0.86210  0.82200  Biso   1.000  H
  H322     1.0000 0.32010  0.82010  0.78760  Biso   1.000  H
  H323     1.0000 0.51400  0.94090  0.80830  Biso   1.000  H
  Cd24     1.0000 0.33546  0.49939  0.39260  Biso   1.000  Cd
  O185     1.0000 0.24780  0.53070  0.35630  Biso   1.000  O
  O186     1.0000 0.33320  0.55100  0.32120  Biso   1.000  O
  O187     1.0000 0.07530  0.65830  0.19280  Biso   1.000  O
  O188     1.0000 0.15570  0.70730  0.18140  Biso   1.000  O
  O189     1.0000 0.33600  0.42280  0.33820  Biso   1.000  O
  O190     1.0000 0.42070  0.46120  0.36180  Biso   1.000  O
  O191     1.0000 0.51570  0.27310  0.19660  Biso   1.000  O
  O192     1.0000 0.58560  0.32770  0.20020  Biso   1.000  O
  C369     1.0000 0.23920  0.58400  0.29270  Biso   1.000  C
  C370     1.0000 0.26810  0.61590  0.26490  Biso   1.000  C
  H324     1.0000 0.31200  0.61950  0.26670  Biso   1.000  H
  C371     1.0000 0.23390  0.64480  0.23240  Biso   1.000  C
  C372     1.0000 0.17280  0.64000  0.23100  Biso   1.000  C
  C373     1.0000 0.14160  0.60780  0.26180  Biso   1.000  C
  H325     1.0000 0.09750  0.60640  0.26270  Biso   1.000  H
  C374     1.0000 0.17680  0.57910  0.29010  Biso   1.000  C
  H326     1.0000 0.15670  0.55490  0.30850  Biso   1.000  H
  C375     1.0000 0.27540  0.55400  0.32720  Biso   1.000  C
  C376     1.0000 0.13210  0.67290  0.19950  Biso   1.000  C
  C377     1.0000 0.43270  0.39720  0.30690  Biso   1.000  C
  C378     1.0000 0.49570  0.40820  0.29850  Biso   1.000  C
  C379     1.0000 0.52850  0.37780  0.26950  Biso   1.000  C
  H327     1.0000 0.57100  0.38530  0.26410  Biso   1.000  H
  C380     1.0000 0.50280  0.33800  0.24840  Biso   1.000  C
  C381     1.0000 0.43880  0.32500  0.25790  Biso   1.000  C
  H328     1.0000 0.41990  0.29620  0.24480  Biso   1.000  H
  C382     1.0000 0.40690  0.35480  0.28570  Biso   1.000  C
  C383     1.0000 0.39420  0.42920  0.33680  Biso   1.000  C
  C384     1.0000 0.53860  0.31200  0.21210  Biso   1.000  C
  N78      1.0000 0.26760  0.67430  0.20250  Biso   1.000  N
  H329     1.0000 0.24740  0.68860  0.18130  Biso   1.000  H
  H330     1.0000 0.30730  0.67760  0.20420  Biso   1.000  H
  N79      1.0000 0.52600  0.44890  0.31510  Biso   1.000  N
  H331     1.0000 0.57290  0.46120  0.30880  Biso   1.000  H
  H332     1.0000 0.51410  0.47450  0.33680  Biso   1.000  H
  H333     1.0000 0.37200  0.35320  0.29320  Biso   1.000  H
  N80      1.0000 0.34160  0.34790  0.29510  Biso   1.000  N
  H334     1.0000 0.33610  0.36210  0.32200  Biso   1.000  H
  H335     1.0000 0.32010  0.32010  0.28760  Biso   1.000  H
  H336     1.0000 0.51400  0.44090  0.30830  Biso   1.000  H
