data_image0
_cell_length_a       30.701
_cell_length_b       30.701
_cell_length_c       28.957
_cell_angle_alpha    90
_cell_angle_beta     90
_cell_angle_gamma    90

_symmetry_space_group_name_H-M    "P 1"
_symmetry_int_tables_number       1

loop_
  _symmetry_equiv_pos_as_xyz
  'x, y, z'

loop_
  _atom_site_label
  _atom_site_occupancy
  _atom_site_fract_x
  _atom_site_fract_y
  _atom_site_fract_z
  _atom_site_thermal_displace_type
  _atom_site_B_iso_or_equiv
  _atom_site_type_symbol
  O1       1.0000 0.30158  0.13417  0.04806  Biso   1.000  O
  O2       1.0000 0.35413  0.08234  0.04844  Biso   1.000  O
  C1       1.0000 0.32050  0.09860  0.06230  Biso   1.000  C
  C2       1.0000 0.29450  0.07850  0.10060  Biso   1.000  C
  C3       1.0000 0.25660  0.09540  0.11800  Biso   1.000  C
  H1       1.0000 0.24560  0.12080  0.10500  Biso   1.000  H
  C4       1.0000 0.23420  0.07650  0.15350  Biso   1.000  C
  H2       1.0000 0.20790  0.08790  0.16380  Biso   1.000  H
  C5       1.0000 0.25260  0.03830  0.17460  Biso   1.000  C
  C6       1.0000 0.29070  0.02080  0.15710  Biso   1.000  C
  H3       1.0000 0.30200  0.99540  0.17000  Biso   1.000  H
  C7       1.0000 0.31230  0.04060  0.12050  Biso   1.000  C
  H4       1.0000 0.33820  0.02900  0.10930  Biso   1.000  H
  C8       1.0000 0.22730  0.01650  0.21380  Biso   1.000  C
  C9       1.0000 0.18390  0.01650  0.21430  Biso   1.000  C
  H5       1.0000 0.16920  0.02820  0.18920  Biso   1.000  H
  C10      1.0000 0.09058  0.96111  0.25069  Biso   1.000  C
  C11      1.0000 0.11263  0.91887  0.25020  Biso   1.000  C
  H6       1.0000 0.14260  0.91430  0.25020  Biso   1.000  H
  O3       1.0000 0.80158  0.63417  0.54806  Biso   1.000  O
  O4       1.0000 0.85413  0.58234  0.54844  Biso   1.000  O
  C12      1.0000 0.82050  0.59860  0.56230  Biso   1.000  C
  C13      1.0000 0.79450  0.57850  0.60060  Biso   1.000  C
  C14      1.0000 0.75660  0.59540  0.61800  Biso   1.000  C
  H7       1.0000 0.74560  0.62080  0.60500  Biso   1.000  H
  C15      1.0000 0.73420  0.57650  0.65350  Biso   1.000  C
  H8       1.0000 0.70790  0.58790  0.66380  Biso   1.000  H
  C16      1.0000 0.75260  0.53830  0.67460  Biso   1.000  C
  C17      1.0000 0.79070  0.52080  0.65710  Biso   1.000  C
  H9       1.0000 0.80200  0.49540  0.67000  Biso   1.000  H
  C18      1.0000 0.81230  0.54060  0.62050  Biso   1.000  C
  H10      1.0000 0.83820  0.52900  0.60930  Biso   1.000  H
  C19      1.0000 0.72730  0.51650  0.71380  Biso   1.000  C
  C20      1.0000 0.68390  0.51650  0.71430  Biso   1.000  C
  H11      1.0000 0.66920  0.52820  0.68920  Biso   1.000  H
  C21      1.0000 0.59058  0.46111  0.75069  Biso   1.000  C
  C22      1.0000 0.61263  0.41887  0.75020  Biso   1.000  C
  H12      1.0000 0.64260  0.41430  0.75020  Biso   1.000  H
  O5       1.0000 0.69842  0.86583  0.04806  Biso   1.000  O
  O6       1.0000 0.64587  0.91766  0.04844  Biso   1.000  O
  C23      1.0000 0.67950  0.90140  0.06230  Biso   1.000  C
  C24      1.0000 0.70550  0.92150  0.10060  Biso   1.000  C
  C25      1.0000 0.74340  0.90460  0.11800  Biso   1.000  C
  H13      1.0000 0.75440  0.87920  0.10500  Biso   1.000  H
  C26      1.0000 0.76580  0.92350  0.15350  Biso   1.000  C
  H14      1.0000 0.79210  0.91210  0.16380  Biso   1.000  H
  C27      1.0000 0.74740  0.96170  0.17460  Biso   1.000  C
  C28      1.0000 0.70930  0.97920  0.15710  Biso   1.000  C
  H15      1.0000 0.69800  0.00460  0.17000  Biso   1.000  H
  C29      1.0000 0.68770  0.95940  0.12050  Biso   1.000  C
  H16      1.0000 0.66180  0.97100  0.10930  Biso   1.000  H
  C30      1.0000 0.77270  0.98350  0.21380  Biso   1.000  C
  C31      1.0000 0.81610  0.98350  0.21430  Biso   1.000  C
  H17      1.0000 0.83080  0.97180  0.18920  Biso   1.000  H
  C32      1.0000 0.90942  0.03889  0.25069  Biso   1.000  C
  C33      1.0000 0.88737  0.08113  0.25020  Biso   1.000  C
  H18      1.0000 0.85740  0.08570  0.25020  Biso   1.000  H
  O7       1.0000 0.19842  0.36583  0.54806  Biso   1.000  O
  O8       1.0000 0.14587  0.41766  0.54844  Biso   1.000  O
  C34      1.0000 0.17950  0.40140  0.56230  Biso   1.000  C
  C35      1.0000 0.20550  0.42150  0.60060  Biso   1.000  C
  C36      1.0000 0.24340  0.40460  0.61800  Biso   1.000  C
  H19      1.0000 0.25440  0.37920  0.60500  Biso   1.000  H
  C37      1.0000 0.26580  0.42350  0.65350  Biso   1.000  C
  H20      1.0000 0.29210  0.41210  0.66380  Biso   1.000  H
  C38      1.0000 0.24740  0.46170  0.67460  Biso   1.000  C
  C39      1.0000 0.20930  0.47920  0.65710  Biso   1.000  C
  H21      1.0000 0.19800  0.50460  0.67000  Biso   1.000  H
  C40      1.0000 0.18770  0.45940  0.62050  Biso   1.000  C
  H22      1.0000 0.16180  0.47100  0.60930  Biso   1.000  H
  C41      1.0000 0.27270  0.48350  0.71380  Biso   1.000  C
  C42      1.0000 0.31610  0.48350  0.71430  Biso   1.000  C
  H23      1.0000 0.33080  0.47180  0.68920  Biso   1.000  H
  C43      1.0000 0.40942  0.53889  0.75069  Biso   1.000  C
  C44      1.0000 0.38737  0.58113  0.75020  Biso   1.000  C
  H24      1.0000 0.35740  0.58570  0.75020  Biso   1.000  H
  O9       1.0000 0.86583  0.30158  0.04806  Biso   1.000  O
  O10      1.0000 0.91766  0.35413  0.04844  Biso   1.000  O
  C45      1.0000 0.90140  0.32050  0.06230  Biso   1.000  C
  C46      1.0000 0.92150  0.29450  0.10060  Biso   1.000  C
  C47      1.0000 0.90460  0.25660  0.11800  Biso   1.000  C
  H25      1.0000 0.87920  0.24560  0.10500  Biso   1.000  H
  C48      1.0000 0.92350  0.23420  0.15350  Biso   1.000  C
  H26      1.0000 0.91210  0.20790  0.16380  Biso   1.000  H
  C49      1.0000 0.96170  0.25260  0.17460  Biso   1.000  C
  C50      1.0000 0.97920  0.29070  0.15710  Biso   1.000  C
  H27      1.0000 0.00460  0.30200  0.17000  Biso   1.000  H
  C51      1.0000 0.95940  0.31230  0.12050  Biso   1.000  C
  H28      1.0000 0.97100  0.33820  0.10930  Biso   1.000  H
  C52      1.0000 0.98350  0.22730  0.21380  Biso   1.000  C
  C53      1.0000 0.98350  0.18390  0.21430  Biso   1.000  C
  H29      1.0000 0.97180  0.16920  0.18920  Biso   1.000  H
  C54      1.0000 0.03889  0.09058  0.25069  Biso   1.000  C
  C55      1.0000 0.08113  0.11263  0.25020  Biso   1.000  C
  H30      1.0000 0.08570  0.14260  0.25020  Biso   1.000  H
  O11      1.0000 0.36583  0.80158  0.54806  Biso   1.000  O
  O12      1.0000 0.41766  0.85413  0.54844  Biso   1.000  O
  C56      1.0000 0.40140  0.82050  0.56230  Biso   1.000  C
  C57      1.0000 0.42150  0.79450  0.60060  Biso   1.000  C
  C58      1.0000 0.40460  0.75660  0.61800  Biso   1.000  C
  H31      1.0000 0.37920  0.74560  0.60500  Biso   1.000  H
  C59      1.0000 0.42350  0.73420  0.65350  Biso   1.000  C
  H32      1.0000 0.41210  0.70790  0.66380  Biso   1.000  H
  C60      1.0000 0.46170  0.75260  0.67460  Biso   1.000  C
  C61      1.0000 0.47920  0.79070  0.65710  Biso   1.000  C
  H33      1.0000 0.50460  0.80200  0.67000  Biso   1.000  H
  C62      1.0000 0.45940  0.81230  0.62050  Biso   1.000  C
  H34      1.0000 0.47100  0.83820  0.60930  Biso   1.000  H
  C63      1.0000 0.48350  0.72730  0.71380  Biso   1.000  C
  C64      1.0000 0.48350  0.68390  0.71430  Biso   1.000  C
  H35      1.0000 0.47180  0.66920  0.68920  Biso   1.000  H
  C65      1.0000 0.53889  0.59058  0.75069  Biso   1.000  C
  C66      1.0000 0.58113  0.61263  0.75020  Biso   1.000  C
  H36      1.0000 0.58570  0.64260  0.75020  Biso   1.000  H
  O13      1.0000 0.13417  0.69842  0.04806  Biso   1.000  O
  O14      1.0000 0.08234  0.64587  0.04844  Biso   1.000  O
  C67      1.0000 0.09860  0.67950  0.06230  Biso   1.000  C
  C68      1.0000 0.07850  0.70550  0.10060  Biso   1.000  C
  C69      1.0000 0.09540  0.74340  0.11800  Biso   1.000  C
  H37      1.0000 0.12080  0.75440  0.10500  Biso   1.000  H
  C70      1.0000 0.07650  0.76580  0.15350  Biso   1.000  C
  H38      1.0000 0.08790  0.79210  0.16380  Biso   1.000  H
  C71      1.0000 0.03830  0.74740  0.17460  Biso   1.000  C
  C72      1.0000 0.02080  0.70930  0.15710  Biso   1.000  C
  H39      1.0000 0.99540  0.69800  0.17000  Biso   1.000  H
  C73      1.0000 0.04060  0.68770  0.12050  Biso   1.000  C
  H40      1.0000 0.02900  0.66180  0.10930  Biso   1.000  H
  C74      1.0000 0.01650  0.77270  0.21380  Biso   1.000  C
  C75      1.0000 0.01650  0.81610  0.21430  Biso   1.000  C
  H41      1.0000 0.02820  0.83080  0.18920  Biso   1.000  H
  C76      1.0000 0.96111  0.90942  0.25069  Biso   1.000  C
  C77      1.0000 0.91887  0.88737  0.25020  Biso   1.000  C
  H42      1.0000 0.91430  0.85740  0.25020  Biso   1.000  H
  O15      1.0000 0.63417  0.19842  0.54806  Biso   1.000  O
  O16      1.0000 0.58234  0.14587  0.54844  Biso   1.000  O
  C78      1.0000 0.59860  0.17950  0.56230  Biso   1.000  C
  C79      1.0000 0.57850  0.20550  0.60060  Biso   1.000  C
  C80      1.0000 0.59540  0.24340  0.61800  Biso   1.000  C
  H43      1.0000 0.62080  0.25440  0.60500  Biso   1.000  H
  C81      1.0000 0.57650  0.26580  0.65350  Biso   1.000  C
  H44      1.0000 0.58790  0.29210  0.66380  Biso   1.000  H
  C82      1.0000 0.53830  0.24740  0.67460  Biso   1.000  C
  C83      1.0000 0.52080  0.20930  0.65710  Biso   1.000  C
  H45      1.0000 0.49540  0.19800  0.67000  Biso   1.000  H
  C84      1.0000 0.54060  0.18770  0.62050  Biso   1.000  C
  H46      1.0000 0.52900  0.16180  0.60930  Biso   1.000  H
  C85      1.0000 0.51650  0.27270  0.71380  Biso   1.000  C
  C86      1.0000 0.51650  0.31610  0.71430  Biso   1.000  C
  H47      1.0000 0.52820  0.33080  0.68920  Biso   1.000  H
  C87      1.0000 0.46111  0.40942  0.75069  Biso   1.000  C
  C88      1.0000 0.41887  0.38737  0.75020  Biso   1.000  C
  H48      1.0000 0.41430  0.35740  0.75020  Biso   1.000  H
  O17      1.0000 0.69842  0.13417  0.45194  Biso   1.000  O
  O18      1.0000 0.64587  0.08234  0.45156  Biso   1.000  O
  C89      1.0000 0.67950  0.09860  0.43770  Biso   1.000  C
  C90      1.0000 0.70550  0.07850  0.39940  Biso   1.000  C
  C91      1.0000 0.74340  0.09540  0.38200  Biso   1.000  C
  H49      1.0000 0.75440  0.12080  0.39500  Biso   1.000  H
  C92      1.0000 0.76580  0.07650  0.34650  Biso   1.000  C
  H50      1.0000 0.79210  0.08790  0.33620  Biso   1.000  H
  C93      1.0000 0.74740  0.03830  0.32540  Biso   1.000  C
  C94      1.0000 0.70930  0.02080  0.34290  Biso   1.000  C
  H51      1.0000 0.69800  0.99540  0.33000  Biso   1.000  H
  C95      1.0000 0.68770  0.04060  0.37950  Biso   1.000  C
  H52      1.0000 0.66180  0.02900  0.39070  Biso   1.000  H
  C96      1.0000 0.77270  0.01650  0.28620  Biso   1.000  C
  C97      1.0000 0.81610  0.01650  0.28570  Biso   1.000  C
  H53      1.0000 0.83080  0.02820  0.31080  Biso   1.000  H
  C98      1.0000 0.90942  0.96111  0.24931  Biso   1.000  C
  C99      1.0000 0.88737  0.91887  0.24980  Biso   1.000  C
  H54      1.0000 0.85740  0.91430  0.24980  Biso   1.000  H
  O19      1.0000 0.19842  0.63417  0.95194  Biso   1.000  O
  O20      1.0000 0.14587  0.58234  0.95156  Biso   1.000  O
  C100     1.0000 0.17950  0.59860  0.93770  Biso   1.000  C
  C101     1.0000 0.20550  0.57850  0.89940  Biso   1.000  C
  C102     1.0000 0.24340  0.59540  0.88200  Biso   1.000  C
  H55      1.0000 0.25440  0.62080  0.89500  Biso   1.000  H
  C103     1.0000 0.26580  0.57650  0.84650  Biso   1.000  C
  H56      1.0000 0.29210  0.58790  0.83620  Biso   1.000  H
  C104     1.0000 0.24740  0.53830  0.82540  Biso   1.000  C
  C105     1.0000 0.20930  0.52080  0.84290  Biso   1.000  C
  H57      1.0000 0.19800  0.49540  0.83000  Biso   1.000  H
  C106     1.0000 0.18770  0.54060  0.87950  Biso   1.000  C
  H58      1.0000 0.16180  0.52900  0.89070  Biso   1.000  H
  C107     1.0000 0.27270  0.51650  0.78620  Biso   1.000  C
  C108     1.0000 0.31610  0.51650  0.78570  Biso   1.000  C
  H59      1.0000 0.33080  0.52820  0.81080  Biso   1.000  H
  C109     1.0000 0.40942  0.46111  0.74931  Biso   1.000  C
  C110     1.0000 0.38737  0.41887  0.74980  Biso   1.000  C
  H60      1.0000 0.35740  0.41430  0.74980  Biso   1.000  H
  O21      1.0000 0.30158  0.86583  0.45194  Biso   1.000  O
  O22      1.0000 0.35413  0.91766  0.45156  Biso   1.000  O
  C111     1.0000 0.32050  0.90140  0.43770  Biso   1.000  C
  C112     1.0000 0.29450  0.92150  0.39940  Biso   1.000  C
  C113     1.0000 0.25660  0.90460  0.38200  Biso   1.000  C
  H61      1.0000 0.24560  0.87920  0.39500  Biso   1.000  H
  C114     1.0000 0.23420  0.92350  0.34650  Biso   1.000  C
  H62      1.0000 0.20790  0.91210  0.33620  Biso   1.000  H
  C115     1.0000 0.25260  0.96170  0.32540  Biso   1.000  C
  C116     1.0000 0.29070  0.97920  0.34290  Biso   1.000  C
  H63      1.0000 0.30200  0.00460  0.33000  Biso   1.000  H
  C117     1.0000 0.31230  0.95940  0.37950  Biso   1.000  C
  H64      1.0000 0.33820  0.97100  0.39070  Biso   1.000  H
  C118     1.0000 0.22730  0.98350  0.28620  Biso   1.000  C
  C119     1.0000 0.18390  0.98350  0.28570  Biso   1.000  C
  H65      1.0000 0.16920  0.97180  0.31080  Biso   1.000  H
  C120     1.0000 0.09058  0.03889  0.24931  Biso   1.000  C
  C121     1.0000 0.11263  0.08113  0.24980  Biso   1.000  C
  H66      1.0000 0.14260  0.08570  0.24980  Biso   1.000  H
  O23      1.0000 0.80158  0.36583  0.95194  Biso   1.000  O
  O24      1.0000 0.85413  0.41766  0.95156  Biso   1.000  O
  C122     1.0000 0.82050  0.40140  0.93770  Biso   1.000  C
  C123     1.0000 0.79450  0.42150  0.89940  Biso   1.000  C
  C124     1.0000 0.75660  0.40460  0.88200  Biso   1.000  C
  H67      1.0000 0.74560  0.37920  0.89500  Biso   1.000  H
  C125     1.0000 0.73420  0.42350  0.84650  Biso   1.000  C
  H68      1.0000 0.70790  0.41210  0.83620  Biso   1.000  H
  C126     1.0000 0.75260  0.46170  0.82540  Biso   1.000  C
  C127     1.0000 0.79070  0.47920  0.84290  Biso   1.000  C
  H69      1.0000 0.80200  0.50460  0.83000  Biso   1.000  H
  C128     1.0000 0.81230  0.45940  0.87950  Biso   1.000  C
  H70      1.0000 0.83820  0.47100  0.89070  Biso   1.000  H
  C129     1.0000 0.72730  0.48350  0.78620  Biso   1.000  C
  C130     1.0000 0.68390  0.48350  0.78570  Biso   1.000  C
  H71      1.0000 0.66920  0.47180  0.81080  Biso   1.000  H
  C131     1.0000 0.59058  0.53889  0.74931  Biso   1.000  C
  C132     1.0000 0.61263  0.58113  0.74980  Biso   1.000  C
  H72      1.0000 0.64260  0.58570  0.74980  Biso   1.000  H
  O25      1.0000 0.13417  0.30158  0.45194  Biso   1.000  O
  O26      1.0000 0.08234  0.35413  0.45156  Biso   1.000  O
  C133     1.0000 0.09860  0.32050  0.43770  Biso   1.000  C
  C134     1.0000 0.07850  0.29450  0.39940  Biso   1.000  C
  C135     1.0000 0.09540  0.25660  0.38200  Biso   1.000  C
  H73      1.0000 0.12080  0.24560  0.39500  Biso   1.000  H
  C136     1.0000 0.07650  0.23420  0.34650  Biso   1.000  C
  H74      1.0000 0.08790  0.20790  0.33620  Biso   1.000  H
  C137     1.0000 0.03830  0.25260  0.32540  Biso   1.000  C
  C138     1.0000 0.02080  0.29070  0.34290  Biso   1.000  C
  H75      1.0000 0.99540  0.30200  0.33000  Biso   1.000  H
  C139     1.0000 0.04060  0.31230  0.37950  Biso   1.000  C
  H76      1.0000 0.02900  0.33820  0.39070  Biso   1.000  H
  C140     1.0000 0.01650  0.22730  0.28620  Biso   1.000  C
  C141     1.0000 0.01650  0.18390  0.28570  Biso   1.000  C
  H77      1.0000 0.02820  0.16920  0.31080  Biso   1.000  H
  C142     1.0000 0.96111  0.09058  0.24931  Biso   1.000  C
  C143     1.0000 0.91887  0.11263  0.24980  Biso   1.000  C
  H78      1.0000 0.91430  0.14260  0.24980  Biso   1.000  H
  O27      1.0000 0.63417  0.80158  0.95194  Biso   1.000  O
  O28      1.0000 0.58234  0.85413  0.95156  Biso   1.000  O
  C144     1.0000 0.59860  0.82050  0.93770  Biso   1.000  C
  C145     1.0000 0.57850  0.79450  0.89940  Biso   1.000  C
  C146     1.0000 0.59540  0.75660  0.88200  Biso   1.000  C
  H79      1.0000 0.62080  0.74560  0.89500  Biso   1.000  H
  C147     1.0000 0.57650  0.73420  0.84650  Biso   1.000  C
  H80      1.0000 0.58790  0.70790  0.83620  Biso   1.000  H
  C148     1.0000 0.53830  0.75260  0.82540  Biso   1.000  C
  C149     1.0000 0.52080  0.79070  0.84290  Biso   1.000  C
  H81      1.0000 0.49540  0.80200  0.83000  Biso   1.000  H
  C150     1.0000 0.54060  0.81230  0.87950  Biso   1.000  C
  H82      1.0000 0.52900  0.83820  0.89070  Biso   1.000  H
  C151     1.0000 0.51650  0.72730  0.78620  Biso   1.000  C
  C152     1.0000 0.51650  0.68390  0.78570  Biso   1.000  C
  H83      1.0000 0.52820  0.66920  0.81080  Biso   1.000  H
  C153     1.0000 0.46111  0.59058  0.74931  Biso   1.000  C
  C154     1.0000 0.41887  0.61263  0.74980  Biso   1.000  C
  H84      1.0000 0.41430  0.64260  0.74980  Biso   1.000  H
  O29      1.0000 0.86583  0.69842  0.45194  Biso   1.000  O
  O30      1.0000 0.91766  0.64587  0.45156  Biso   1.000  O
  C155     1.0000 0.90140  0.67950  0.43770  Biso   1.000  C
  C156     1.0000 0.92150  0.70550  0.39940  Biso   1.000  C
  C157     1.0000 0.90460  0.74340  0.38200  Biso   1.000  C
  H85      1.0000 0.87920  0.75440  0.39500  Biso   1.000  H
  C158     1.0000 0.92350  0.76580  0.34650  Biso   1.000  C
  H86      1.0000 0.91210  0.79210  0.33620  Biso   1.000  H
  C159     1.0000 0.96170  0.74740  0.32540  Biso   1.000  C
  C160     1.0000 0.97920  0.70930  0.34290  Biso   1.000  C
  H87      1.0000 0.00460  0.69800  0.33000  Biso   1.000  H
  C161     1.0000 0.95940  0.68770  0.37950  Biso   1.000  C
  H88      1.0000 0.97100  0.66180  0.39070  Biso   1.000  H
  C162     1.0000 0.98350  0.77270  0.28620  Biso   1.000  C
  C163     1.0000 0.98350  0.81610  0.28570  Biso   1.000  C
  H89      1.0000 0.97180  0.83080  0.31080  Biso   1.000  H
  C164     1.0000 0.03889  0.90942  0.24931  Biso   1.000  C
  C165     1.0000 0.08113  0.88737  0.24980  Biso   1.000  C
  H90      1.0000 0.08570  0.85740  0.24980  Biso   1.000  H
  O31      1.0000 0.36583  0.19842  0.95194  Biso   1.000  O
  O32      1.0000 0.41766  0.14587  0.95156  Biso   1.000  O
  C166     1.0000 0.40140  0.17950  0.93770  Biso   1.000  C
  C167     1.0000 0.42150  0.20550  0.89940  Biso   1.000  C
  C168     1.0000 0.40460  0.24340  0.88200  Biso   1.000  C
  H91      1.0000 0.37920  0.25440  0.89500  Biso   1.000  H
  C169     1.0000 0.42350  0.26580  0.84650  Biso   1.000  C
  H92      1.0000 0.41210  0.29210  0.83620  Biso   1.000  H
  C170     1.0000 0.46170  0.24740  0.82540  Biso   1.000  C
  C171     1.0000 0.47920  0.20930  0.84290  Biso   1.000  C
  H93      1.0000 0.50460  0.19800  0.83000  Biso   1.000  H
  C172     1.0000 0.45940  0.18770  0.87950  Biso   1.000  C
  H94      1.0000 0.47100  0.16180  0.89070  Biso   1.000  H
  C173     1.0000 0.48350  0.27270  0.78620  Biso   1.000  C
  C174     1.0000 0.48350  0.31610  0.78570  Biso   1.000  C
  H95      1.0000 0.47180  0.33080  0.81080  Biso   1.000  H
  C175     1.0000 0.53889  0.40942  0.74931  Biso   1.000  C
  C176     1.0000 0.58113  0.38737  0.74980  Biso   1.000  C
  H96      1.0000 0.58570  0.35740  0.74980  Biso   1.000  H
  O33      1.0000 0.69842  0.86583  0.95194  Biso   1.000  O
  O34      1.0000 0.64587  0.91766  0.95156  Biso   1.000  O
  C177     1.0000 0.67950  0.90140  0.93770  Biso   1.000  C
  C178     1.0000 0.70550  0.92150  0.89940  Biso   1.000  C
  C179     1.0000 0.74340  0.90460  0.88200  Biso   1.000  C
  H97      1.0000 0.75440  0.87920  0.89500  Biso   1.000  H
  C180     1.0000 0.76580  0.92350  0.84650  Biso   1.000  C
  H98      1.0000 0.79210  0.91210  0.83620  Biso   1.000  H
  C181     1.0000 0.74740  0.96170  0.82540  Biso   1.000  C
  C182     1.0000 0.70930  0.97920  0.84290  Biso   1.000  C
  H99      1.0000 0.69800  0.00460  0.83000  Biso   1.000  H
  C183     1.0000 0.68770  0.95940  0.87950  Biso   1.000  C
  H100     1.0000 0.66180  0.97100  0.89070  Biso   1.000  H
  C184     1.0000 0.77270  0.98350  0.78620  Biso   1.000  C
  C185     1.0000 0.81610  0.98350  0.78570  Biso   1.000  C
  H101     1.0000 0.83080  0.97180  0.81080  Biso   1.000  H
  C186     1.0000 0.90942  0.03889  0.74931  Biso   1.000  C
  C187     1.0000 0.88737  0.08113  0.74980  Biso   1.000  C
  H102     1.0000 0.85740  0.08570  0.74980  Biso   1.000  H
  O35      1.0000 0.19842  0.36583  0.45194  Biso   1.000  O
  O36      1.0000 0.14587  0.41766  0.45156  Biso   1.000  O
  C188     1.0000 0.17950  0.40140  0.43770  Biso   1.000  C
  C189     1.0000 0.20550  0.42150  0.39940  Biso   1.000  C
  C190     1.0000 0.24340  0.40460  0.38200  Biso   1.000  C
  H103     1.0000 0.25440  0.37920  0.39500  Biso   1.000  H
  C191     1.0000 0.26580  0.42350  0.34650  Biso   1.000  C
  H104     1.0000 0.29210  0.41210  0.33620  Biso   1.000  H
  C192     1.0000 0.24740  0.46170  0.32540  Biso   1.000  C
  C193     1.0000 0.20930  0.47920  0.34290  Biso   1.000  C
  H105     1.0000 0.19800  0.50460  0.33000  Biso   1.000  H
  C194     1.0000 0.18770  0.45940  0.37950  Biso   1.000  C
  H106     1.0000 0.16180  0.47100  0.39070  Biso   1.000  H
  C195     1.0000 0.27270  0.48350  0.28620  Biso   1.000  C
  C196     1.0000 0.31610  0.48350  0.28570  Biso   1.000  C
  H107     1.0000 0.33080  0.47180  0.31080  Biso   1.000  H
  C197     1.0000 0.40942  0.53889  0.24931  Biso   1.000  C
  C198     1.0000 0.38737  0.58113  0.24980  Biso   1.000  C
  H108     1.0000 0.35740  0.58570  0.24980  Biso   1.000  H
  O37      1.0000 0.30158  0.13417  0.95194  Biso   1.000  O
  O38      1.0000 0.35413  0.08234  0.95156  Biso   1.000  O
  C199     1.0000 0.32050  0.09860  0.93770  Biso   1.000  C
  C200     1.0000 0.29450  0.07850  0.89940  Biso   1.000  C
  C201     1.0000 0.25660  0.09540  0.88200  Biso   1.000  C
  H109     1.0000 0.24560  0.12080  0.89500  Biso   1.000  H
  C202     1.0000 0.23420  0.07650  0.84650  Biso   1.000  C
  H110     1.0000 0.20790  0.08790  0.83620  Biso   1.000  H
  C203     1.0000 0.25260  0.03830  0.82540  Biso   1.000  C
  C204     1.0000 0.29070  0.02080  0.84290  Biso   1.000  C
  H111     1.0000 0.30200  0.99540  0.83000  Biso   1.000  H
  C205     1.0000 0.31230  0.04060  0.87950  Biso   1.000  C
  H112     1.0000 0.33820  0.02900  0.89070  Biso   1.000  H
  C206     1.0000 0.22730  0.01650  0.78620  Biso   1.000  C
  C207     1.0000 0.18390  0.01650  0.78570  Biso   1.000  C
  H113     1.0000 0.16920  0.02820  0.81080  Biso   1.000  H
  C208     1.0000 0.09058  0.96111  0.74931  Biso   1.000  C
  C209     1.0000 0.11263  0.91887  0.74980  Biso   1.000  C
  H114     1.0000 0.14260  0.91430  0.74980  Biso   1.000  H
  O39      1.0000 0.80158  0.63417  0.45194  Biso   1.000  O
  O40      1.0000 0.85413  0.58234  0.45156  Biso   1.000  O
  C210     1.0000 0.82050  0.59860  0.43770  Biso   1.000  C
  C211     1.0000 0.79450  0.57850  0.39940  Biso   1.000  C
  C212     1.0000 0.75660  0.59540  0.38200  Biso   1.000  C
  H115     1.0000 0.74560  0.62080  0.39500  Biso   1.000  H
  C213     1.0000 0.73420  0.57650  0.34650  Biso   1.000  C
  H116     1.0000 0.70790  0.58790  0.33620  Biso   1.000  H
  C214     1.0000 0.75260  0.53830  0.32540  Biso   1.000  C
  C215     1.0000 0.79070  0.52080  0.34290  Biso   1.000  C
  H117     1.0000 0.80200  0.49540  0.33000  Biso   1.000  H
  C216     1.0000 0.81230  0.54060  0.37950  Biso   1.000  C
  H118     1.0000 0.83820  0.52900  0.39070  Biso   1.000  H
  C217     1.0000 0.72730  0.51650  0.28620  Biso   1.000  C
  C218     1.0000 0.68390  0.51650  0.28570  Biso   1.000  C
  H119     1.0000 0.66920  0.52820  0.31080  Biso   1.000  H
  C219     1.0000 0.59058  0.46111  0.24931  Biso   1.000  C
  C220     1.0000 0.61263  0.41887  0.24980  Biso   1.000  C
  H120     1.0000 0.64260  0.41430  0.24980  Biso   1.000  H
  O41      1.0000 0.13417  0.69842  0.95194  Biso   1.000  O
  O42      1.0000 0.08234  0.64587  0.95156  Biso   1.000  O
  C221     1.0000 0.09860  0.67950  0.93770  Biso   1.000  C
  C222     1.0000 0.07850  0.70550  0.89940  Biso   1.000  C
  C223     1.0000 0.09540  0.74340  0.88200  Biso   1.000  C
  H121     1.0000 0.12080  0.75440  0.89500  Biso   1.000  H
  C224     1.0000 0.07650  0.76580  0.84650  Biso   1.000  C
  H122     1.0000 0.08790  0.79210  0.83620  Biso   1.000  H
  C225     1.0000 0.03830  0.74740  0.82540  Biso   1.000  C
  C226     1.0000 0.02080  0.70930  0.84290  Biso   1.000  C
  H123     1.0000 0.99540  0.69800  0.83000  Biso   1.000  H
  C227     1.0000 0.04060  0.68770  0.87950  Biso   1.000  C
  H124     1.0000 0.02900  0.66180  0.89070  Biso   1.000  H
  C228     1.0000 0.01650  0.77270  0.78620  Biso   1.000  C
  C229     1.0000 0.01650  0.81610  0.78570  Biso   1.000  C
  H125     1.0000 0.02820  0.83080  0.81080  Biso   1.000  H
  C230     1.0000 0.96111  0.90942  0.74931  Biso   1.000  C
  C231     1.0000 0.91887  0.88737  0.74980  Biso   1.000  C
  H126     1.0000 0.91430  0.85740  0.74980  Biso   1.000  H
  O43      1.0000 0.63417  0.19842  0.45194  Biso   1.000  O
  O44      1.0000 0.58234  0.14587  0.45156  Biso   1.000  O
  C232     1.0000 0.59860  0.17950  0.43770  Biso   1.000  C
  C233     1.0000 0.57850  0.20550  0.39940  Biso   1.000  C
  C234     1.0000 0.59540  0.24340  0.38200  Biso   1.000  C
  H127     1.0000 0.62080  0.25440  0.39500  Biso   1.000  H
  C235     1.0000 0.57650  0.26580  0.34650  Biso   1.000  C
  H128     1.0000 0.58790  0.29210  0.33620  Biso   1.000  H
  C236     1.0000 0.53830  0.24740  0.32540  Biso   1.000  C
  C237     1.0000 0.52080  0.20930  0.34290  Biso   1.000  C
  H129     1.0000 0.49540  0.19800  0.33000  Biso   1.000  H
  C238     1.0000 0.54060  0.18770  0.37950  Biso   1.000  C
  H130     1.0000 0.52900  0.16180  0.39070  Biso   1.000  H
  C239     1.0000 0.51650  0.27270  0.28620  Biso   1.000  C
  C240     1.0000 0.51650  0.31610  0.28570  Biso   1.000  C
  H131     1.0000 0.52820  0.33080  0.31080  Biso   1.000  H
  C241     1.0000 0.46111  0.40942  0.24931  Biso   1.000  C
  C242     1.0000 0.41887  0.38737  0.24980  Biso   1.000  C
  H132     1.0000 0.41430  0.35740  0.24980  Biso   1.000  H
  O45      1.0000 0.86583  0.30158  0.95194  Biso   1.000  O
  O46      1.0000 0.91766  0.35413  0.95156  Biso   1.000  O
  C243     1.0000 0.90140  0.32050  0.93770  Biso   1.000  C
  C244     1.0000 0.92150  0.29450  0.89940  Biso   1.000  C
  C245     1.0000 0.90460  0.25660  0.88200  Biso   1.000  C
  H133     1.0000 0.87920  0.24560  0.89500  Biso   1.000  H
  C246     1.0000 0.92350  0.23420  0.84650  Biso   1.000  C
  H134     1.0000 0.91210  0.20790  0.83620  Biso   1.000  H
  C247     1.0000 0.96170  0.25260  0.82540  Biso   1.000  C
  C248     1.0000 0.97920  0.29070  0.84290  Biso   1.000  C
  H135     1.0000 0.00460  0.30200  0.83000  Biso   1.000  H
  C249     1.0000 0.95940  0.31230  0.87950  Biso   1.000  C
  H136     1.0000 0.97100  0.33820  0.89070  Biso   1.000  H
  C250     1.0000 0.98350  0.22730  0.78620  Biso   1.000  C
  C251     1.0000 0.98350  0.18390  0.78570  Biso   1.000  C
  H137     1.0000 0.97180  0.16920  0.81080  Biso   1.000  H
  C252     1.0000 0.03889  0.09058  0.74931  Biso   1.000  C
  C253     1.0000 0.08113  0.11263  0.74980  Biso   1.000  C
  H138     1.0000 0.08570  0.14260  0.74980  Biso   1.000  H
  O47      1.0000 0.36583  0.80158  0.45194  Biso   1.000  O
  O48      1.0000 0.41766  0.85413  0.45156  Biso   1.000  O
  C254     1.0000 0.40140  0.82050  0.43770  Biso   1.000  C
  C255     1.0000 0.42150  0.79450  0.39940  Biso   1.000  C
  C256     1.0000 0.40460  0.75660  0.38200  Biso   1.000  C
  H139     1.0000 0.37920  0.74560  0.39500  Biso   1.000  H
  C257     1.0000 0.42350  0.73420  0.34650  Biso   1.000  C
  H140     1.0000 0.41210  0.70790  0.33620  Biso   1.000  H
  C258     1.0000 0.46170  0.75260  0.32540  Biso   1.000  C
  C259     1.0000 0.47920  0.79070  0.34290  Biso   1.000  C
  H141     1.0000 0.50460  0.80200  0.33000  Biso   1.000  H
  C260     1.0000 0.45940  0.81230  0.37950  Biso   1.000  C
  H142     1.0000 0.47100  0.83820  0.39070  Biso   1.000  H
  C261     1.0000 0.48350  0.72730  0.28620  Biso   1.000  C
  C262     1.0000 0.48350  0.68390  0.28570  Biso   1.000  C
  H143     1.0000 0.47180  0.66920  0.31080  Biso   1.000  H
  C263     1.0000 0.53889  0.59058  0.24931  Biso   1.000  C
  C264     1.0000 0.58113  0.61263  0.24980  Biso   1.000  C
  H144     1.0000 0.58570  0.64260  0.24980  Biso   1.000  H
  O49      1.0000 0.30158  0.86583  0.54806  Biso   1.000  O
  O50      1.0000 0.35413  0.91766  0.54844  Biso   1.000  O
  C265     1.0000 0.32050  0.90140  0.56230  Biso   1.000  C
  C266     1.0000 0.29450  0.92150  0.60060  Biso   1.000  C
  C267     1.0000 0.25660  0.90460  0.61800  Biso   1.000  C
  H145     1.0000 0.24560  0.87920  0.60500  Biso   1.000  H
  C268     1.0000 0.23420  0.92350  0.65350  Biso   1.000  C
  H146     1.0000 0.20790  0.91210  0.66380  Biso   1.000  H
  C269     1.0000 0.25260  0.96170  0.67460  Biso   1.000  C
  C270     1.0000 0.29070  0.97920  0.65710  Biso   1.000  C
  H147     1.0000 0.30200  0.00460  0.67000  Biso   1.000  H
  C271     1.0000 0.31230  0.95940  0.62050  Biso   1.000  C
  H148     1.0000 0.33820  0.97100  0.60930  Biso   1.000  H
  C272     1.0000 0.22730  0.98350  0.71380  Biso   1.000  C
  C273     1.0000 0.18390  0.98350  0.71430  Biso   1.000  C
  H149     1.0000 0.16920  0.97180  0.68920  Biso   1.000  H
  C274     1.0000 0.09058  0.03889  0.75069  Biso   1.000  C
  C275     1.0000 0.11263  0.08113  0.75020  Biso   1.000  C
  H150     1.0000 0.14260  0.08570  0.75020  Biso   1.000  H
  O51      1.0000 0.80158  0.36583  0.04806  Biso   1.000  O
  O52      1.0000 0.85413  0.41766  0.04844  Biso   1.000  O
  C276     1.0000 0.82050  0.40140  0.06230  Biso   1.000  C
  C277     1.0000 0.79450  0.42150  0.10060  Biso   1.000  C
  C278     1.0000 0.75660  0.40460  0.11800  Biso   1.000  C
  H151     1.0000 0.74560  0.37920  0.10500  Biso   1.000  H
  C279     1.0000 0.73420  0.42350  0.15350  Biso   1.000  C
  H152     1.0000 0.70790  0.41210  0.16380  Biso   1.000  H
  C280     1.0000 0.75260  0.46170  0.17460  Biso   1.000  C
  C281     1.0000 0.79070  0.47920  0.15710  Biso   1.000  C
  H153     1.0000 0.80200  0.50460  0.17000  Biso   1.000  H
  C282     1.0000 0.81230  0.45940  0.12050  Biso   1.000  C
  H154     1.0000 0.83820  0.47100  0.10930  Biso   1.000  H
  C283     1.0000 0.72730  0.48350  0.21380  Biso   1.000  C
  C284     1.0000 0.68390  0.48350  0.21430  Biso   1.000  C
  H155     1.0000 0.66920  0.47180  0.18920  Biso   1.000  H
  C285     1.0000 0.59058  0.53889  0.25069  Biso   1.000  C
  C286     1.0000 0.61263  0.58113  0.25020  Biso   1.000  C
  H156     1.0000 0.64260  0.58570  0.25020  Biso   1.000  H
  O53      1.0000 0.69842  0.13417  0.54806  Biso   1.000  O
  O54      1.0000 0.64587  0.08234  0.54844  Biso   1.000  O
  C287     1.0000 0.67950  0.09860  0.56230  Biso   1.000  C
  C288     1.0000 0.70550  0.07850  0.60060  Biso   1.000  C
  C289     1.0000 0.74340  0.09540  0.61800  Biso   1.000  C
  H157     1.0000 0.75440  0.12080  0.60500  Biso   1.000  H
  C290     1.0000 0.76580  0.07650  0.65350  Biso   1.000  C
  H158     1.0000 0.79210  0.08790  0.66380  Biso   1.000  H
  C291     1.0000 0.74740  0.03830  0.67460  Biso   1.000  C
  C292     1.0000 0.70930  0.02080  0.65710  Biso   1.000  C
  H159     1.0000 0.69800  0.99540  0.67000  Biso   1.000  H
  C293     1.0000 0.68770  0.04060  0.62050  Biso   1.000  C
  H160     1.0000 0.66180  0.02900  0.60930  Biso   1.000  H
  C294     1.0000 0.77270  0.01650  0.71380  Biso   1.000  C
  C295     1.0000 0.81610  0.01650  0.71430  Biso   1.000  C
  H161     1.0000 0.83080  0.02820  0.68920  Biso   1.000  H
  C296     1.0000 0.90942  0.96111  0.75069  Biso   1.000  C
  C297     1.0000 0.88737  0.91887  0.75020  Biso   1.000  C
  H162     1.0000 0.85740  0.91430  0.75020  Biso   1.000  H
  O55      1.0000 0.19842  0.63417  0.04806  Biso   1.000  O
  O56      1.0000 0.14587  0.58234  0.04844  Biso   1.000  O
  C298     1.0000 0.17950  0.59860  0.06230  Biso   1.000  C
  C299     1.0000 0.20550  0.57850  0.10060  Biso   1.000  C
  C300     1.0000 0.24340  0.59540  0.11800  Biso   1.000  C
  H163     1.0000 0.25440  0.62080  0.10500  Biso   1.000  H
  C301     1.0000 0.26580  0.57650  0.15350  Biso   1.000  C
  H164     1.0000 0.29210  0.58790  0.16380  Biso   1.000  H
  C302     1.0000 0.24740  0.53830  0.17460  Biso   1.000  C
  C303     1.0000 0.20930  0.52080  0.15710  Biso   1.000  C
  H165     1.0000 0.19800  0.49540  0.17000  Biso   1.000  H
  C304     1.0000 0.18770  0.54060  0.12050  Biso   1.000  C
  H166     1.0000 0.16180  0.52900  0.10930  Biso   1.000  H
  C305     1.0000 0.27270  0.51650  0.21380  Biso   1.000  C
  C306     1.0000 0.31610  0.51650  0.21430  Biso   1.000  C
  H167     1.0000 0.33080  0.52820  0.18920  Biso   1.000  H
  C307     1.0000 0.40942  0.46111  0.25069  Biso   1.000  C
  C308     1.0000 0.38737  0.41887  0.25020  Biso   1.000  C
  H168     1.0000 0.35740  0.41430  0.25020  Biso   1.000  H
  O57      1.0000 0.86583  0.69842  0.54806  Biso   1.000  O
  O58      1.0000 0.91766  0.64587  0.54844  Biso   1.000  O
  C309     1.0000 0.90140  0.67950  0.56230  Biso   1.000  C
  C310     1.0000 0.92150  0.70550  0.60060  Biso   1.000  C
  C311     1.0000 0.90460  0.74340  0.61800  Biso   1.000  C
  H169     1.0000 0.87920  0.75440  0.60500  Biso   1.000  H
  C312     1.0000 0.92350  0.76580  0.65350  Biso   1.000  C
  H170     1.0000 0.91210  0.79210  0.66380  Biso   1.000  H
  C313     1.0000 0.96170  0.74740  0.67460  Biso   1.000  C
  C314     1.0000 0.97920  0.70930  0.65710  Biso   1.000  C
  H171     1.0000 0.00460  0.69800  0.67000  Biso   1.000  H
  C315     1.0000 0.95940  0.68770  0.62050  Biso   1.000  C
  H172     1.0000 0.97100  0.66180  0.60930  Biso   1.000  H
  C316     1.0000 0.98350  0.77270  0.71380  Biso   1.000  C
  C317     1.0000 0.98350  0.81610  0.71430  Biso   1.000  C
  H173     1.0000 0.97180  0.83080  0.68920  Biso   1.000  H
  C318     1.0000 0.03889  0.90942  0.75069  Biso   1.000  C
  C319     1.0000 0.08113  0.88737  0.75020  Biso   1.000  C
  H174     1.0000 0.08570  0.85740  0.75020  Biso   1.000  H
  O59      1.0000 0.36583  0.19842  0.04806  Biso   1.000  O
  O60      1.0000 0.41766  0.14587  0.04844  Biso   1.000  O
  C320     1.0000 0.40140  0.17950  0.06230  Biso   1.000  C
  C321     1.0000 0.42150  0.20550  0.10060  Biso   1.000  C
  C322     1.0000 0.40460  0.24340  0.11800  Biso   1.000  C
  H175     1.0000 0.37920  0.25440  0.10500  Biso   1.000  H
  C323     1.0000 0.42350  0.26580  0.15350  Biso   1.000  C
  H176     1.0000 0.41210  0.29210  0.16380  Biso   1.000  H
  C324     1.0000 0.46170  0.24740  0.17460  Biso   1.000  C
  C325     1.0000 0.47920  0.20930  0.15710  Biso   1.000  C
  H177     1.0000 0.50460  0.19800  0.17000  Biso   1.000  H
  C326     1.0000 0.45940  0.18770  0.12050  Biso   1.000  C
  H178     1.0000 0.47100  0.16180  0.10930  Biso   1.000  H
  C327     1.0000 0.48350  0.27270  0.21380  Biso   1.000  C
  C328     1.0000 0.48350  0.31610  0.21430  Biso   1.000  C
  H179     1.0000 0.47180  0.33080  0.18920  Biso   1.000  H
  C329     1.0000 0.53889  0.40942  0.25069  Biso   1.000  C
  C330     1.0000 0.58113  0.38737  0.25020  Biso   1.000  C
  H180     1.0000 0.58570  0.35740  0.25020  Biso   1.000  H
  O61      1.0000 0.13417  0.30158  0.54806  Biso   1.000  O
  O62      1.0000 0.08234  0.35413  0.54844  Biso   1.000  O
  C331     1.0000 0.09860  0.32050  0.56230  Biso   1.000  C
  C332     1.0000 0.07850  0.29450  0.60060  Biso   1.000  C
  C333     1.0000 0.09540  0.25660  0.61800  Biso   1.000  C
  H181     1.0000 0.12080  0.24560  0.60500  Biso   1.000  H
  C334     1.0000 0.07650  0.23420  0.65350  Biso   1.000  C
  H182     1.0000 0.08790  0.20790  0.66380  Biso   1.000  H
  C335     1.0000 0.03830  0.25260  0.67460  Biso   1.000  C
  C336     1.0000 0.02080  0.29070  0.65710  Biso   1.000  C
  H183     1.0000 0.99540  0.30200  0.67000  Biso   1.000  H
  C337     1.0000 0.04060  0.31230  0.62050  Biso   1.000  C
  H184     1.0000 0.02900  0.33820  0.60930  Biso   1.000  H
  C338     1.0000 0.01650  0.22730  0.71380  Biso   1.000  C
  C339     1.0000 0.01650  0.18390  0.71430  Biso   1.000  C
  H185     1.0000 0.02820  0.16920  0.68920  Biso   1.000  H
  C340     1.0000 0.96111  0.09058  0.75069  Biso   1.000  C
  C341     1.0000 0.91887  0.11263  0.75020  Biso   1.000  C
  H186     1.0000 0.91430  0.14260  0.75020  Biso   1.000  H
  O63      1.0000 0.63417  0.80158  0.04806  Biso   1.000  O
  O64      1.0000 0.58234  0.85413  0.04844  Biso   1.000  O
  C342     1.0000 0.59860  0.82050  0.06230  Biso   1.000  C
  C343     1.0000 0.57850  0.79450  0.10060  Biso   1.000  C
  C344     1.0000 0.59540  0.75660  0.11800  Biso   1.000  C
  H187     1.0000 0.62080  0.74560  0.10500  Biso   1.000  H
  C345     1.0000 0.57650  0.73420  0.15350  Biso   1.000  C
  H188     1.0000 0.58790  0.70790  0.16380  Biso   1.000  H
  C346     1.0000 0.53830  0.75260  0.17460  Biso   1.000  C
  C347     1.0000 0.52080  0.79070  0.15710  Biso   1.000  C
  H189     1.0000 0.49540  0.80200  0.17000  Biso   1.000  H
  C348     1.0000 0.54060  0.81230  0.12050  Biso   1.000  C
  H190     1.0000 0.52900  0.83820  0.10930  Biso   1.000  H
  C349     1.0000 0.51650  0.72730  0.21380  Biso   1.000  C
  C350     1.0000 0.51650  0.68390  0.21430  Biso   1.000  C
  H191     1.0000 0.52820  0.66920  0.18920  Biso   1.000  H
  C351     1.0000 0.46111  0.59058  0.25069  Biso   1.000  C
  C352     1.0000 0.41887  0.61263  0.25020  Biso   1.000  C
  H192     1.0000 0.41430  0.64260  0.25020  Biso   1.000  H
  Zn1      1.0000 0.32512  0.17488  0.00000  Biso   1.000  Zn
  Zn2      1.0000 0.39350  0.10650  0.00000  Biso   1.000  Zn
  Zn3      1.0000 0.67488  0.82512  0.00000  Biso   1.000  Zn
  Zn4      1.0000 0.60650  0.89350  0.00000  Biso   1.000  Zn
  Zn5      1.0000 0.17488  0.32512  0.50000  Biso   1.000  Zn
  Zn6      1.0000 0.10650  0.39350  0.50000  Biso   1.000  Zn
  Zn7      1.0000 0.82512  0.32512  0.00000  Biso   1.000  Zn
  Zn8      1.0000 0.89350  0.39350  0.00000  Biso   1.000  Zn
  Zn9      1.0000 0.17488  0.67488  0.00000  Biso   1.000  Zn
  Zn10     1.0000 0.10650  0.60650  0.00000  Biso   1.000  Zn
  Zn11     1.0000 0.67488  0.17488  0.50000  Biso   1.000  Zn
  Zn12     1.0000 0.60650  0.10650  0.50000  Biso   1.000  Zn
  Zn13     1.0000 0.32512  0.82512  0.50000  Biso   1.000  Zn
  Zn14     1.0000 0.39350  0.89350  0.50000  Biso   1.000  Zn
  Zn15     1.0000 0.82512  0.67488  0.50000  Biso   1.000  Zn
  Zn16     1.0000 0.89350  0.60650  0.50000  Biso   1.000  Zn
  Zn17     1.0000 0.00000  0.00000  0.23781  Biso   1.000  Zn
  Zn18     1.0000 0.50000  0.50000  0.73781  Biso   1.000  Zn
  Zn19     1.0000 0.00000  0.00000  0.26219  Biso   1.000  Zn
  Zn20     1.0000 0.50000  0.50000  0.76219  Biso   1.000  Zn
  Zn21     1.0000 0.00000  0.00000  0.76219  Biso   1.000  Zn
  Zn22     1.0000 0.50000  0.50000  0.26219  Biso   1.000  Zn
  Zn23     1.0000 0.00000  0.00000  0.73781  Biso   1.000  Zn
  Zn24     1.0000 0.50000  0.50000  0.23781  Biso   1.000  Zn
  N1       1.0000 0.04779  0.95221  0.25000  Biso   1.000  N
  N2       1.0000 0.54779  0.45221  0.75000  Biso   1.000  N
  N3       1.0000 0.95221  0.04779  0.25000  Biso   1.000  N
  N4       1.0000 0.45221  0.54779  0.75000  Biso   1.000  N
  N5       1.0000 0.04779  0.04779  0.25000  Biso   1.000  N
  N6       1.0000 0.54779  0.54779  0.75000  Biso   1.000  N
  N7       1.0000 0.95221  0.95221  0.25000  Biso   1.000  N
  N8       1.0000 0.45221  0.45221  0.75000  Biso   1.000  N
  N9       1.0000 0.95221  0.04779  0.75000  Biso   1.000  N
  N10      1.0000 0.45221  0.54779  0.25000  Biso   1.000  N
  N11      1.0000 0.04779  0.95221  0.75000  Biso   1.000  N
  N12      1.0000 0.54779  0.45221  0.25000  Biso   1.000  N
  N13      1.0000 0.95221  0.95221  0.75000  Biso   1.000  N
  N14      1.0000 0.45221  0.45221  0.25000  Biso   1.000  N
  N15      1.0000 0.04779  0.04779  0.75000  Biso   1.000  N
  N16      1.0000 0.54779  0.54779  0.25000  Biso   1.000  N
  C353     1.0000 0.24980  0.00000  0.25000  Biso   1.000  C
  H193     1.0000 0.28010  0.00000  0.25000  Biso   1.000  H
  C354     1.0000 0.16010  0.00000  0.25000  Biso   1.000  C
  C355     1.0000 0.11330  0.00000  0.25000  Biso   1.000  C
  C356     1.0000 0.74980  0.50000  0.75000  Biso   1.000  C
  H194     1.0000 0.78010  0.50000  0.75000  Biso   1.000  H
  C357     1.0000 0.66010  0.50000  0.75000  Biso   1.000  C
  C358     1.0000 0.61330  0.50000  0.75000  Biso   1.000  C
  C359     1.0000 0.75020  0.00000  0.25000  Biso   1.000  C
  H195     1.0000 0.71990  0.00000  0.25000  Biso   1.000  H
  C360     1.0000 0.83990  0.00000  0.25000  Biso   1.000  C
  C361     1.0000 0.88670  0.00000  0.25000  Biso   1.000  C
  C362     1.0000 0.25020  0.50000  0.75000  Biso   1.000  C
  H196     1.0000 0.21990  0.50000  0.75000  Biso   1.000  H
  C363     1.0000 0.33990  0.50000  0.75000  Biso   1.000  C
  C364     1.0000 0.38670  0.50000  0.75000  Biso   1.000  C
  C365     1.0000 0.00000  0.24980  0.25000  Biso   1.000  C
  H197     1.0000 0.00000  0.28010  0.25000  Biso   1.000  H
  C366     1.0000 0.00000  0.16010  0.25000  Biso   1.000  C
  C367     1.0000 0.00000  0.11330  0.25000  Biso   1.000  C
  C368     1.0000 0.50000  0.74980  0.75000  Biso   1.000  C
  H198     1.0000 0.50000  0.78010  0.75000  Biso   1.000  H
  C369     1.0000 0.50000  0.66010  0.75000  Biso   1.000  C
  C370     1.0000 0.50000  0.61330  0.75000  Biso   1.000  C
  C371     1.0000 0.00000  0.75020  0.25000  Biso   1.000  C
  H199     1.0000 0.00000  0.71990  0.25000  Biso   1.000  H
  C372     1.0000 0.00000  0.83990  0.25000  Biso   1.000  C
  C373     1.0000 0.00000  0.88670  0.25000  Biso   1.000  C
  C374     1.0000 0.50000  0.25020  0.75000  Biso   1.000  C
  H200     1.0000 0.50000  0.21990  0.75000  Biso   1.000  H
  C375     1.0000 0.50000  0.33990  0.75000  Biso   1.000  C
  C376     1.0000 0.50000  0.38670  0.75000  Biso   1.000  C
  C377     1.0000 0.75020  0.00000  0.75000  Biso   1.000  C
  H201     1.0000 0.71990  0.00000  0.75000  Biso   1.000  H
  C378     1.0000 0.83990  0.00000  0.75000  Biso   1.000  C
  C379     1.0000 0.88670  0.00000  0.75000  Biso   1.000  C
  C380     1.0000 0.25020  0.50000  0.25000  Biso   1.000  C
  H202     1.0000 0.21990  0.50000  0.25000  Biso   1.000  H
  C381     1.0000 0.33990  0.50000  0.25000  Biso   1.000  C
  C382     1.0000 0.38670  0.50000  0.25000  Biso   1.000  C
  C383     1.0000 0.24980  0.00000  0.75000  Biso   1.000  C
  H203     1.0000 0.28010  0.00000  0.75000  Biso   1.000  H
  C384     1.0000 0.16010  0.00000  0.75000  Biso   1.000  C
  C385     1.0000 0.11330  0.00000  0.75000  Biso   1.000  C
  C386     1.0000 0.74980  0.50000  0.25000  Biso   1.000  C
  H204     1.0000 0.78010  0.50000  0.25000  Biso   1.000  H
  C387     1.0000 0.66010  0.50000  0.25000  Biso   1.000  C
  C388     1.0000 0.61330  0.50000  0.25000  Biso   1.000  C
  C389     1.0000 0.00000  0.75020  0.75000  Biso   1.000  C
  H205     1.0000 0.00000  0.71990  0.75000  Biso   1.000  H
  C390     1.0000 0.00000  0.83990  0.75000  Biso   1.000  C
  C391     1.0000 0.00000  0.88670  0.75000  Biso   1.000  C
  C392     1.0000 0.50000  0.25020  0.25000  Biso   1.000  C
  H206     1.0000 0.50000  0.21990  0.25000  Biso   1.000  H
  C393     1.0000 0.50000  0.33990  0.25000  Biso   1.000  C
  C394     1.0000 0.50000  0.38670  0.25000  Biso   1.000  C
  C395     1.0000 0.00000  0.24980  0.75000  Biso   1.000  C
  H207     1.0000 0.00000  0.28010  0.75000  Biso   1.000  H
  C396     1.0000 0.00000  0.16010  0.75000  Biso   1.000  C
  C397     1.0000 0.00000  0.11330  0.75000  Biso   1.000  C
  C398     1.0000 0.50000  0.74980  0.25000  Biso   1.000  C
  H208     1.0000 0.50000  0.78010  0.25000  Biso   1.000  H
  C399     1.0000 0.50000  0.66010  0.25000  Biso   1.000  C
  C400     1.0000 0.50000  0.61330  0.25000  Biso   1.000  C
