data_image0
_cell_length_a       23.1853
_cell_length_b       23.1853
_cell_length_c       23.1853
_cell_angle_alpha    90
_cell_angle_beta     90
_cell_angle_gamma    90

_symmetry_space_group_name_H-M    "P 1"
_symmetry_int_tables_number       1

loop_
  _symmetry_equiv_pos_as_xyz
  'x, y, z'

loop_
  _atom_site_label
  _atom_site_occupancy
  _atom_site_fract_x
  _atom_site_fract_y
  _atom_site_fract_z
  _atom_site_thermal_displace_type
  _atom_site_B_iso_or_equiv
  _atom_site_type_symbol
  Ni1      1.0000 0.06388  0.06388  0.06388  Biso   1.000  Ni
  Ni2      1.0000 0.06388  0.56388  0.56388  Biso   1.000  Ni
  Ni3      1.0000 0.56388  0.06388  0.56388  Biso   1.000  Ni
  Ni4      1.0000 0.56388  0.56388  0.06388  Biso   1.000  Ni
  Ni5      1.0000 0.93612  0.93612  0.06388  Biso   1.000  Ni
  Ni6      1.0000 0.93612  0.43612  0.56388  Biso   1.000  Ni
  Ni7      1.0000 0.43612  0.93612  0.56388  Biso   1.000  Ni
  Ni8      1.0000 0.43612  0.43612  0.06388  Biso   1.000  Ni
  Ni9      1.0000 0.93612  0.06388  0.93612  Biso   1.000  Ni
  Ni10     1.0000 0.93612  0.56388  0.43612  Biso   1.000  Ni
  Ni11     1.0000 0.43612  0.06388  0.43612  Biso   1.000  Ni
  Ni12     1.0000 0.43612  0.56388  0.93612  Biso   1.000  Ni
  Ni13     1.0000 0.06388  0.93612  0.93612  Biso   1.000  Ni
  Ni14     1.0000 0.06388  0.43612  0.43612  Biso   1.000  Ni
  Ni15     1.0000 0.56388  0.93612  0.43612  Biso   1.000  Ni
  Ni16     1.0000 0.56388  0.43612  0.93612  Biso   1.000  Ni
  Ni17     1.0000 0.06388  0.06388  0.93612  Biso   1.000  Ni
  Ni18     1.0000 0.06388  0.56388  0.43612  Biso   1.000  Ni
  Ni19     1.0000 0.56388  0.06388  0.43612  Biso   1.000  Ni
  Ni20     1.0000 0.56388  0.56388  0.93612  Biso   1.000  Ni
  Ni21     1.0000 0.93612  0.93612  0.93612  Biso   1.000  Ni
  Ni22     1.0000 0.93612  0.43612  0.43612  Biso   1.000  Ni
  Ni23     1.0000 0.43612  0.93612  0.43612  Biso   1.000  Ni
  Ni24     1.0000 0.43612  0.43612  0.93612  Biso   1.000  Ni
  Ni25     1.0000 0.06388  0.93612  0.06388  Biso   1.000  Ni
  Ni26     1.0000 0.06388  0.43612  0.56388  Biso   1.000  Ni
  Ni27     1.0000 0.56388  0.93612  0.56388  Biso   1.000  Ni
  Ni28     1.0000 0.56388  0.43612  0.06388  Biso   1.000  Ni
  Ni29     1.0000 0.93612  0.06388  0.06388  Biso   1.000  Ni
  Ni30     1.0000 0.93612  0.56388  0.56388  Biso   1.000  Ni
  Ni31     1.0000 0.43612  0.06388  0.56388  Biso   1.000  Ni
  Ni32     1.0000 0.43612  0.56388  0.06388  Biso   1.000  Ni
  O1       1.0000 0.09290  0.00000  0.00000  Biso   1.000  O
  H1       1.0000 0.13000  0.00000  0.00000  Biso   1.000  H
  O2       1.0000 0.09290  0.50000  0.50000  Biso   1.000  O
  H2       1.0000 0.13000  0.50000  0.50000  Biso   1.000  H
  O3       1.0000 0.59290  0.00000  0.50000  Biso   1.000  O
  H3       1.0000 0.63000  0.00000  0.50000  Biso   1.000  H
  O4       1.0000 0.59290  0.50000  0.00000  Biso   1.000  O
  H4       1.0000 0.63000  0.50000  0.00000  Biso   1.000  H
  O5       1.0000 0.90710  0.00000  0.00000  Biso   1.000  O
  H5       1.0000 0.87000  0.00000  0.00000  Biso   1.000  H
  O6       1.0000 0.90710  0.50000  0.50000  Biso   1.000  O
  H6       1.0000 0.87000  0.50000  0.50000  Biso   1.000  H
  O7       1.0000 0.40710  0.00000  0.50000  Biso   1.000  O
  H7       1.0000 0.37000  0.00000  0.50000  Biso   1.000  H
  O8       1.0000 0.40710  0.50000  0.00000  Biso   1.000  O
  H8       1.0000 0.37000  0.50000  0.00000  Biso   1.000  H
  O9       1.0000 0.00000  0.09290  0.00000  Biso   1.000  O
  H9       1.0000 0.00000  0.13000  0.00000  Biso   1.000  H
  O10      1.0000 0.00000  0.59290  0.50000  Biso   1.000  O
  H10      1.0000 0.00000  0.63000  0.50000  Biso   1.000  H
  O11      1.0000 0.50000  0.09290  0.50000  Biso   1.000  O
  H11      1.0000 0.50000  0.13000  0.50000  Biso   1.000  H
  O12      1.0000 0.50000  0.59290  0.00000  Biso   1.000  O
  H12      1.0000 0.50000  0.63000  0.00000  Biso   1.000  H
  O13      1.0000 0.00000  0.90710  0.00000  Biso   1.000  O
  H13      1.0000 0.00000  0.87000  0.00000  Biso   1.000  H
  O14      1.0000 0.00000  0.40710  0.50000  Biso   1.000  O
  H14      1.0000 0.00000  0.37000  0.50000  Biso   1.000  H
  O15      1.0000 0.50000  0.90710  0.50000  Biso   1.000  O
  H15      1.0000 0.50000  0.87000  0.50000  Biso   1.000  H
  O16      1.0000 0.50000  0.40710  0.00000  Biso   1.000  O
  H16      1.0000 0.50000  0.37000  0.00000  Biso   1.000  H
  O17      1.0000 0.00000  0.00000  0.09290  Biso   1.000  O
  H17      1.0000 0.00000  0.00000  0.13000  Biso   1.000  H
  O18      1.0000 0.00000  0.50000  0.59290  Biso   1.000  O
  H18      1.0000 0.00000  0.50000  0.63000  Biso   1.000  H
  O19      1.0000 0.50000  0.00000  0.59290  Biso   1.000  O
  H19      1.0000 0.50000  0.00000  0.63000  Biso   1.000  H
  O20      1.0000 0.50000  0.50000  0.09290  Biso   1.000  O
  H20      1.0000 0.50000  0.50000  0.13000  Biso   1.000  H
  O21      1.0000 0.00000  0.00000  0.90710  Biso   1.000  O
  H21      1.0000 0.00000  0.00000  0.87000  Biso   1.000  H
  O22      1.0000 0.00000  0.50000  0.40710  Biso   1.000  O
  H22      1.0000 0.00000  0.50000  0.37000  Biso   1.000  H
  O23      1.0000 0.50000  0.00000  0.40710  Biso   1.000  O
  H23      1.0000 0.50000  0.00000  0.37000  Biso   1.000  H
  O24      1.0000 0.50000  0.50000  0.90710  Biso   1.000  O
  H24      1.0000 0.50000  0.50000  0.87000  Biso   1.000  H
  C1       1.0000 0.26712  0.26712  0.00000  Biso   1.000  C
  C2       1.0000 0.18234  0.18234  0.00000  Biso   1.000  C
  C3       1.0000 0.13811  0.13811  0.00000  Biso   1.000  C
  C4       1.0000 0.31134  0.31134  0.00000  Biso   1.000  C
  C5       1.0000 0.26712  0.76712  0.50000  Biso   1.000  C
  C6       1.0000 0.18234  0.68234  0.50000  Biso   1.000  C
  C7       1.0000 0.13811  0.63811  0.50000  Biso   1.000  C
  C8       1.0000 0.31134  0.81134  0.50000  Biso   1.000  C
  C9       1.0000 0.76712  0.26712  0.50000  Biso   1.000  C
  C10      1.0000 0.68234  0.18234  0.50000  Biso   1.000  C
  C11      1.0000 0.63811  0.13811  0.50000  Biso   1.000  C
  C12      1.0000 0.81134  0.31134  0.50000  Biso   1.000  C
  C13      1.0000 0.76712  0.76712  0.00000  Biso   1.000  C
  C14      1.0000 0.68234  0.68234  0.00000  Biso   1.000  C
  C15      1.0000 0.63811  0.63811  0.00000  Biso   1.000  C
  C16      1.0000 0.81134  0.81134  0.00000  Biso   1.000  C
  C17      1.0000 0.73288  0.73288  0.00000  Biso   1.000  C
  C18      1.0000 0.81766  0.81766  0.00000  Biso   1.000  C
  C19      1.0000 0.86189  0.86189  0.00000  Biso   1.000  C
  C20      1.0000 0.68866  0.68866  0.00000  Biso   1.000  C
  C21      1.0000 0.73288  0.23288  0.50000  Biso   1.000  C
  C22      1.0000 0.81766  0.31766  0.50000  Biso   1.000  C
  C23      1.0000 0.86189  0.36189  0.50000  Biso   1.000  C
  C24      1.0000 0.68866  0.18866  0.50000  Biso   1.000  C
  C25      1.0000 0.23288  0.73288  0.50000  Biso   1.000  C
  C26      1.0000 0.31766  0.81766  0.50000  Biso   1.000  C
  C27      1.0000 0.36189  0.86189  0.50000  Biso   1.000  C
  C28      1.0000 0.18866  0.68866  0.50000  Biso   1.000  C
  C29      1.0000 0.23288  0.23288  0.00000  Biso   1.000  C
  C30      1.0000 0.31766  0.31766  0.00000  Biso   1.000  C
  C31      1.0000 0.36189  0.36189  0.00000  Biso   1.000  C
  C32      1.0000 0.18866  0.18866  0.00000  Biso   1.000  C
  C33      1.0000 0.73288  0.26712  0.00000  Biso   1.000  C
  C34      1.0000 0.81766  0.18234  0.00000  Biso   1.000  C
  C35      1.0000 0.86189  0.13811  0.00000  Biso   1.000  C
  C36      1.0000 0.68866  0.31134  0.00000  Biso   1.000  C
  C37      1.0000 0.73288  0.76712  0.50000  Biso   1.000  C
  C38      1.0000 0.81766  0.68234  0.50000  Biso   1.000  C
  C39      1.0000 0.86189  0.63811  0.50000  Biso   1.000  C
  C40      1.0000 0.68866  0.81134  0.50000  Biso   1.000  C
  C41      1.0000 0.23288  0.26712  0.50000  Biso   1.000  C
  C42      1.0000 0.31766  0.18234  0.50000  Biso   1.000  C
  C43      1.0000 0.36189  0.13811  0.50000  Biso   1.000  C
  C44      1.0000 0.18866  0.31134  0.50000  Biso   1.000  C
  C45      1.0000 0.23288  0.76712  0.00000  Biso   1.000  C
  C46      1.0000 0.31766  0.68234  0.00000  Biso   1.000  C
  C47      1.0000 0.36189  0.63811  0.00000  Biso   1.000  C
  C48      1.0000 0.18866  0.81134  0.00000  Biso   1.000  C
  C49      1.0000 0.26712  0.73288  0.00000  Biso   1.000  C
  C50      1.0000 0.18234  0.81766  0.00000  Biso   1.000  C
  C51      1.0000 0.13811  0.86189  0.00000  Biso   1.000  C
  C52      1.0000 0.31134  0.68866  0.00000  Biso   1.000  C
  C53      1.0000 0.26712  0.23288  0.50000  Biso   1.000  C
  C54      1.0000 0.18234  0.31766  0.50000  Biso   1.000  C
  C55      1.0000 0.13811  0.36189  0.50000  Biso   1.000  C
  C56      1.0000 0.31134  0.18866  0.50000  Biso   1.000  C
  C57      1.0000 0.76712  0.73288  0.50000  Biso   1.000  C
  C58      1.0000 0.68234  0.81766  0.50000  Biso   1.000  C
  C59      1.0000 0.63811  0.86189  0.50000  Biso   1.000  C
  C60      1.0000 0.81134  0.68866  0.50000  Biso   1.000  C
  C61      1.0000 0.76712  0.23288  0.00000  Biso   1.000  C
  C62      1.0000 0.68234  0.31766  0.00000  Biso   1.000  C
  C63      1.0000 0.63811  0.36189  0.00000  Biso   1.000  C
  C64      1.0000 0.81134  0.18866  0.00000  Biso   1.000  C
  C65      1.0000 0.00000  0.26712  0.26712  Biso   1.000  C
  C66      1.0000 0.00000  0.18234  0.18234  Biso   1.000  C
  C67      1.0000 0.00000  0.13811  0.13811  Biso   1.000  C
  C68      1.0000 0.00000  0.31134  0.31134  Biso   1.000  C
  C69      1.0000 0.00000  0.76712  0.76712  Biso   1.000  C
  C70      1.0000 0.00000  0.68234  0.68234  Biso   1.000  C
  C71      1.0000 0.00000  0.63811  0.63811  Biso   1.000  C
  C72      1.0000 0.00000  0.81134  0.81134  Biso   1.000  C
  C73      1.0000 0.50000  0.26712  0.76712  Biso   1.000  C
  C74      1.0000 0.50000  0.18234  0.68234  Biso   1.000  C
  C75      1.0000 0.50000  0.13811  0.63811  Biso   1.000  C
  C76      1.0000 0.50000  0.31134  0.81134  Biso   1.000  C
  C77      1.0000 0.50000  0.76712  0.26712  Biso   1.000  C
  C78      1.0000 0.50000  0.68234  0.18234  Biso   1.000  C
  C79      1.0000 0.50000  0.63811  0.13811  Biso   1.000  C
  C80      1.0000 0.50000  0.81134  0.31134  Biso   1.000  C
  C81      1.0000 0.00000  0.73288  0.73288  Biso   1.000  C
  C82      1.0000 0.00000  0.81766  0.81766  Biso   1.000  C
  C83      1.0000 0.00000  0.86189  0.86189  Biso   1.000  C
  C84      1.0000 0.00000  0.68866  0.68866  Biso   1.000  C
  C85      1.0000 0.00000  0.23288  0.23288  Biso   1.000  C
  C86      1.0000 0.00000  0.31766  0.31766  Biso   1.000  C
  C87      1.0000 0.00000  0.36189  0.36189  Biso   1.000  C
  C88      1.0000 0.00000  0.18866  0.18866  Biso   1.000  C
  C89      1.0000 0.50000  0.73288  0.23288  Biso   1.000  C
  C90      1.0000 0.50000  0.81766  0.31766  Biso   1.000  C
  C91      1.0000 0.50000  0.86189  0.36189  Biso   1.000  C
  C92      1.0000 0.50000  0.68866  0.18866  Biso   1.000  C
  C93      1.0000 0.50000  0.23288  0.73288  Biso   1.000  C
  C94      1.0000 0.50000  0.31766  0.81766  Biso   1.000  C
  C95      1.0000 0.50000  0.36189  0.86189  Biso   1.000  C
  C96      1.0000 0.50000  0.18866  0.68866  Biso   1.000  C
  C97      1.0000 0.00000  0.73288  0.26712  Biso   1.000  C
  C98      1.0000 0.00000  0.81766  0.18234  Biso   1.000  C
  C99      1.0000 0.00000  0.86189  0.13811  Biso   1.000  C
  C100     1.0000 0.00000  0.68866  0.31134  Biso   1.000  C
  C101     1.0000 0.00000  0.23288  0.76712  Biso   1.000  C
  C102     1.0000 0.00000  0.31766  0.68234  Biso   1.000  C
  C103     1.0000 0.00000  0.36189  0.63811  Biso   1.000  C
  C104     1.0000 0.00000  0.18866  0.81134  Biso   1.000  C
  C105     1.0000 0.50000  0.73288  0.76712  Biso   1.000  C
  C106     1.0000 0.50000  0.81766  0.68234  Biso   1.000  C
  C107     1.0000 0.50000  0.86189  0.63811  Biso   1.000  C
  C108     1.0000 0.50000  0.68866  0.81134  Biso   1.000  C
  C109     1.0000 0.50000  0.23288  0.26712  Biso   1.000  C
  C110     1.0000 0.50000  0.31766  0.18234  Biso   1.000  C
  C111     1.0000 0.50000  0.36189  0.13811  Biso   1.000  C
  C112     1.0000 0.50000  0.18866  0.31134  Biso   1.000  C
  C113     1.0000 0.00000  0.26712  0.73288  Biso   1.000  C
  C114     1.0000 0.00000  0.18234  0.81766  Biso   1.000  C
  C115     1.0000 0.00000  0.13811  0.86189  Biso   1.000  C
  C116     1.0000 0.00000  0.31134  0.68866  Biso   1.000  C
  C117     1.0000 0.00000  0.76712  0.23288  Biso   1.000  C
  C118     1.0000 0.00000  0.68234  0.31766  Biso   1.000  C
  C119     1.0000 0.00000  0.63811  0.36189  Biso   1.000  C
  C120     1.0000 0.00000  0.81134  0.18866  Biso   1.000  C
  C121     1.0000 0.50000  0.26712  0.23288  Biso   1.000  C
  C122     1.0000 0.50000  0.18234  0.31766  Biso   1.000  C
  C123     1.0000 0.50000  0.13811  0.36189  Biso   1.000  C
  C124     1.0000 0.50000  0.31134  0.18866  Biso   1.000  C
  C125     1.0000 0.50000  0.76712  0.73288  Biso   1.000  C
  C126     1.0000 0.50000  0.68234  0.81766  Biso   1.000  C
  C127     1.0000 0.50000  0.63811  0.86189  Biso   1.000  C
  C128     1.0000 0.50000  0.81134  0.68866  Biso   1.000  C
  C129     1.0000 0.26712  0.00000  0.26712  Biso   1.000  C
  C130     1.0000 0.18234  0.00000  0.18234  Biso   1.000  C
  C131     1.0000 0.13811  0.00000  0.13811  Biso   1.000  C
  C132     1.0000 0.31134  0.00000  0.31134  Biso   1.000  C
  C133     1.0000 0.26712  0.50000  0.76712  Biso   1.000  C
  C134     1.0000 0.18234  0.50000  0.68234  Biso   1.000  C
  C135     1.0000 0.13811  0.50000  0.63811  Biso   1.000  C
  C136     1.0000 0.31134  0.50000  0.81134  Biso   1.000  C
  C137     1.0000 0.76712  0.00000  0.76712  Biso   1.000  C
  C138     1.0000 0.68234  0.00000  0.68234  Biso   1.000  C
  C139     1.0000 0.63811  0.00000  0.63811  Biso   1.000  C
  C140     1.0000 0.81134  0.00000  0.81134  Biso   1.000  C
  C141     1.0000 0.76712  0.50000  0.26712  Biso   1.000  C
  C142     1.0000 0.68234  0.50000  0.18234  Biso   1.000  C
  C143     1.0000 0.63811  0.50000  0.13811  Biso   1.000  C
  C144     1.0000 0.81134  0.50000  0.31134  Biso   1.000  C
  C145     1.0000 0.73288  0.00000  0.73288  Biso   1.000  C
  C146     1.0000 0.81766  0.00000  0.81766  Biso   1.000  C
  C147     1.0000 0.86189  0.00000  0.86189  Biso   1.000  C
  C148     1.0000 0.68866  0.00000  0.68866  Biso   1.000  C
  C149     1.0000 0.73288  0.50000  0.23288  Biso   1.000  C
  C150     1.0000 0.81766  0.50000  0.31766  Biso   1.000  C
  C151     1.0000 0.86189  0.50000  0.36189  Biso   1.000  C
  C152     1.0000 0.68866  0.50000  0.18866  Biso   1.000  C
  C153     1.0000 0.23288  0.00000  0.23288  Biso   1.000  C
  C154     1.0000 0.31766  0.00000  0.31766  Biso   1.000  C
  C155     1.0000 0.36189  0.00000  0.36189  Biso   1.000  C
  C156     1.0000 0.18866  0.00000  0.18866  Biso   1.000  C
  C157     1.0000 0.23288  0.50000  0.73288  Biso   1.000  C
  C158     1.0000 0.31766  0.50000  0.81766  Biso   1.000  C
  C159     1.0000 0.36189  0.50000  0.86189  Biso   1.000  C
  C160     1.0000 0.18866  0.50000  0.68866  Biso   1.000  C
  C161     1.0000 0.26712  0.00000  0.73288  Biso   1.000  C
  C162     1.0000 0.18234  0.00000  0.81766  Biso   1.000  C
  C163     1.0000 0.13811  0.00000  0.86189  Biso   1.000  C
  C164     1.0000 0.31134  0.00000  0.68866  Biso   1.000  C
  C165     1.0000 0.26712  0.50000  0.23288  Biso   1.000  C
  C166     1.0000 0.18234  0.50000  0.31766  Biso   1.000  C
  C167     1.0000 0.13811  0.50000  0.36189  Biso   1.000  C
  C168     1.0000 0.31134  0.50000  0.18866  Biso   1.000  C
  C169     1.0000 0.76712  0.00000  0.23288  Biso   1.000  C
  C170     1.0000 0.68234  0.00000  0.31766  Biso   1.000  C
  C171     1.0000 0.63811  0.00000  0.36189  Biso   1.000  C
  C172     1.0000 0.81134  0.00000  0.18866  Biso   1.000  C
  C173     1.0000 0.76712  0.50000  0.73288  Biso   1.000  C
  C174     1.0000 0.68234  0.50000  0.81766  Biso   1.000  C
  C175     1.0000 0.63811  0.50000  0.86189  Biso   1.000  C
  C176     1.0000 0.81134  0.50000  0.68866  Biso   1.000  C
  C177     1.0000 0.73288  0.00000  0.26712  Biso   1.000  C
  C178     1.0000 0.81766  0.00000  0.18234  Biso   1.000  C
  C179     1.0000 0.86189  0.00000  0.13811  Biso   1.000  C
  C180     1.0000 0.68866  0.00000  0.31134  Biso   1.000  C
  C181     1.0000 0.73288  0.50000  0.76712  Biso   1.000  C
  C182     1.0000 0.81766  0.50000  0.68234  Biso   1.000  C
  C183     1.0000 0.86189  0.50000  0.63811  Biso   1.000  C
  C184     1.0000 0.68866  0.50000  0.81134  Biso   1.000  C
  C185     1.0000 0.23288  0.00000  0.76712  Biso   1.000  C
  C186     1.0000 0.31766  0.00000  0.68234  Biso   1.000  C
  C187     1.0000 0.36189  0.00000  0.63811  Biso   1.000  C
  C188     1.0000 0.18866  0.00000  0.81134  Biso   1.000  C
  C189     1.0000 0.23288  0.50000  0.26712  Biso   1.000  C
  C190     1.0000 0.31766  0.50000  0.18234  Biso   1.000  C
  C191     1.0000 0.36189  0.50000  0.13811  Biso   1.000  C
  C192     1.0000 0.18866  0.50000  0.31134  Biso   1.000  C
  C193     1.0000 0.24592  0.24592  0.94808  Biso   1.000  C
  H25      1.0000 0.26041  0.26041  0.91260  Biso   1.000  H
  C194     1.0000 0.20353  0.20353  0.94808  Biso   1.000  C
  H26      1.0000 0.18904  0.18904  0.91260  Biso   1.000  H
  O25      1.0000 0.11905  0.11905  0.95331  Biso   1.000  O
  C195     1.0000 0.33572  0.33572  0.95255  Biso   1.000  C
  H27      1.0000 0.32677  0.32677  0.91358  Biso   1.000  H
  N1       1.0000 0.37517  0.37517  0.97067  Biso   1.000  N
  C196     1.0000 0.24592  0.74592  0.44808  Biso   1.000  C
  H28      1.0000 0.26041  0.76041  0.41260  Biso   1.000  H
  C197     1.0000 0.20353  0.70353  0.44808  Biso   1.000  C
  H29      1.0000 0.18904  0.68904  0.41260  Biso   1.000  H
  O26      1.0000 0.11905  0.61905  0.45331  Biso   1.000  O
  C198     1.0000 0.33572  0.83572  0.45255  Biso   1.000  C
  H30      1.0000 0.32677  0.82677  0.41358  Biso   1.000  H
  N2       1.0000 0.37517  0.87517  0.47067  Biso   1.000  N
  C199     1.0000 0.74592  0.24592  0.44808  Biso   1.000  C
  H31      1.0000 0.76041  0.26041  0.41260  Biso   1.000  H
  C200     1.0000 0.70353  0.20353  0.44808  Biso   1.000  C
  H32      1.0000 0.68904  0.18904  0.41260  Biso   1.000  H
  O27      1.0000 0.61905  0.11905  0.45331  Biso   1.000  O
  C201     1.0000 0.83572  0.33572  0.45255  Biso   1.000  C
  H33      1.0000 0.82677  0.32677  0.41358  Biso   1.000  H
  N3       1.0000 0.87517  0.37517  0.47067  Biso   1.000  N
  C202     1.0000 0.74592  0.74592  0.94808  Biso   1.000  C
  H34      1.0000 0.76041  0.76041  0.91260  Biso   1.000  H
  C203     1.0000 0.70353  0.70353  0.94808  Biso   1.000  C
  H35      1.0000 0.68904  0.68904  0.91260  Biso   1.000  H
  O28      1.0000 0.61905  0.61905  0.95331  Biso   1.000  O
  C204     1.0000 0.83572  0.83572  0.95255  Biso   1.000  C
  H36      1.0000 0.82677  0.82677  0.91358  Biso   1.000  H
  N4       1.0000 0.87517  0.87517  0.97067  Biso   1.000  N
  C205     1.0000 0.75408  0.75408  0.94808  Biso   1.000  C
  H37      1.0000 0.73959  0.73959  0.91260  Biso   1.000  H
  C206     1.0000 0.79647  0.79647  0.94808  Biso   1.000  C
  H38      1.0000 0.81096  0.81096  0.91260  Biso   1.000  H
  O29      1.0000 0.88095  0.88095  0.95331  Biso   1.000  O
  C207     1.0000 0.66428  0.66428  0.95255  Biso   1.000  C
  H39      1.0000 0.67323  0.67323  0.91358  Biso   1.000  H
  N5       1.0000 0.62483  0.62483  0.97067  Biso   1.000  N
  C208     1.0000 0.75408  0.25408  0.44808  Biso   1.000  C
  H40      1.0000 0.73959  0.23959  0.41260  Biso   1.000  H
  C209     1.0000 0.79647  0.29647  0.44808  Biso   1.000  C
  H41      1.0000 0.81096  0.31096  0.41260  Biso   1.000  H
  O30      1.0000 0.88095  0.38095  0.45331  Biso   1.000  O
  C210     1.0000 0.66428  0.16428  0.45255  Biso   1.000  C
  H42      1.0000 0.67323  0.17323  0.41358  Biso   1.000  H
  N6       1.0000 0.62483  0.12483  0.47067  Biso   1.000  N
  C211     1.0000 0.25408  0.75408  0.44808  Biso   1.000  C
  H43      1.0000 0.23959  0.73959  0.41260  Biso   1.000  H
  C212     1.0000 0.29647  0.79647  0.44808  Biso   1.000  C
  H44      1.0000 0.31096  0.81096  0.41260  Biso   1.000  H
  O31      1.0000 0.38095  0.88095  0.45331  Biso   1.000  O
  C213     1.0000 0.16428  0.66428  0.45255  Biso   1.000  C
  H45      1.0000 0.17323  0.67323  0.41358  Biso   1.000  H
  N7       1.0000 0.12483  0.62483  0.47067  Biso   1.000  N
  C214     1.0000 0.25408  0.25408  0.94808  Biso   1.000  C
  H46      1.0000 0.23959  0.23959  0.91260  Biso   1.000  H
  C215     1.0000 0.29647  0.29647  0.94808  Biso   1.000  C
  H47      1.0000 0.31096  0.31096  0.91260  Biso   1.000  H
  O32      1.0000 0.38095  0.38095  0.95331  Biso   1.000  O
  C216     1.0000 0.16428  0.16428  0.95255  Biso   1.000  C
  H48      1.0000 0.17323  0.17323  0.91358  Biso   1.000  H
  N8       1.0000 0.12483  0.12483  0.97067  Biso   1.000  N
  C217     1.0000 0.75408  0.24592  0.05192  Biso   1.000  C
  H49      1.0000 0.73959  0.26041  0.08740  Biso   1.000  H
  C218     1.0000 0.79647  0.20353  0.05192  Biso   1.000  C
  H50      1.0000 0.81096  0.18904  0.08740  Biso   1.000  H
  O33      1.0000 0.88095  0.11905  0.04669  Biso   1.000  O
  C219     1.0000 0.66428  0.33572  0.04745  Biso   1.000  C
  H51      1.0000 0.67323  0.32677  0.08642  Biso   1.000  H
  N9       1.0000 0.62483  0.37517  0.02933  Biso   1.000  N
  C220     1.0000 0.75408  0.74592  0.55192  Biso   1.000  C
  H52      1.0000 0.73959  0.76041  0.58740  Biso   1.000  H
  C221     1.0000 0.79647  0.70353  0.55192  Biso   1.000  C
  H53      1.0000 0.81096  0.68904  0.58740  Biso   1.000  H
  O34      1.0000 0.88095  0.61905  0.54669  Biso   1.000  O
  C222     1.0000 0.66428  0.83572  0.54745  Biso   1.000  C
  H54      1.0000 0.67323  0.82677  0.58642  Biso   1.000  H
  N10      1.0000 0.62483  0.87517  0.52933  Biso   1.000  N
  C223     1.0000 0.25408  0.24592  0.55192  Biso   1.000  C
  H55      1.0000 0.23959  0.26041  0.58740  Biso   1.000  H
  C224     1.0000 0.29647  0.20353  0.55192  Biso   1.000  C
  H56      1.0000 0.31096  0.18904  0.58740  Biso   1.000  H
  O35      1.0000 0.38095  0.11905  0.54669  Biso   1.000  O
  C225     1.0000 0.16428  0.33572  0.54745  Biso   1.000  C
  H57      1.0000 0.17323  0.32677  0.58642  Biso   1.000  H
  N11      1.0000 0.12483  0.37517  0.52933  Biso   1.000  N
  C226     1.0000 0.25408  0.74592  0.05192  Biso   1.000  C
  H58      1.0000 0.23959  0.76041  0.08740  Biso   1.000  H
  C227     1.0000 0.29647  0.70353  0.05192  Biso   1.000  C
  H59      1.0000 0.31096  0.68904  0.08740  Biso   1.000  H
  O36      1.0000 0.38095  0.61905  0.04669  Biso   1.000  O
  C228     1.0000 0.16428  0.83572  0.04745  Biso   1.000  C
  H60      1.0000 0.17323  0.82677  0.08642  Biso   1.000  H
  N12      1.0000 0.12483  0.87517  0.02933  Biso   1.000  N
  C229     1.0000 0.24592  0.75408  0.05192  Biso   1.000  C
  H61      1.0000 0.26041  0.73959  0.08740  Biso   1.000  H
  C230     1.0000 0.20353  0.79647  0.05192  Biso   1.000  C
  H62      1.0000 0.18904  0.81096  0.08740  Biso   1.000  H
  O37      1.0000 0.11905  0.88095  0.04669  Biso   1.000  O
  C231     1.0000 0.33572  0.66428  0.04745  Biso   1.000  C
  H63      1.0000 0.32677  0.67323  0.08642  Biso   1.000  H
  N13      1.0000 0.37517  0.62483  0.02933  Biso   1.000  N
  C232     1.0000 0.24592  0.25408  0.55192  Biso   1.000  C
  H64      1.0000 0.26041  0.23959  0.58740  Biso   1.000  H
  C233     1.0000 0.20353  0.29647  0.55192  Biso   1.000  C
  H65      1.0000 0.18904  0.31096  0.58740  Biso   1.000  H
  O38      1.0000 0.11905  0.38095  0.54669  Biso   1.000  O
  C234     1.0000 0.33572  0.16428  0.54745  Biso   1.000  C
  H66      1.0000 0.32677  0.17323  0.58642  Biso   1.000  H
  N14      1.0000 0.37517  0.12483  0.52933  Biso   1.000  N
  C235     1.0000 0.74592  0.75408  0.55192  Biso   1.000  C
  H67      1.0000 0.76041  0.73959  0.58740  Biso   1.000  H
  C236     1.0000 0.70353  0.79647  0.55192  Biso   1.000  C
  H68      1.0000 0.68904  0.81096  0.58740  Biso   1.000  H
  O39      1.0000 0.61905  0.88095  0.54669  Biso   1.000  O
  C237     1.0000 0.83572  0.66428  0.54745  Biso   1.000  C
  H69      1.0000 0.82677  0.67323  0.58642  Biso   1.000  H
  N15      1.0000 0.87517  0.62483  0.52933  Biso   1.000  N
  C238     1.0000 0.74592  0.25408  0.05192  Biso   1.000  C
  H70      1.0000 0.76041  0.23959  0.08740  Biso   1.000  H
  C239     1.0000 0.70353  0.29647  0.05192  Biso   1.000  C
  H71      1.0000 0.68904  0.31096  0.08740  Biso   1.000  H
  O40      1.0000 0.61905  0.38095  0.04669  Biso   1.000  O
  C240     1.0000 0.83572  0.16428  0.04745  Biso   1.000  C
  H72      1.0000 0.82677  0.17323  0.08642  Biso   1.000  H
  N16      1.0000 0.87517  0.12483  0.02933  Biso   1.000  N
  C241     1.0000 0.94808  0.24592  0.24592  Biso   1.000  C
  H73      1.0000 0.91260  0.26041  0.26041  Biso   1.000  H
  C242     1.0000 0.94808  0.20353  0.20353  Biso   1.000  C
  H74      1.0000 0.91260  0.18904  0.18904  Biso   1.000  H
  O41      1.0000 0.95331  0.11905  0.11905  Biso   1.000  O
  C243     1.0000 0.95255  0.33572  0.33572  Biso   1.000  C
  H75      1.0000 0.91358  0.32677  0.32677  Biso   1.000  H
  N17      1.0000 0.97067  0.37517  0.37517  Biso   1.000  N
  C244     1.0000 0.94808  0.74592  0.74592  Biso   1.000  C
  H76      1.0000 0.91260  0.76041  0.76041  Biso   1.000  H
  C245     1.0000 0.94808  0.70353  0.70353  Biso   1.000  C
  H77      1.0000 0.91260  0.68904  0.68904  Biso   1.000  H
  O42      1.0000 0.95331  0.61905  0.61905  Biso   1.000  O
  C246     1.0000 0.95255  0.83572  0.83572  Biso   1.000  C
  H78      1.0000 0.91358  0.82677  0.82677  Biso   1.000  H
  N18      1.0000 0.97067  0.87517  0.87517  Biso   1.000  N
  C247     1.0000 0.44808  0.24592  0.74592  Biso   1.000  C
  H79      1.0000 0.41260  0.26041  0.76041  Biso   1.000  H
  C248     1.0000 0.44808  0.20353  0.70353  Biso   1.000  C
  H80      1.0000 0.41260  0.18904  0.68904  Biso   1.000  H
  O43      1.0000 0.45331  0.11905  0.61905  Biso   1.000  O
  C249     1.0000 0.45255  0.33572  0.83572  Biso   1.000  C
  H81      1.0000 0.41358  0.32677  0.82677  Biso   1.000  H
  N19      1.0000 0.47067  0.37517  0.87517  Biso   1.000  N
  C250     1.0000 0.44808  0.74592  0.24592  Biso   1.000  C
  H82      1.0000 0.41260  0.76041  0.26041  Biso   1.000  H
  C251     1.0000 0.44808  0.70353  0.20353  Biso   1.000  C
  H83      1.0000 0.41260  0.68904  0.18904  Biso   1.000  H
  O44      1.0000 0.45331  0.61905  0.11905  Biso   1.000  O
  C252     1.0000 0.45255  0.83572  0.33572  Biso   1.000  C
  H84      1.0000 0.41358  0.82677  0.32677  Biso   1.000  H
  N20      1.0000 0.47067  0.87517  0.37517  Biso   1.000  N
  C253     1.0000 0.94808  0.75408  0.75408  Biso   1.000  C
  H85      1.0000 0.91260  0.73959  0.73959  Biso   1.000  H
  C254     1.0000 0.94808  0.79647  0.79647  Biso   1.000  C
  H86      1.0000 0.91260  0.81096  0.81096  Biso   1.000  H
  O45      1.0000 0.95331  0.88095  0.88095  Biso   1.000  O
  C255     1.0000 0.95255  0.66428  0.66428  Biso   1.000  C
  H87      1.0000 0.91358  0.67323  0.67323  Biso   1.000  H
  N21      1.0000 0.97067  0.62483  0.62483  Biso   1.000  N
  C256     1.0000 0.94808  0.25408  0.25408  Biso   1.000  C
  H88      1.0000 0.91260  0.23959  0.23959  Biso   1.000  H
  C257     1.0000 0.94808  0.29647  0.29647  Biso   1.000  C
  H89      1.0000 0.91260  0.31096  0.31096  Biso   1.000  H
  O46      1.0000 0.95331  0.38095  0.38095  Biso   1.000  O
  C258     1.0000 0.95255  0.16428  0.16428  Biso   1.000  C
  H90      1.0000 0.91358  0.17323  0.17323  Biso   1.000  H
  N22      1.0000 0.97067  0.12483  0.12483  Biso   1.000  N
  C259     1.0000 0.44808  0.75408  0.25408  Biso   1.000  C
  H91      1.0000 0.41260  0.73959  0.23959  Biso   1.000  H
  C260     1.0000 0.44808  0.79647  0.29647  Biso   1.000  C
  H92      1.0000 0.41260  0.81096  0.31096  Biso   1.000  H
  O47      1.0000 0.45331  0.88095  0.38095  Biso   1.000  O
  C261     1.0000 0.45255  0.66428  0.16428  Biso   1.000  C
  H93      1.0000 0.41358  0.67323  0.17323  Biso   1.000  H
  N23      1.0000 0.47067  0.62483  0.12483  Biso   1.000  N
  C262     1.0000 0.44808  0.25408  0.75408  Biso   1.000  C
  H94      1.0000 0.41260  0.23959  0.73959  Biso   1.000  H
  C263     1.0000 0.44808  0.29647  0.79647  Biso   1.000  C
  H95      1.0000 0.41260  0.31096  0.81096  Biso   1.000  H
  O48      1.0000 0.45331  0.38095  0.88095  Biso   1.000  O
  C264     1.0000 0.45255  0.16428  0.66428  Biso   1.000  C
  H96      1.0000 0.41358  0.17323  0.67323  Biso   1.000  H
  N24      1.0000 0.47067  0.12483  0.62483  Biso   1.000  N
  C265     1.0000 0.05192  0.75408  0.24592  Biso   1.000  C
  H97      1.0000 0.08740  0.73959  0.26041  Biso   1.000  H
  C266     1.0000 0.05192  0.79647  0.20353  Biso   1.000  C
  H98      1.0000 0.08740  0.81096  0.18904  Biso   1.000  H
  O49      1.0000 0.04669  0.88095  0.11905  Biso   1.000  O
  C267     1.0000 0.04745  0.66428  0.33572  Biso   1.000  C
  H99      1.0000 0.08642  0.67323  0.32677  Biso   1.000  H
  N25      1.0000 0.02933  0.62483  0.37517  Biso   1.000  N
  C268     1.0000 0.05192  0.25408  0.74592  Biso   1.000  C
  H100     1.0000 0.08740  0.23959  0.76041  Biso   1.000  H
  C269     1.0000 0.05192  0.29647  0.70353  Biso   1.000  C
  H101     1.0000 0.08740  0.31096  0.68904  Biso   1.000  H
  O50      1.0000 0.04669  0.38095  0.61905  Biso   1.000  O
  C270     1.0000 0.04745  0.16428  0.83572  Biso   1.000  C
  H102     1.0000 0.08642  0.17323  0.82677  Biso   1.000  H
  N26      1.0000 0.02933  0.12483  0.87517  Biso   1.000  N
  C271     1.0000 0.55192  0.75408  0.74592  Biso   1.000  C
  H103     1.0000 0.58740  0.73959  0.76041  Biso   1.000  H
  C272     1.0000 0.55192  0.79647  0.70353  Biso   1.000  C
  H104     1.0000 0.58740  0.81096  0.68904  Biso   1.000  H
  O51      1.0000 0.54669  0.88095  0.61905  Biso   1.000  O
  C273     1.0000 0.54745  0.66428  0.83572  Biso   1.000  C
  H105     1.0000 0.58642  0.67323  0.82677  Biso   1.000  H
  N27      1.0000 0.52933  0.62483  0.87517  Biso   1.000  N
  C274     1.0000 0.55192  0.25408  0.24592  Biso   1.000  C
  H106     1.0000 0.58740  0.23959  0.26041  Biso   1.000  H
  C275     1.0000 0.55192  0.29647  0.20353  Biso   1.000  C
  H107     1.0000 0.58740  0.31096  0.18904  Biso   1.000  H
  O52      1.0000 0.54669  0.38095  0.11905  Biso   1.000  O
  C276     1.0000 0.54745  0.16428  0.33572  Biso   1.000  C
  H108     1.0000 0.58642  0.17323  0.32677  Biso   1.000  H
  N28      1.0000 0.52933  0.12483  0.37517  Biso   1.000  N
  C277     1.0000 0.05192  0.24592  0.75408  Biso   1.000  C
  H109     1.0000 0.08740  0.26041  0.73959  Biso   1.000  H
  C278     1.0000 0.05192  0.20353  0.79647  Biso   1.000  C
  H110     1.0000 0.08740  0.18904  0.81096  Biso   1.000  H
  O53      1.0000 0.04669  0.11905  0.88095  Biso   1.000  O
  C279     1.0000 0.04745  0.33572  0.66428  Biso   1.000  C
  H111     1.0000 0.08642  0.32677  0.67323  Biso   1.000  H
  N29      1.0000 0.02933  0.37517  0.62483  Biso   1.000  N
  C280     1.0000 0.05192  0.74592  0.25408  Biso   1.000  C
  H112     1.0000 0.08740  0.76041  0.23959  Biso   1.000  H
  C281     1.0000 0.05192  0.70353  0.29647  Biso   1.000  C
  H113     1.0000 0.08740  0.68904  0.31096  Biso   1.000  H
  O54      1.0000 0.04669  0.61905  0.38095  Biso   1.000  O
  C282     1.0000 0.04745  0.83572  0.16428  Biso   1.000  C
  H114     1.0000 0.08642  0.82677  0.17323  Biso   1.000  H
  N30      1.0000 0.02933  0.87517  0.12483  Biso   1.000  N
  C283     1.0000 0.55192  0.24592  0.25408  Biso   1.000  C
  H115     1.0000 0.58740  0.26041  0.23959  Biso   1.000  H
  C284     1.0000 0.55192  0.20353  0.29647  Biso   1.000  C
  H116     1.0000 0.58740  0.18904  0.31096  Biso   1.000  H
  O55      1.0000 0.54669  0.11905  0.38095  Biso   1.000  O
  C285     1.0000 0.54745  0.33572  0.16428  Biso   1.000  C
  H117     1.0000 0.58642  0.32677  0.17323  Biso   1.000  H
  N31      1.0000 0.52933  0.37517  0.12483  Biso   1.000  N
  C286     1.0000 0.55192  0.74592  0.75408  Biso   1.000  C
  H118     1.0000 0.58740  0.76041  0.73959  Biso   1.000  H
  C287     1.0000 0.55192  0.70353  0.79647  Biso   1.000  C
  H119     1.0000 0.58740  0.68904  0.81096  Biso   1.000  H
  O56      1.0000 0.54669  0.61905  0.88095  Biso   1.000  O
  C288     1.0000 0.54745  0.83572  0.66428  Biso   1.000  C
  H120     1.0000 0.58642  0.82677  0.67323  Biso   1.000  H
  N32      1.0000 0.52933  0.87517  0.62483  Biso   1.000  N
  C289     1.0000 0.24592  0.94808  0.24592  Biso   1.000  C
  H121     1.0000 0.26041  0.91260  0.26041  Biso   1.000  H
  C290     1.0000 0.20353  0.94808  0.20353  Biso   1.000  C
  H122     1.0000 0.18904  0.91260  0.18904  Biso   1.000  H
  O57      1.0000 0.11905  0.95331  0.11905  Biso   1.000  O
  C291     1.0000 0.33572  0.95255  0.33572  Biso   1.000  C
  H123     1.0000 0.32677  0.91358  0.32677  Biso   1.000  H
  N33      1.0000 0.37517  0.97067  0.37517  Biso   1.000  N
  C292     1.0000 0.24592  0.44808  0.74592  Biso   1.000  C
  H124     1.0000 0.26041  0.41260  0.76041  Biso   1.000  H
  C293     1.0000 0.20353  0.44808  0.70353  Biso   1.000  C
  H125     1.0000 0.18904  0.41260  0.68904  Biso   1.000  H
  O58      1.0000 0.11905  0.45331  0.61905  Biso   1.000  O
  C294     1.0000 0.33572  0.45255  0.83572  Biso   1.000  C
  H126     1.0000 0.32677  0.41358  0.82677  Biso   1.000  H
  N34      1.0000 0.37517  0.47067  0.87517  Biso   1.000  N
  C295     1.0000 0.74592  0.94808  0.74592  Biso   1.000  C
  H127     1.0000 0.76041  0.91260  0.76041  Biso   1.000  H
  C296     1.0000 0.70353  0.94808  0.70353  Biso   1.000  C
  H128     1.0000 0.68904  0.91260  0.68904  Biso   1.000  H
  O59      1.0000 0.61905  0.95331  0.61905  Biso   1.000  O
  C297     1.0000 0.83572  0.95255  0.83572  Biso   1.000  C
  H129     1.0000 0.82677  0.91358  0.82677  Biso   1.000  H
  N35      1.0000 0.87517  0.97067  0.87517  Biso   1.000  N
  C298     1.0000 0.74592  0.44808  0.24592  Biso   1.000  C
  H130     1.0000 0.76041  0.41260  0.26041  Biso   1.000  H
  C299     1.0000 0.70353  0.44808  0.20353  Biso   1.000  C
  H131     1.0000 0.68904  0.41260  0.18904  Biso   1.000  H
  O60      1.0000 0.61905  0.45331  0.11905  Biso   1.000  O
  C300     1.0000 0.83572  0.45255  0.33572  Biso   1.000  C
  H132     1.0000 0.82677  0.41358  0.32677  Biso   1.000  H
  N36      1.0000 0.87517  0.47067  0.37517  Biso   1.000  N
  C301     1.0000 0.75408  0.94808  0.75408  Biso   1.000  C
  H133     1.0000 0.73959  0.91260  0.73959  Biso   1.000  H
  C302     1.0000 0.79647  0.94808  0.79647  Biso   1.000  C
  H134     1.0000 0.81096  0.91260  0.81096  Biso   1.000  H
  O61      1.0000 0.88095  0.95331  0.88095  Biso   1.000  O
  C303     1.0000 0.66428  0.95255  0.66428  Biso   1.000  C
  H135     1.0000 0.67323  0.91358  0.67323  Biso   1.000  H
  N37      1.0000 0.62483  0.97067  0.62483  Biso   1.000  N
  C304     1.0000 0.75408  0.44808  0.25408  Biso   1.000  C
  H136     1.0000 0.73959  0.41260  0.23959  Biso   1.000  H
  C305     1.0000 0.79647  0.44808  0.29647  Biso   1.000  C
  H137     1.0000 0.81096  0.41260  0.31096  Biso   1.000  H
  O62      1.0000 0.88095  0.45331  0.38095  Biso   1.000  O
  C306     1.0000 0.66428  0.45255  0.16428  Biso   1.000  C
  H138     1.0000 0.67323  0.41358  0.17323  Biso   1.000  H
  N38      1.0000 0.62483  0.47067  0.12483  Biso   1.000  N
  C307     1.0000 0.25408  0.94808  0.25408  Biso   1.000  C
  H139     1.0000 0.23959  0.91260  0.23959  Biso   1.000  H
  C308     1.0000 0.29647  0.94808  0.29647  Biso   1.000  C
  H140     1.0000 0.31096  0.91260  0.31096  Biso   1.000  H
  O63      1.0000 0.38095  0.95331  0.38095  Biso   1.000  O
  C309     1.0000 0.16428  0.95255  0.16428  Biso   1.000  C
  H141     1.0000 0.17323  0.91358  0.17323  Biso   1.000  H
  N39      1.0000 0.12483  0.97067  0.12483  Biso   1.000  N
  C310     1.0000 0.25408  0.44808  0.75408  Biso   1.000  C
  H142     1.0000 0.23959  0.41260  0.73959  Biso   1.000  H
  C311     1.0000 0.29647  0.44808  0.79647  Biso   1.000  C
  H143     1.0000 0.31096  0.41260  0.81096  Biso   1.000  H
  O64      1.0000 0.38095  0.45331  0.88095  Biso   1.000  O
  C312     1.0000 0.16428  0.45255  0.66428  Biso   1.000  C
  H144     1.0000 0.17323  0.41358  0.67323  Biso   1.000  H
  N40      1.0000 0.12483  0.47067  0.62483  Biso   1.000  N
  C313     1.0000 0.24592  0.05192  0.75408  Biso   1.000  C
  H145     1.0000 0.26041  0.08740  0.73959  Biso   1.000  H
  C314     1.0000 0.20353  0.05192  0.79647  Biso   1.000  C
  H146     1.0000 0.18904  0.08740  0.81096  Biso   1.000  H
  O65      1.0000 0.11905  0.04669  0.88095  Biso   1.000  O
  C315     1.0000 0.33572  0.04745  0.66428  Biso   1.000  C
  H147     1.0000 0.32677  0.08642  0.67323  Biso   1.000  H
  N41      1.0000 0.37517  0.02933  0.62483  Biso   1.000  N
  C316     1.0000 0.24592  0.55192  0.25408  Biso   1.000  C
  H148     1.0000 0.26041  0.58740  0.23959  Biso   1.000  H
  C317     1.0000 0.20353  0.55192  0.29647  Biso   1.000  C
  H149     1.0000 0.18904  0.58740  0.31096  Biso   1.000  H
  O66      1.0000 0.11905  0.54669  0.38095  Biso   1.000  O
  C318     1.0000 0.33572  0.54745  0.16428  Biso   1.000  C
  H150     1.0000 0.32677  0.58642  0.17323  Biso   1.000  H
  N42      1.0000 0.37517  0.52933  0.12483  Biso   1.000  N
  C319     1.0000 0.74592  0.05192  0.25408  Biso   1.000  C
  H151     1.0000 0.76041  0.08740  0.23959  Biso   1.000  H
  C320     1.0000 0.70353  0.05192  0.29647  Biso   1.000  C
  H152     1.0000 0.68904  0.08740  0.31096  Biso   1.000  H
  O67      1.0000 0.61905  0.04669  0.38095  Biso   1.000  O
  C321     1.0000 0.83572  0.04745  0.16428  Biso   1.000  C
  H153     1.0000 0.82677  0.08642  0.17323  Biso   1.000  H
  N43      1.0000 0.87517  0.02933  0.12483  Biso   1.000  N
  C322     1.0000 0.74592  0.55192  0.75408  Biso   1.000  C
  H154     1.0000 0.76041  0.58740  0.73959  Biso   1.000  H
  C323     1.0000 0.70353  0.55192  0.79647  Biso   1.000  C
  H155     1.0000 0.68904  0.58740  0.81096  Biso   1.000  H
  O68      1.0000 0.61905  0.54669  0.88095  Biso   1.000  O
  C324     1.0000 0.83572  0.54745  0.66428  Biso   1.000  C
  H156     1.0000 0.82677  0.58642  0.67323  Biso   1.000  H
  N44      1.0000 0.87517  0.52933  0.62483  Biso   1.000  N
  C325     1.0000 0.75408  0.05192  0.24592  Biso   1.000  C
  H157     1.0000 0.73959  0.08740  0.26041  Biso   1.000  H
  C326     1.0000 0.79647  0.05192  0.20353  Biso   1.000  C
  H158     1.0000 0.81096  0.08740  0.18904  Biso   1.000  H
  O69      1.0000 0.88095  0.04669  0.11905  Biso   1.000  O
  C327     1.0000 0.66428  0.04745  0.33572  Biso   1.000  C
  H159     1.0000 0.67323  0.08642  0.32677  Biso   1.000  H
  N45      1.0000 0.62483  0.02933  0.37517  Biso   1.000  N
  C328     1.0000 0.75408  0.55192  0.74592  Biso   1.000  C
  H160     1.0000 0.73959  0.58740  0.76041  Biso   1.000  H
  C329     1.0000 0.79647  0.55192  0.70353  Biso   1.000  C
  H161     1.0000 0.81096  0.58740  0.68904  Biso   1.000  H
  O70      1.0000 0.88095  0.54669  0.61905  Biso   1.000  O
  C330     1.0000 0.66428  0.54745  0.83572  Biso   1.000  C
  H162     1.0000 0.67323  0.58642  0.82677  Biso   1.000  H
  N46      1.0000 0.62483  0.52933  0.87517  Biso   1.000  N
  C331     1.0000 0.25408  0.05192  0.74592  Biso   1.000  C
  H163     1.0000 0.23959  0.08740  0.76041  Biso   1.000  H
  C332     1.0000 0.29647  0.05192  0.70353  Biso   1.000  C
  H164     1.0000 0.31096  0.08740  0.68904  Biso   1.000  H
  O71      1.0000 0.38095  0.04669  0.61905  Biso   1.000  O
  C333     1.0000 0.16428  0.04745  0.83572  Biso   1.000  C
  H165     1.0000 0.17323  0.08642  0.82677  Biso   1.000  H
  N47      1.0000 0.12483  0.02933  0.87517  Biso   1.000  N
  C334     1.0000 0.25408  0.55192  0.24592  Biso   1.000  C
  H166     1.0000 0.23959  0.58740  0.26041  Biso   1.000  H
  C335     1.0000 0.29647  0.55192  0.20353  Biso   1.000  C
  H167     1.0000 0.31096  0.58740  0.18904  Biso   1.000  H
  O72      1.0000 0.38095  0.54669  0.11905  Biso   1.000  O
  C336     1.0000 0.16428  0.54745  0.33572  Biso   1.000  C
  H168     1.0000 0.17323  0.58642  0.32677  Biso   1.000  H
  N48      1.0000 0.12483  0.52933  0.37517  Biso   1.000  N
  C337     1.0000 0.24592  0.24592  0.05192  Biso   1.000  C
  H169     1.0000 0.26041  0.26041  0.08740  Biso   1.000  H
  C338     1.0000 0.20353  0.20353  0.05192  Biso   1.000  C
  H170     1.0000 0.18904  0.18904  0.08740  Biso   1.000  H
  O73      1.0000 0.11905  0.11905  0.04669  Biso   1.000  O
  C339     1.0000 0.33572  0.33572  0.04745  Biso   1.000  C
  H171     1.0000 0.32677  0.32677  0.08642  Biso   1.000  H
  N49      1.0000 0.37517  0.37517  0.02933  Biso   1.000  N
  C340     1.0000 0.24592  0.74592  0.55192  Biso   1.000  C
  H172     1.0000 0.26041  0.76041  0.58740  Biso   1.000  H
  C341     1.0000 0.20353  0.70353  0.55192  Biso   1.000  C
  H173     1.0000 0.18904  0.68904  0.58740  Biso   1.000  H
  O74      1.0000 0.11905  0.61905  0.54669  Biso   1.000  O
  C342     1.0000 0.33572  0.83572  0.54745  Biso   1.000  C
  H174     1.0000 0.32677  0.82677  0.58642  Biso   1.000  H
  N50      1.0000 0.37517  0.87517  0.52933  Biso   1.000  N
  C343     1.0000 0.74592  0.24592  0.55192  Biso   1.000  C
  H175     1.0000 0.76041  0.26041  0.58740  Biso   1.000  H
  C344     1.0000 0.70353  0.20353  0.55192  Biso   1.000  C
  H176     1.0000 0.68904  0.18904  0.58740  Biso   1.000  H
  O75      1.0000 0.61905  0.11905  0.54669  Biso   1.000  O
  C345     1.0000 0.83572  0.33572  0.54745  Biso   1.000  C
  H177     1.0000 0.82677  0.32677  0.58642  Biso   1.000  H
  N51      1.0000 0.87517  0.37517  0.52933  Biso   1.000  N
  C346     1.0000 0.74592  0.74592  0.05192  Biso   1.000  C
  H178     1.0000 0.76041  0.76041  0.08740  Biso   1.000  H
  C347     1.0000 0.70353  0.70353  0.05192  Biso   1.000  C
  H179     1.0000 0.68904  0.68904  0.08740  Biso   1.000  H
  O76      1.0000 0.61905  0.61905  0.04669  Biso   1.000  O
  C348     1.0000 0.83572  0.83572  0.04745  Biso   1.000  C
  H180     1.0000 0.82677  0.82677  0.08642  Biso   1.000  H
  N52      1.0000 0.87517  0.87517  0.02933  Biso   1.000  N
  C349     1.0000 0.75408  0.75408  0.05192  Biso   1.000  C
  H181     1.0000 0.73959  0.73959  0.08740  Biso   1.000  H
  C350     1.0000 0.79647  0.79647  0.05192  Biso   1.000  C
  H182     1.0000 0.81096  0.81096  0.08740  Biso   1.000  H
  O77      1.0000 0.88095  0.88095  0.04669  Biso   1.000  O
  C351     1.0000 0.66428  0.66428  0.04745  Biso   1.000  C
  H183     1.0000 0.67323  0.67323  0.08642  Biso   1.000  H
  N53      1.0000 0.62483  0.62483  0.02933  Biso   1.000  N
  C352     1.0000 0.75408  0.25408  0.55192  Biso   1.000  C
  H184     1.0000 0.73959  0.23959  0.58740  Biso   1.000  H
  C353     1.0000 0.79647  0.29647  0.55192  Biso   1.000  C
  H185     1.0000 0.81096  0.31096  0.58740  Biso   1.000  H
  O78      1.0000 0.88095  0.38095  0.54669  Biso   1.000  O
  C354     1.0000 0.66428  0.16428  0.54745  Biso   1.000  C
  H186     1.0000 0.67323  0.17323  0.58642  Biso   1.000  H
  N54      1.0000 0.62483  0.12483  0.52933  Biso   1.000  N
  C355     1.0000 0.25408  0.75408  0.55192  Biso   1.000  C
  H187     1.0000 0.23959  0.73959  0.58740  Biso   1.000  H
  C356     1.0000 0.29647  0.79647  0.55192  Biso   1.000  C
  H188     1.0000 0.31096  0.81096  0.58740  Biso   1.000  H
  O79      1.0000 0.38095  0.88095  0.54669  Biso   1.000  O
  C357     1.0000 0.16428  0.66428  0.54745  Biso   1.000  C
  H189     1.0000 0.17323  0.67323  0.58642  Biso   1.000  H
  N55      1.0000 0.12483  0.62483  0.52933  Biso   1.000  N
  C358     1.0000 0.25408  0.25408  0.05192  Biso   1.000  C
  H190     1.0000 0.23959  0.23959  0.08740  Biso   1.000  H
  C359     1.0000 0.29647  0.29647  0.05192  Biso   1.000  C
  H191     1.0000 0.31096  0.31096  0.08740  Biso   1.000  H
  O80      1.0000 0.38095  0.38095  0.04669  Biso   1.000  O
  C360     1.0000 0.16428  0.16428  0.04745  Biso   1.000  C
  H192     1.0000 0.17323  0.17323  0.08642  Biso   1.000  H
  N56      1.0000 0.12483  0.12483  0.02933  Biso   1.000  N
  C361     1.0000 0.24592  0.75408  0.94808  Biso   1.000  C
  H193     1.0000 0.26041  0.73959  0.91260  Biso   1.000  H
  C362     1.0000 0.20353  0.79647  0.94808  Biso   1.000  C
  H194     1.0000 0.18904  0.81096  0.91260  Biso   1.000  H
  O81      1.0000 0.11905  0.88095  0.95331  Biso   1.000  O
  C363     1.0000 0.33572  0.66428  0.95255  Biso   1.000  C
  H195     1.0000 0.32677  0.67323  0.91358  Biso   1.000  H
  N57      1.0000 0.37517  0.62483  0.97067  Biso   1.000  N
  C364     1.0000 0.24592  0.25408  0.44808  Biso   1.000  C
  H196     1.0000 0.26041  0.23959  0.41260  Biso   1.000  H
  C365     1.0000 0.20353  0.29647  0.44808  Biso   1.000  C
  H197     1.0000 0.18904  0.31096  0.41260  Biso   1.000  H
  O82      1.0000 0.11905  0.38095  0.45331  Biso   1.000  O
  C366     1.0000 0.33572  0.16428  0.45255  Biso   1.000  C
  H198     1.0000 0.32677  0.17323  0.41358  Biso   1.000  H
  N58      1.0000 0.37517  0.12483  0.47067  Biso   1.000  N
  C367     1.0000 0.74592  0.75408  0.44808  Biso   1.000  C
  H199     1.0000 0.76041  0.73959  0.41260  Biso   1.000  H
  C368     1.0000 0.70353  0.79647  0.44808  Biso   1.000  C
  H200     1.0000 0.68904  0.81096  0.41260  Biso   1.000  H
  O83      1.0000 0.61905  0.88095  0.45331  Biso   1.000  O
  C369     1.0000 0.83572  0.66428  0.45255  Biso   1.000  C
  H201     1.0000 0.82677  0.67323  0.41358  Biso   1.000  H
  N59      1.0000 0.87517  0.62483  0.47067  Biso   1.000  N
  C370     1.0000 0.74592  0.25408  0.94808  Biso   1.000  C
  H202     1.0000 0.76041  0.23959  0.91260  Biso   1.000  H
  C371     1.0000 0.70353  0.29647  0.94808  Biso   1.000  C
  H203     1.0000 0.68904  0.31096  0.91260  Biso   1.000  H
  O84      1.0000 0.61905  0.38095  0.95331  Biso   1.000  O
  C372     1.0000 0.83572  0.16428  0.95255  Biso   1.000  C
  H204     1.0000 0.82677  0.17323  0.91358  Biso   1.000  H
  N60      1.0000 0.87517  0.12483  0.97067  Biso   1.000  N
  C373     1.0000 0.75408  0.24592  0.94808  Biso   1.000  C
  H205     1.0000 0.73959  0.26041  0.91260  Biso   1.000  H
  C374     1.0000 0.79647  0.20353  0.94808  Biso   1.000  C
  H206     1.0000 0.81096  0.18904  0.91260  Biso   1.000  H
  O85      1.0000 0.88095  0.11905  0.95331  Biso   1.000  O
  C375     1.0000 0.66428  0.33572  0.95255  Biso   1.000  C
  H207     1.0000 0.67323  0.32677  0.91358  Biso   1.000  H
  N61      1.0000 0.62483  0.37517  0.97067  Biso   1.000  N
  C376     1.0000 0.75408  0.74592  0.44808  Biso   1.000  C
  H208     1.0000 0.73959  0.76041  0.41260  Biso   1.000  H
  C377     1.0000 0.79647  0.70353  0.44808  Biso   1.000  C
  H209     1.0000 0.81096  0.68904  0.41260  Biso   1.000  H
  O86      1.0000 0.88095  0.61905  0.45331  Biso   1.000  O
  C378     1.0000 0.66428  0.83572  0.45255  Biso   1.000  C
  H210     1.0000 0.67323  0.82677  0.41358  Biso   1.000  H
  N62      1.0000 0.62483  0.87517  0.47067  Biso   1.000  N
  C379     1.0000 0.25408  0.24592  0.44808  Biso   1.000  C
  H211     1.0000 0.23959  0.26041  0.41260  Biso   1.000  H
  C380     1.0000 0.29647  0.20353  0.44808  Biso   1.000  C
  H212     1.0000 0.31096  0.18904  0.41260  Biso   1.000  H
  O87      1.0000 0.38095  0.11905  0.45331  Biso   1.000  O
  C381     1.0000 0.16428  0.33572  0.45255  Biso   1.000  C
  H213     1.0000 0.17323  0.32677  0.41358  Biso   1.000  H
  N63      1.0000 0.12483  0.37517  0.47067  Biso   1.000  N
  C382     1.0000 0.25408  0.74592  0.94808  Biso   1.000  C
  H214     1.0000 0.23959  0.76041  0.91260  Biso   1.000  H
  C383     1.0000 0.29647  0.70353  0.94808  Biso   1.000  C
  H215     1.0000 0.31096  0.68904  0.91260  Biso   1.000  H
  O88      1.0000 0.38095  0.61905  0.95331  Biso   1.000  O
  C384     1.0000 0.16428  0.83572  0.95255  Biso   1.000  C
  H216     1.0000 0.17323  0.82677  0.91358  Biso   1.000  H
  N64      1.0000 0.12483  0.87517  0.97067  Biso   1.000  N
  C385     1.0000 0.24592  0.94808  0.75408  Biso   1.000  C
  H217     1.0000 0.26041  0.91260  0.73959  Biso   1.000  H
  C386     1.0000 0.20353  0.94808  0.79647  Biso   1.000  C
  H218     1.0000 0.18904  0.91260  0.81096  Biso   1.000  H
  O89      1.0000 0.11905  0.95331  0.88095  Biso   1.000  O
  C387     1.0000 0.33572  0.95255  0.66428  Biso   1.000  C
  H219     1.0000 0.32677  0.91358  0.67323  Biso   1.000  H
  N65      1.0000 0.37517  0.97067  0.62483  Biso   1.000  N
  C388     1.0000 0.24592  0.44808  0.25408  Biso   1.000  C
  H220     1.0000 0.26041  0.41260  0.23959  Biso   1.000  H
  C389     1.0000 0.20353  0.44808  0.29647  Biso   1.000  C
  H221     1.0000 0.18904  0.41260  0.31096  Biso   1.000  H
  O90      1.0000 0.11905  0.45331  0.38095  Biso   1.000  O
  C390     1.0000 0.33572  0.45255  0.16428  Biso   1.000  C
  H222     1.0000 0.32677  0.41358  0.17323  Biso   1.000  H
  N66      1.0000 0.37517  0.47067  0.12483  Biso   1.000  N
  C391     1.0000 0.74592  0.94808  0.25408  Biso   1.000  C
  H223     1.0000 0.76041  0.91260  0.23959  Biso   1.000  H
  C392     1.0000 0.70353  0.94808  0.29647  Biso   1.000  C
  H224     1.0000 0.68904  0.91260  0.31096  Biso   1.000  H
  O91      1.0000 0.61905  0.95331  0.38095  Biso   1.000  O
  C393     1.0000 0.83572  0.95255  0.16428  Biso   1.000  C
  H225     1.0000 0.82677  0.91358  0.17323  Biso   1.000  H
  N67      1.0000 0.87517  0.97067  0.12483  Biso   1.000  N
  C394     1.0000 0.74592  0.44808  0.75408  Biso   1.000  C
  H226     1.0000 0.76041  0.41260  0.73959  Biso   1.000  H
  C395     1.0000 0.70353  0.44808  0.79647  Biso   1.000  C
  H227     1.0000 0.68904  0.41260  0.81096  Biso   1.000  H
  O92      1.0000 0.61905  0.45331  0.88095  Biso   1.000  O
  C396     1.0000 0.83572  0.45255  0.66428  Biso   1.000  C
  H228     1.0000 0.82677  0.41358  0.67323  Biso   1.000  H
  N68      1.0000 0.87517  0.47067  0.62483  Biso   1.000  N
  C397     1.0000 0.75408  0.94808  0.24592  Biso   1.000  C
  H229     1.0000 0.73959  0.91260  0.26041  Biso   1.000  H
  C398     1.0000 0.79647  0.94808  0.20353  Biso   1.000  C
  H230     1.0000 0.81096  0.91260  0.18904  Biso   1.000  H
  O93      1.0000 0.88095  0.95331  0.11905  Biso   1.000  O
  C399     1.0000 0.66428  0.95255  0.33572  Biso   1.000  C
  H231     1.0000 0.67323  0.91358  0.32677  Biso   1.000  H
  N69      1.0000 0.62483  0.97067  0.37517  Biso   1.000  N
  C400     1.0000 0.75408  0.44808  0.74592  Biso   1.000  C
  H232     1.0000 0.73959  0.41260  0.76041  Biso   1.000  H
  C401     1.0000 0.79647  0.44808  0.70353  Biso   1.000  C
  H233     1.0000 0.81096  0.41260  0.68904  Biso   1.000  H
  O94      1.0000 0.88095  0.45331  0.61905  Biso   1.000  O
  C402     1.0000 0.66428  0.45255  0.83572  Biso   1.000  C
  H234     1.0000 0.67323  0.41358  0.82677  Biso   1.000  H
  N70      1.0000 0.62483  0.47067  0.87517  Biso   1.000  N
  C403     1.0000 0.25408  0.94808  0.74592  Biso   1.000  C
  H235     1.0000 0.23959  0.91260  0.76041  Biso   1.000  H
  C404     1.0000 0.29647  0.94808  0.70353  Biso   1.000  C
  H236     1.0000 0.31096  0.91260  0.68904  Biso   1.000  H
  O95      1.0000 0.38095  0.95331  0.61905  Biso   1.000  O
  C405     1.0000 0.16428  0.95255  0.83572  Biso   1.000  C
  H237     1.0000 0.17323  0.91358  0.82677  Biso   1.000  H
  N71      1.0000 0.12483  0.97067  0.87517  Biso   1.000  N
  C406     1.0000 0.25408  0.44808  0.24592  Biso   1.000  C
  H238     1.0000 0.23959  0.41260  0.26041  Biso   1.000  H
  C407     1.0000 0.29647  0.44808  0.20353  Biso   1.000  C
  H239     1.0000 0.31096  0.41260  0.18904  Biso   1.000  H
  O96      1.0000 0.38095  0.45331  0.11905  Biso   1.000  O
  C408     1.0000 0.16428  0.45255  0.33572  Biso   1.000  C
  H240     1.0000 0.17323  0.41358  0.32677  Biso   1.000  H
  N72      1.0000 0.12483  0.47067  0.37517  Biso   1.000  N
  C409     1.0000 0.75408  0.05192  0.75408  Biso   1.000  C
  H241     1.0000 0.73959  0.08740  0.73959  Biso   1.000  H
  C410     1.0000 0.79647  0.05192  0.79647  Biso   1.000  C
  H242     1.0000 0.81096  0.08740  0.81096  Biso   1.000  H
  O97      1.0000 0.88095  0.04669  0.88095  Biso   1.000  O
  C411     1.0000 0.66428  0.04745  0.66428  Biso   1.000  C
  H243     1.0000 0.67323  0.08642  0.67323  Biso   1.000  H
  N73      1.0000 0.62483  0.02933  0.62483  Biso   1.000  N
  C412     1.0000 0.75408  0.55192  0.25408  Biso   1.000  C
  H244     1.0000 0.73959  0.58740  0.23959  Biso   1.000  H
  C413     1.0000 0.79647  0.55192  0.29647  Biso   1.000  C
  H245     1.0000 0.81096  0.58740  0.31096  Biso   1.000  H
  O98      1.0000 0.88095  0.54669  0.38095  Biso   1.000  O
  C414     1.0000 0.66428  0.54745  0.16428  Biso   1.000  C
  H246     1.0000 0.67323  0.58642  0.17323  Biso   1.000  H
  N74      1.0000 0.62483  0.52933  0.12483  Biso   1.000  N
  C415     1.0000 0.25408  0.05192  0.25408  Biso   1.000  C
  H247     1.0000 0.23959  0.08740  0.23959  Biso   1.000  H
  C416     1.0000 0.29647  0.05192  0.29647  Biso   1.000  C
  H248     1.0000 0.31096  0.08740  0.31096  Biso   1.000  H
  O99      1.0000 0.38095  0.04669  0.38095  Biso   1.000  O
  C417     1.0000 0.16428  0.04745  0.16428  Biso   1.000  C
  H249     1.0000 0.17323  0.08642  0.17323  Biso   1.000  H
  N75      1.0000 0.12483  0.02933  0.12483  Biso   1.000  N
  C418     1.0000 0.25408  0.55192  0.75408  Biso   1.000  C
  H250     1.0000 0.23959  0.58740  0.73959  Biso   1.000  H
  C419     1.0000 0.29647  0.55192  0.79647  Biso   1.000  C
  H251     1.0000 0.31096  0.58740  0.81096  Biso   1.000  H
  O100     1.0000 0.38095  0.54669  0.88095  Biso   1.000  O
  C420     1.0000 0.16428  0.54745  0.66428  Biso   1.000  C
  H252     1.0000 0.17323  0.58642  0.67323  Biso   1.000  H
  N76      1.0000 0.12483  0.52933  0.62483  Biso   1.000  N
  C421     1.0000 0.24592  0.05192  0.24592  Biso   1.000  C
  H253     1.0000 0.26041  0.08740  0.26041  Biso   1.000  H
  C422     1.0000 0.20353  0.05192  0.20353  Biso   1.000  C
  H254     1.0000 0.18904  0.08740  0.18904  Biso   1.000  H
  O101     1.0000 0.11905  0.04669  0.11905  Biso   1.000  O
  C423     1.0000 0.33572  0.04745  0.33572  Biso   1.000  C
  H255     1.0000 0.32677  0.08642  0.32677  Biso   1.000  H
  N77      1.0000 0.37517  0.02933  0.37517  Biso   1.000  N
  C424     1.0000 0.24592  0.55192  0.74592  Biso   1.000  C
  H256     1.0000 0.26041  0.58740  0.76041  Biso   1.000  H
  C425     1.0000 0.20353  0.55192  0.70353  Biso   1.000  C
  H257     1.0000 0.18904  0.58740  0.68904  Biso   1.000  H
  O102     1.0000 0.11905  0.54669  0.61905  Biso   1.000  O
  C426     1.0000 0.33572  0.54745  0.83572  Biso   1.000  C
  H258     1.0000 0.32677  0.58642  0.82677  Biso   1.000  H
  N78      1.0000 0.37517  0.52933  0.87517  Biso   1.000  N
  C427     1.0000 0.74592  0.05192  0.74592  Biso   1.000  C
  H259     1.0000 0.76041  0.08740  0.76041  Biso   1.000  H
  C428     1.0000 0.70353  0.05192  0.70353  Biso   1.000  C
  H260     1.0000 0.68904  0.08740  0.68904  Biso   1.000  H
  O103     1.0000 0.61905  0.04669  0.61905  Biso   1.000  O
  C429     1.0000 0.83572  0.04745  0.83572  Biso   1.000  C
  H261     1.0000 0.82677  0.08642  0.82677  Biso   1.000  H
  N79      1.0000 0.87517  0.02933  0.87517  Biso   1.000  N
  C430     1.0000 0.74592  0.55192  0.24592  Biso   1.000  C
  H262     1.0000 0.76041  0.58740  0.26041  Biso   1.000  H
  C431     1.0000 0.70353  0.55192  0.20353  Biso   1.000  C
  H263     1.0000 0.68904  0.58740  0.18904  Biso   1.000  H
  O104     1.0000 0.61905  0.54669  0.11905  Biso   1.000  O
  C432     1.0000 0.83572  0.54745  0.33572  Biso   1.000  C
  H264     1.0000 0.82677  0.58642  0.32677  Biso   1.000  H
  N80      1.0000 0.87517  0.52933  0.37517  Biso   1.000  N
  C433     1.0000 0.94808  0.24592  0.75408  Biso   1.000  C
  H265     1.0000 0.91260  0.26041  0.73959  Biso   1.000  H
  C434     1.0000 0.94808  0.20353  0.79647  Biso   1.000  C
  H266     1.0000 0.91260  0.18904  0.81096  Biso   1.000  H
  O105     1.0000 0.95331  0.11905  0.88095  Biso   1.000  O
  C435     1.0000 0.95255  0.33572  0.66428  Biso   1.000  C
  H267     1.0000 0.91358  0.32677  0.67323  Biso   1.000  H
  N81      1.0000 0.97067  0.37517  0.62483  Biso   1.000  N
  C436     1.0000 0.94808  0.74592  0.25408  Biso   1.000  C
  H268     1.0000 0.91260  0.76041  0.23959  Biso   1.000  H
  C437     1.0000 0.94808  0.70353  0.29647  Biso   1.000  C
  H269     1.0000 0.91260  0.68904  0.31096  Biso   1.000  H
  O106     1.0000 0.95331  0.61905  0.38095  Biso   1.000  O
  C438     1.0000 0.95255  0.83572  0.16428  Biso   1.000  C
  H270     1.0000 0.91358  0.82677  0.17323  Biso   1.000  H
  N82      1.0000 0.97067  0.87517  0.12483  Biso   1.000  N
  C439     1.0000 0.44808  0.24592  0.25408  Biso   1.000  C
  H271     1.0000 0.41260  0.26041  0.23959  Biso   1.000  H
  C440     1.0000 0.44808  0.20353  0.29647  Biso   1.000  C
  H272     1.0000 0.41260  0.18904  0.31096  Biso   1.000  H
  O107     1.0000 0.45331  0.11905  0.38095  Biso   1.000  O
  C441     1.0000 0.45255  0.33572  0.16428  Biso   1.000  C
  H273     1.0000 0.41358  0.32677  0.17323  Biso   1.000  H
  N83      1.0000 0.47067  0.37517  0.12483  Biso   1.000  N
  C442     1.0000 0.44808  0.74592  0.75408  Biso   1.000  C
  H274     1.0000 0.41260  0.76041  0.73959  Biso   1.000  H
  C443     1.0000 0.44808  0.70353  0.79647  Biso   1.000  C
  H275     1.0000 0.41260  0.68904  0.81096  Biso   1.000  H
  O108     1.0000 0.45331  0.61905  0.88095  Biso   1.000  O
  C444     1.0000 0.45255  0.83572  0.66428  Biso   1.000  C
  H276     1.0000 0.41358  0.82677  0.67323  Biso   1.000  H
  N84      1.0000 0.47067  0.87517  0.62483  Biso   1.000  N
  C445     1.0000 0.94808  0.75408  0.24592  Biso   1.000  C
  H277     1.0000 0.91260  0.73959  0.26041  Biso   1.000  H
  C446     1.0000 0.94808  0.79647  0.20353  Biso   1.000  C
  H278     1.0000 0.91260  0.81096  0.18904  Biso   1.000  H
  O109     1.0000 0.95331  0.88095  0.11905  Biso   1.000  O
  C447     1.0000 0.95255  0.66428  0.33572  Biso   1.000  C
  H279     1.0000 0.91358  0.67323  0.32677  Biso   1.000  H
  N85      1.0000 0.97067  0.62483  0.37517  Biso   1.000  N
  C448     1.0000 0.94808  0.25408  0.74592  Biso   1.000  C
  H280     1.0000 0.91260  0.23959  0.76041  Biso   1.000  H
  C449     1.0000 0.94808  0.29647  0.70353  Biso   1.000  C
  H281     1.0000 0.91260  0.31096  0.68904  Biso   1.000  H
  O110     1.0000 0.95331  0.38095  0.61905  Biso   1.000  O
  C450     1.0000 0.95255  0.16428  0.83572  Biso   1.000  C
  H282     1.0000 0.91358  0.17323  0.82677  Biso   1.000  H
  N86      1.0000 0.97067  0.12483  0.87517  Biso   1.000  N
  C451     1.0000 0.44808  0.75408  0.74592  Biso   1.000  C
  H283     1.0000 0.41260  0.73959  0.76041  Biso   1.000  H
  C452     1.0000 0.44808  0.79647  0.70353  Biso   1.000  C
  H284     1.0000 0.41260  0.81096  0.68904  Biso   1.000  H
  O111     1.0000 0.45331  0.88095  0.61905  Biso   1.000  O
  C453     1.0000 0.45255  0.66428  0.83572  Biso   1.000  C
  H285     1.0000 0.41358  0.67323  0.82677  Biso   1.000  H
  N87      1.0000 0.47067  0.62483  0.87517  Biso   1.000  N
  C454     1.0000 0.44808  0.25408  0.24592  Biso   1.000  C
  H286     1.0000 0.41260  0.23959  0.26041  Biso   1.000  H
  C455     1.0000 0.44808  0.29647  0.20353  Biso   1.000  C
  H287     1.0000 0.41260  0.31096  0.18904  Biso   1.000  H
  O112     1.0000 0.45331  0.38095  0.11905  Biso   1.000  O
  C456     1.0000 0.45255  0.16428  0.33572  Biso   1.000  C
  H288     1.0000 0.41358  0.17323  0.32677  Biso   1.000  H
  N88      1.0000 0.47067  0.12483  0.37517  Biso   1.000  N
  C457     1.0000 0.05192  0.24592  0.24592  Biso   1.000  C
  H289     1.0000 0.08740  0.26041  0.26041  Biso   1.000  H
  C458     1.0000 0.05192  0.20353  0.20353  Biso   1.000  C
  H290     1.0000 0.08740  0.18904  0.18904  Biso   1.000  H
  O113     1.0000 0.04669  0.11905  0.11905  Biso   1.000  O
  C459     1.0000 0.04745  0.33572  0.33572  Biso   1.000  C
  H291     1.0000 0.08642  0.32677  0.32677  Biso   1.000  H
  N89      1.0000 0.02933  0.37517  0.37517  Biso   1.000  N
  C460     1.0000 0.05192  0.74592  0.74592  Biso   1.000  C
  H292     1.0000 0.08740  0.76041  0.76041  Biso   1.000  H
  C461     1.0000 0.05192  0.70353  0.70353  Biso   1.000  C
  H293     1.0000 0.08740  0.68904  0.68904  Biso   1.000  H
  O114     1.0000 0.04669  0.61905  0.61905  Biso   1.000  O
  C462     1.0000 0.04745  0.83572  0.83572  Biso   1.000  C
  H294     1.0000 0.08642  0.82677  0.82677  Biso   1.000  H
  N90      1.0000 0.02933  0.87517  0.87517  Biso   1.000  N
  C463     1.0000 0.55192  0.24592  0.74592  Biso   1.000  C
  H295     1.0000 0.58740  0.26041  0.76041  Biso   1.000  H
  C464     1.0000 0.55192  0.20353  0.70353  Biso   1.000  C
  H296     1.0000 0.58740  0.18904  0.68904  Biso   1.000  H
  O115     1.0000 0.54669  0.11905  0.61905  Biso   1.000  O
  C465     1.0000 0.54745  0.33572  0.83572  Biso   1.000  C
  H297     1.0000 0.58642  0.32677  0.82677  Biso   1.000  H
  N91      1.0000 0.52933  0.37517  0.87517  Biso   1.000  N
  C466     1.0000 0.55192  0.74592  0.24592  Biso   1.000  C
  H298     1.0000 0.58740  0.76041  0.26041  Biso   1.000  H
  C467     1.0000 0.55192  0.70353  0.20353  Biso   1.000  C
  H299     1.0000 0.58740  0.68904  0.18904  Biso   1.000  H
  O116     1.0000 0.54669  0.61905  0.11905  Biso   1.000  O
  C468     1.0000 0.54745  0.83572  0.33572  Biso   1.000  C
  H300     1.0000 0.58642  0.82677  0.32677  Biso   1.000  H
  N92      1.0000 0.52933  0.87517  0.37517  Biso   1.000  N
  C469     1.0000 0.05192  0.75408  0.75408  Biso   1.000  C
  H301     1.0000 0.08740  0.73959  0.73959  Biso   1.000  H
  C470     1.0000 0.05192  0.79647  0.79647  Biso   1.000  C
  H302     1.0000 0.08740  0.81096  0.81096  Biso   1.000  H
  O117     1.0000 0.04669  0.88095  0.88095  Biso   1.000  O
  C471     1.0000 0.04745  0.66428  0.66428  Biso   1.000  C
  H303     1.0000 0.08642  0.67323  0.67323  Biso   1.000  H
  N93      1.0000 0.02933  0.62483  0.62483  Biso   1.000  N
  C472     1.0000 0.05192  0.25408  0.25408  Biso   1.000  C
  H304     1.0000 0.08740  0.23959  0.23959  Biso   1.000  H
  C473     1.0000 0.05192  0.29647  0.29647  Biso   1.000  C
  H305     1.0000 0.08740  0.31096  0.31096  Biso   1.000  H
  O118     1.0000 0.04669  0.38095  0.38095  Biso   1.000  O
  C474     1.0000 0.04745  0.16428  0.16428  Biso   1.000  C
  H306     1.0000 0.08642  0.17323  0.17323  Biso   1.000  H
  N94      1.0000 0.02933  0.12483  0.12483  Biso   1.000  N
  C475     1.0000 0.55192  0.75408  0.25408  Biso   1.000  C
  H307     1.0000 0.58740  0.73959  0.23959  Biso   1.000  H
  C476     1.0000 0.55192  0.79647  0.29647  Biso   1.000  C
  H308     1.0000 0.58740  0.81096  0.31096  Biso   1.000  H
  O119     1.0000 0.54669  0.88095  0.38095  Biso   1.000  O
  C477     1.0000 0.54745  0.66428  0.16428  Biso   1.000  C
  H309     1.0000 0.58642  0.67323  0.17323  Biso   1.000  H
  N95      1.0000 0.52933  0.62483  0.12483  Biso   1.000  N
  C478     1.0000 0.55192  0.25408  0.75408  Biso   1.000  C
  H310     1.0000 0.58740  0.23959  0.73959  Biso   1.000  H
  C479     1.0000 0.55192  0.29647  0.79647  Biso   1.000  C
  H311     1.0000 0.58740  0.31096  0.81096  Biso   1.000  H
  O120     1.0000 0.54669  0.38095  0.88095  Biso   1.000  O
  C480     1.0000 0.54745  0.16428  0.66428  Biso   1.000  C
  H312     1.0000 0.58642  0.17323  0.67323  Biso   1.000  H
  N96      1.0000 0.52933  0.12483  0.62483  Biso   1.000  N
