data_image0
_cell_length_a       28.526
_cell_length_b       28.526
_cell_length_c       28.526
_cell_angle_alpha    90
_cell_angle_beta     90
_cell_angle_gamma    90

_symmetry_space_group_name_H-M    "P 1"
_symmetry_int_tables_number       1

loop_
  _symmetry_equiv_pos_as_xyz
  'x, y, z'

loop_
  _atom_site_label
  _atom_site_occupancy
  _atom_site_fract_x
  _atom_site_fract_y
  _atom_site_fract_z
  _atom_site_thermal_displace_type
  _atom_site_B_iso_or_equiv
  _atom_site_type_symbol
  N1       1.0000 0.45130  0.08610  0.05220  Biso   1.000  N
  N2       1.0000 0.41970  0.11690  0.05880  Biso   1.000  N
  C1       1.0000 0.35150  0.17200  0.11400  Biso   1.000  C
  C2       1.0000 0.33020  0.14840  0.09050  Biso   1.000  C
  C3       1.0000 0.31300  0.19340  0.13460  Biso   1.000  C
  C4       1.0000 0.28610  0.16900  0.11070  Biso   1.000  C
  N3       1.0000 0.54870  0.91390  0.05220  Biso   1.000  N
  N4       1.0000 0.58030  0.88310  0.05880  Biso   1.000  N
  C5       1.0000 0.64850  0.82800  0.11400  Biso   1.000  C
  C6       1.0000 0.66980  0.85160  0.09050  Biso   1.000  C
  C7       1.0000 0.68700  0.80660  0.13460  Biso   1.000  C
  C8       1.0000 0.71390  0.83100  0.11070  Biso   1.000  C
  N5       1.0000 0.54870  0.08610  0.94780  Biso   1.000  N
  N6       1.0000 0.58030  0.11690  0.94120  Biso   1.000  N
  C9       1.0000 0.64850  0.17200  0.88600  Biso   1.000  C
  C10      1.0000 0.66980  0.14840  0.90950  Biso   1.000  C
  C11      1.0000 0.68700  0.19340  0.86540  Biso   1.000  C
  C12      1.0000 0.71390  0.16900  0.88930  Biso   1.000  C
  N7       1.0000 0.45130  0.91390  0.94780  Biso   1.000  N
  N8       1.0000 0.41970  0.88310  0.94120  Biso   1.000  N
  C13      1.0000 0.35150  0.82800  0.88600  Biso   1.000  C
  C14      1.0000 0.33020  0.85160  0.90950  Biso   1.000  C
  C15      1.0000 0.31300  0.80660  0.86540  Biso   1.000  C
  C16      1.0000 0.28610  0.83100  0.88930  Biso   1.000  C
  N9       1.0000 0.05220  0.45130  0.08610  Biso   1.000  N
  N10      1.0000 0.05880  0.41970  0.11690  Biso   1.000  N
  C17      1.0000 0.11400  0.35150  0.17200  Biso   1.000  C
  C18      1.0000 0.09050  0.33020  0.14840  Biso   1.000  C
  C19      1.0000 0.13460  0.31300  0.19340  Biso   1.000  C
  C20      1.0000 0.11070  0.28610  0.16900  Biso   1.000  C
  N11      1.0000 0.05220  0.54870  0.91390  Biso   1.000  N
  N12      1.0000 0.05880  0.58030  0.88310  Biso   1.000  N
  C21      1.0000 0.11400  0.64850  0.82800  Biso   1.000  C
  C22      1.0000 0.09050  0.66980  0.85160  Biso   1.000  C
  C23      1.0000 0.13460  0.68700  0.80660  Biso   1.000  C
  C24      1.0000 0.11070  0.71390  0.83100  Biso   1.000  C
  N13      1.0000 0.94780  0.54870  0.08610  Biso   1.000  N
  N14      1.0000 0.94120  0.58030  0.11690  Biso   1.000  N
  C25      1.0000 0.88600  0.64850  0.17200  Biso   1.000  C
  C26      1.0000 0.90950  0.66980  0.14840  Biso   1.000  C
  C27      1.0000 0.86540  0.68700  0.19340  Biso   1.000  C
  C28      1.0000 0.88930  0.71390  0.16900  Biso   1.000  C
  N15      1.0000 0.94780  0.45130  0.91390  Biso   1.000  N
  N16      1.0000 0.94120  0.41970  0.88310  Biso   1.000  N
  C29      1.0000 0.88600  0.35150  0.82800  Biso   1.000  C
  C30      1.0000 0.90950  0.33020  0.85160  Biso   1.000  C
  C31      1.0000 0.86540  0.31300  0.80660  Biso   1.000  C
  C32      1.0000 0.88930  0.28610  0.83100  Biso   1.000  C
  N17      1.0000 0.08610  0.05220  0.45130  Biso   1.000  N
  N18      1.0000 0.11690  0.05880  0.41970  Biso   1.000  N
  C33      1.0000 0.17200  0.11400  0.35150  Biso   1.000  C
  C34      1.0000 0.14840  0.09050  0.33020  Biso   1.000  C
  C35      1.0000 0.19340  0.13460  0.31300  Biso   1.000  C
  C36      1.0000 0.16900  0.11070  0.28610  Biso   1.000  C
  N19      1.0000 0.91390  0.05220  0.54870  Biso   1.000  N
  N20      1.0000 0.88310  0.05880  0.58030  Biso   1.000  N
  C37      1.0000 0.82800  0.11400  0.64850  Biso   1.000  C
  C38      1.0000 0.85160  0.09050  0.66980  Biso   1.000  C
  C39      1.0000 0.80660  0.13460  0.68700  Biso   1.000  C
  C40      1.0000 0.83100  0.11070  0.71390  Biso   1.000  C
  N21      1.0000 0.08610  0.94780  0.54870  Biso   1.000  N
  N22      1.0000 0.11690  0.94120  0.58030  Biso   1.000  N
  C41      1.0000 0.17200  0.88600  0.64850  Biso   1.000  C
  C42      1.0000 0.14840  0.90950  0.66980  Biso   1.000  C
  C43      1.0000 0.19340  0.86540  0.68700  Biso   1.000  C
  C44      1.0000 0.16900  0.88930  0.71390  Biso   1.000  C
  N23      1.0000 0.91390  0.94780  0.45130  Biso   1.000  N
  N24      1.0000 0.88310  0.94120  0.41970  Biso   1.000  N
  C45      1.0000 0.82800  0.88600  0.35150  Biso   1.000  C
  C46      1.0000 0.85160  0.90950  0.33020  Biso   1.000  C
  C47      1.0000 0.80660  0.86540  0.31300  Biso   1.000  C
  C48      1.0000 0.83100  0.88930  0.28610  Biso   1.000  C
  N25      1.0000 0.08610  0.45130  0.94780  Biso   1.000  N
  N26      1.0000 0.11690  0.41970  0.94120  Biso   1.000  N
  C49      1.0000 0.17200  0.35150  0.88600  Biso   1.000  C
  C50      1.0000 0.14840  0.33020  0.90950  Biso   1.000  C
  C51      1.0000 0.19340  0.31300  0.86540  Biso   1.000  C
  C52      1.0000 0.16900  0.28610  0.88930  Biso   1.000  C
  N27      1.0000 0.91390  0.54870  0.94780  Biso   1.000  N
  N28      1.0000 0.88310  0.58030  0.94120  Biso   1.000  N
  C53      1.0000 0.82800  0.64850  0.88600  Biso   1.000  C
  C54      1.0000 0.85160  0.66980  0.90950  Biso   1.000  C
  C55      1.0000 0.80660  0.68700  0.86540  Biso   1.000  C
  C56      1.0000 0.83100  0.71390  0.88930  Biso   1.000  C
  N29      1.0000 0.08610  0.54870  0.05220  Biso   1.000  N
  N30      1.0000 0.11690  0.58030  0.05880  Biso   1.000  N
  C57      1.0000 0.17200  0.64850  0.11400  Biso   1.000  C
  C58      1.0000 0.14840  0.66980  0.09050  Biso   1.000  C
  C59      1.0000 0.19340  0.68700  0.13460  Biso   1.000  C
  C60      1.0000 0.16900  0.71390  0.11070  Biso   1.000  C
  N31      1.0000 0.91390  0.45130  0.05220  Biso   1.000  N
  N32      1.0000 0.88310  0.41970  0.05880  Biso   1.000  N
  C61      1.0000 0.82800  0.35150  0.11400  Biso   1.000  C
  C62      1.0000 0.85160  0.33020  0.09050  Biso   1.000  C
  C63      1.0000 0.80660  0.31300  0.13460  Biso   1.000  C
  C64      1.0000 0.83100  0.28610  0.11070  Biso   1.000  C
  N33      1.0000 0.45130  0.05220  0.91390  Biso   1.000  N
  N34      1.0000 0.41970  0.05880  0.88310  Biso   1.000  N
  C65      1.0000 0.35150  0.11400  0.82800  Biso   1.000  C
  C66      1.0000 0.33020  0.09050  0.85160  Biso   1.000  C
  C67      1.0000 0.31300  0.13460  0.80660  Biso   1.000  C
  C68      1.0000 0.28610  0.11070  0.83100  Biso   1.000  C
  N35      1.0000 0.54870  0.05220  0.08610  Biso   1.000  N
  N36      1.0000 0.58030  0.05880  0.11690  Biso   1.000  N
  C69      1.0000 0.64850  0.11400  0.17200  Biso   1.000  C
  C70      1.0000 0.66980  0.09050  0.14840  Biso   1.000  C
  C71      1.0000 0.68700  0.13460  0.19340  Biso   1.000  C
  C72      1.0000 0.71390  0.11070  0.16900  Biso   1.000  C
  N37      1.0000 0.54870  0.94780  0.91390  Biso   1.000  N
  N38      1.0000 0.58030  0.94120  0.88310  Biso   1.000  N
  C73      1.0000 0.64850  0.88600  0.82800  Biso   1.000  C
  C74      1.0000 0.66980  0.90950  0.85160  Biso   1.000  C
  C75      1.0000 0.68700  0.86540  0.80660  Biso   1.000  C
  C76      1.0000 0.71390  0.88930  0.83100  Biso   1.000  C
  N39      1.0000 0.45130  0.94780  0.08610  Biso   1.000  N
  N40      1.0000 0.41970  0.94120  0.11690  Biso   1.000  N
  C77      1.0000 0.35150  0.88600  0.17200  Biso   1.000  C
  C78      1.0000 0.33020  0.90950  0.14840  Biso   1.000  C
  C79      1.0000 0.31300  0.86540  0.19340  Biso   1.000  C
  C80      1.0000 0.28610  0.88930  0.16900  Biso   1.000  C
  N41      1.0000 0.05220  0.08610  0.54870  Biso   1.000  N
  N42      1.0000 0.05880  0.11690  0.58030  Biso   1.000  N
  C81      1.0000 0.11400  0.17200  0.64850  Biso   1.000  C
  C82      1.0000 0.09050  0.14840  0.66980  Biso   1.000  C
  C83      1.0000 0.13460  0.19340  0.68700  Biso   1.000  C
  C84      1.0000 0.11070  0.16900  0.71390  Biso   1.000  C
  N43      1.0000 0.05220  0.91390  0.45130  Biso   1.000  N
  N44      1.0000 0.05880  0.88310  0.41970  Biso   1.000  N
  C85      1.0000 0.11400  0.82800  0.35150  Biso   1.000  C
  C86      1.0000 0.09050  0.85160  0.33020  Biso   1.000  C
  C87      1.0000 0.13460  0.80660  0.31300  Biso   1.000  C
  C88      1.0000 0.11070  0.83100  0.28610  Biso   1.000  C
  N45      1.0000 0.94780  0.08610  0.45130  Biso   1.000  N
  N46      1.0000 0.94120  0.11690  0.41970  Biso   1.000  N
  C89      1.0000 0.88600  0.17200  0.35150  Biso   1.000  C
  C90      1.0000 0.90950  0.14840  0.33020  Biso   1.000  C
  C91      1.0000 0.86540  0.19340  0.31300  Biso   1.000  C
  C92      1.0000 0.88930  0.16900  0.28610  Biso   1.000  C
  N47      1.0000 0.94780  0.91390  0.54870  Biso   1.000  N
  N48      1.0000 0.94120  0.88310  0.58030  Biso   1.000  N
  C93      1.0000 0.88600  0.82800  0.64850  Biso   1.000  C
  C94      1.0000 0.90950  0.85160  0.66980  Biso   1.000  C
  C95      1.0000 0.86540  0.80660  0.68700  Biso   1.000  C
  C96      1.0000 0.88930  0.83100  0.71390  Biso   1.000  C
  N49      1.0000 0.54870  0.91390  0.94780  Biso   1.000  N
  N50      1.0000 0.58030  0.88310  0.94120  Biso   1.000  N
  C97      1.0000 0.64850  0.82800  0.88600  Biso   1.000  C
  C98      1.0000 0.66980  0.85160  0.90950  Biso   1.000  C
  C99      1.0000 0.68700  0.80660  0.86540  Biso   1.000  C
  C100     1.0000 0.71390  0.83100  0.88930  Biso   1.000  C
  N51      1.0000 0.45130  0.08610  0.94780  Biso   1.000  N
  N52      1.0000 0.41970  0.11690  0.94120  Biso   1.000  N
  C101     1.0000 0.35150  0.17200  0.88600  Biso   1.000  C
  C102     1.0000 0.33020  0.14840  0.90950  Biso   1.000  C
  C103     1.0000 0.31300  0.19340  0.86540  Biso   1.000  C
  C104     1.0000 0.28610  0.16900  0.88930  Biso   1.000  C
  N53      1.0000 0.45130  0.91390  0.05220  Biso   1.000  N
  N54      1.0000 0.41970  0.88310  0.05880  Biso   1.000  N
  C105     1.0000 0.35150  0.82800  0.11400  Biso   1.000  C
  C106     1.0000 0.33020  0.85160  0.09050  Biso   1.000  C
  C107     1.0000 0.31300  0.80660  0.13460  Biso   1.000  C
  C108     1.0000 0.28610  0.83100  0.11070  Biso   1.000  C
  N55      1.0000 0.54870  0.08610  0.05220  Biso   1.000  N
  N56      1.0000 0.58030  0.11690  0.05880  Biso   1.000  N
  C109     1.0000 0.64850  0.17200  0.11400  Biso   1.000  C
  C110     1.0000 0.66980  0.14840  0.09050  Biso   1.000  C
  C111     1.0000 0.68700  0.19340  0.13460  Biso   1.000  C
  C112     1.0000 0.71390  0.16900  0.11070  Biso   1.000  C
  N57      1.0000 0.94780  0.54870  0.91390  Biso   1.000  N
  N58      1.0000 0.94120  0.58030  0.88310  Biso   1.000  N
  C113     1.0000 0.88600  0.64850  0.82800  Biso   1.000  C
  C114     1.0000 0.90950  0.66980  0.85160  Biso   1.000  C
  C115     1.0000 0.86540  0.68700  0.80660  Biso   1.000  C
  C116     1.0000 0.88930  0.71390  0.83100  Biso   1.000  C
  N59      1.0000 0.94780  0.45130  0.08610  Biso   1.000  N
  N60      1.0000 0.94120  0.41970  0.11690  Biso   1.000  N
  C117     1.0000 0.88600  0.35150  0.17200  Biso   1.000  C
  C118     1.0000 0.90950  0.33020  0.14840  Biso   1.000  C
  C119     1.0000 0.86540  0.31300  0.19340  Biso   1.000  C
  C120     1.0000 0.88930  0.28610  0.16900  Biso   1.000  C
  N61      1.0000 0.05220  0.45130  0.91390  Biso   1.000  N
  N62      1.0000 0.05880  0.41970  0.88310  Biso   1.000  N
  C121     1.0000 0.11400  0.35150  0.82800  Biso   1.000  C
  C122     1.0000 0.09050  0.33020  0.85160  Biso   1.000  C
  C123     1.0000 0.13460  0.31300  0.80660  Biso   1.000  C
  C124     1.0000 0.11070  0.28610  0.83100  Biso   1.000  C
  N63      1.0000 0.05220  0.54870  0.08610  Biso   1.000  N
  N64      1.0000 0.05880  0.58030  0.11690  Biso   1.000  N
  C125     1.0000 0.11400  0.64850  0.17200  Biso   1.000  C
  C126     1.0000 0.09050  0.66980  0.14840  Biso   1.000  C
  C127     1.0000 0.13460  0.68700  0.19340  Biso   1.000  C
  C128     1.0000 0.11070  0.71390  0.16900  Biso   1.000  C
  N65      1.0000 0.91390  0.94780  0.54870  Biso   1.000  N
  N66      1.0000 0.88310  0.94120  0.58030  Biso   1.000  N
  C129     1.0000 0.82800  0.88600  0.64850  Biso   1.000  C
  C130     1.0000 0.85160  0.90950  0.66980  Biso   1.000  C
  C131     1.0000 0.80660  0.86540  0.68700  Biso   1.000  C
  C132     1.0000 0.83100  0.88930  0.71390  Biso   1.000  C
  N67      1.0000 0.08610  0.94780  0.45130  Biso   1.000  N
  N68      1.0000 0.11690  0.94120  0.41970  Biso   1.000  N
  C133     1.0000 0.17200  0.88600  0.35150  Biso   1.000  C
  C134     1.0000 0.14840  0.90950  0.33020  Biso   1.000  C
  C135     1.0000 0.19340  0.86540  0.31300  Biso   1.000  C
  C136     1.0000 0.16900  0.88930  0.28610  Biso   1.000  C
  N69      1.0000 0.91390  0.05220  0.45130  Biso   1.000  N
  N70      1.0000 0.88310  0.05880  0.41970  Biso   1.000  N
  C137     1.0000 0.82800  0.11400  0.35150  Biso   1.000  C
  C138     1.0000 0.85160  0.09050  0.33020  Biso   1.000  C
  C139     1.0000 0.80660  0.13460  0.31300  Biso   1.000  C
  C140     1.0000 0.83100  0.11070  0.28610  Biso   1.000  C
  N71      1.0000 0.08610  0.05220  0.54870  Biso   1.000  N
  N72      1.0000 0.11690  0.05880  0.58030  Biso   1.000  N
  C141     1.0000 0.17200  0.11400  0.64850  Biso   1.000  C
  C142     1.0000 0.14840  0.09050  0.66980  Biso   1.000  C
  C143     1.0000 0.19340  0.13460  0.68700  Biso   1.000  C
  C144     1.0000 0.16900  0.11070  0.71390  Biso   1.000  C
  N73      1.0000 0.91390  0.54870  0.05220  Biso   1.000  N
  N74      1.0000 0.88310  0.58030  0.05880  Biso   1.000  N
  C145     1.0000 0.82800  0.64850  0.11400  Biso   1.000  C
  C146     1.0000 0.85160  0.66980  0.09050  Biso   1.000  C
  C147     1.0000 0.80660  0.68700  0.13460  Biso   1.000  C
  C148     1.0000 0.83100  0.71390  0.11070  Biso   1.000  C
  N75      1.0000 0.08610  0.45130  0.05220  Biso   1.000  N
  N76      1.0000 0.11690  0.41970  0.05880  Biso   1.000  N
  C149     1.0000 0.17200  0.35150  0.11400  Biso   1.000  C
  C150     1.0000 0.14840  0.33020  0.09050  Biso   1.000  C
  C151     1.0000 0.19340  0.31300  0.13460  Biso   1.000  C
  C152     1.0000 0.16900  0.28610  0.11070  Biso   1.000  C
  N77      1.0000 0.91390  0.45130  0.94780  Biso   1.000  N
  N78      1.0000 0.88310  0.41970  0.94120  Biso   1.000  N
  C153     1.0000 0.82800  0.35150  0.88600  Biso   1.000  C
  C154     1.0000 0.85160  0.33020  0.90950  Biso   1.000  C
  C155     1.0000 0.80660  0.31300  0.86540  Biso   1.000  C
  C156     1.0000 0.83100  0.28610  0.88930  Biso   1.000  C
  N79      1.0000 0.08610  0.54870  0.94780  Biso   1.000  N
  N80      1.0000 0.11690  0.58030  0.94120  Biso   1.000  N
  C157     1.0000 0.17200  0.64850  0.88600  Biso   1.000  C
  C158     1.0000 0.14840  0.66980  0.90950  Biso   1.000  C
  C159     1.0000 0.19340  0.68700  0.86540  Biso   1.000  C
  C160     1.0000 0.16900  0.71390  0.88930  Biso   1.000  C
  N81      1.0000 0.54870  0.94780  0.08610  Biso   1.000  N
  N82      1.0000 0.58030  0.94120  0.11690  Biso   1.000  N
  C161     1.0000 0.64850  0.88600  0.17200  Biso   1.000  C
  C162     1.0000 0.66980  0.90950  0.14840  Biso   1.000  C
  C163     1.0000 0.68700  0.86540  0.19340  Biso   1.000  C
  C164     1.0000 0.71390  0.88930  0.16900  Biso   1.000  C
  N83      1.0000 0.45130  0.94780  0.91390  Biso   1.000  N
  N84      1.0000 0.41970  0.94120  0.88310  Biso   1.000  N
  C165     1.0000 0.35150  0.88600  0.82800  Biso   1.000  C
  C166     1.0000 0.33020  0.90950  0.85160  Biso   1.000  C
  C167     1.0000 0.31300  0.86540  0.80660  Biso   1.000  C
  C168     1.0000 0.28610  0.88930  0.83100  Biso   1.000  C
  N85      1.0000 0.45130  0.05220  0.08610  Biso   1.000  N
  N86      1.0000 0.41970  0.05880  0.11690  Biso   1.000  N
  C169     1.0000 0.35150  0.11400  0.17200  Biso   1.000  C
  C170     1.0000 0.33020  0.09050  0.14840  Biso   1.000  C
  C171     1.0000 0.31300  0.13460  0.19340  Biso   1.000  C
  C172     1.0000 0.28610  0.11070  0.16900  Biso   1.000  C
  N87      1.0000 0.54870  0.05220  0.91390  Biso   1.000  N
  N88      1.0000 0.58030  0.05880  0.88310  Biso   1.000  N
  C173     1.0000 0.64850  0.11400  0.82800  Biso   1.000  C
  C174     1.0000 0.66980  0.09050  0.85160  Biso   1.000  C
  C175     1.0000 0.68700  0.13460  0.80660  Biso   1.000  C
  C176     1.0000 0.71390  0.11070  0.83100  Biso   1.000  C
  N89      1.0000 0.94780  0.91390  0.45130  Biso   1.000  N
  N90      1.0000 0.94120  0.88310  0.41970  Biso   1.000  N
  C177     1.0000 0.88600  0.82800  0.35150  Biso   1.000  C
  C178     1.0000 0.90950  0.85160  0.33020  Biso   1.000  C
  C179     1.0000 0.86540  0.80660  0.31300  Biso   1.000  C
  C180     1.0000 0.88930  0.83100  0.28610  Biso   1.000  C
  N91      1.0000 0.94780  0.08610  0.54870  Biso   1.000  N
  N92      1.0000 0.94120  0.11690  0.58030  Biso   1.000  N
  C181     1.0000 0.88600  0.17200  0.64850  Biso   1.000  C
  C182     1.0000 0.90950  0.14840  0.66980  Biso   1.000  C
  C183     1.0000 0.86540  0.19340  0.68700  Biso   1.000  C
  C184     1.0000 0.88930  0.16900  0.71390  Biso   1.000  C
  N93      1.0000 0.05220  0.91390  0.54870  Biso   1.000  N
  N94      1.0000 0.05880  0.88310  0.58030  Biso   1.000  N
  C185     1.0000 0.11400  0.82800  0.64850  Biso   1.000  C
  C186     1.0000 0.09050  0.85160  0.66980  Biso   1.000  C
  C187     1.0000 0.13460  0.80660  0.68700  Biso   1.000  C
  C188     1.0000 0.11070  0.83100  0.71390  Biso   1.000  C
  N95      1.0000 0.05220  0.08610  0.45130  Biso   1.000  N
  N96      1.0000 0.05880  0.11690  0.41970  Biso   1.000  N
  C189     1.0000 0.11400  0.17200  0.35150  Biso   1.000  C
  C190     1.0000 0.09050  0.14840  0.33020  Biso   1.000  C
  C191     1.0000 0.13460  0.19340  0.31300  Biso   1.000  C
  C192     1.0000 0.11070  0.16900  0.28610  Biso   1.000  C
  Cu1      1.0000 0.50000  0.08940  0.00000  Biso   1.000  Cu
  Cu2      1.0000 0.50000  0.91060  0.00000  Biso   1.000  Cu
  Cu3      1.0000 0.00000  0.50000  0.08940  Biso   1.000  Cu
  Cu4      1.0000 0.00000  0.50000  0.91060  Biso   1.000  Cu
  Cu5      1.0000 0.08940  0.00000  0.50000  Biso   1.000  Cu
  Cu6      1.0000 0.91060  0.00000  0.50000  Biso   1.000  Cu
  Cu7      1.0000 0.08940  0.50000  0.00000  Biso   1.000  Cu
  Cu8      1.0000 0.91060  0.50000  0.00000  Biso   1.000  Cu
  Cu9      1.0000 0.50000  0.00000  0.91060  Biso   1.000  Cu
  Cu10     1.0000 0.50000  0.00000  0.08940  Biso   1.000  Cu
  Cu11     1.0000 0.00000  0.08940  0.50000  Biso   1.000  Cu
  Cu12     1.0000 0.00000  0.91060  0.50000  Biso   1.000  Cu
  Cl1      1.0000 0.50000  0.00000  0.00000  Biso   1.000  Cl
  Cl2      1.0000 0.00000  0.50000  0.00000  Biso   1.000  Cl
  Cl3      1.0000 0.00000  0.00000  0.50000  Biso   1.000  Cl
  N97      1.0000 0.23740  0.23740  0.17600  Biso   1.000  N
  N98      1.0000 0.20960  0.20960  0.15100  Biso   1.000  N
  N99      1.0000 0.76260  0.76260  0.17600  Biso   1.000  N
  N100     1.0000 0.79040  0.79040  0.15100  Biso   1.000  N
  N101     1.0000 0.76260  0.23740  0.82400  Biso   1.000  N
  N102     1.0000 0.79040  0.20960  0.84900  Biso   1.000  N
  N103     1.0000 0.23740  0.76260  0.82400  Biso   1.000  N
  N104     1.0000 0.20960  0.79040  0.84900  Biso   1.000  N
  N105     1.0000 0.17600  0.23740  0.23740  Biso   1.000  N
  N106     1.0000 0.15100  0.20960  0.20960  Biso   1.000  N
  N107     1.0000 0.17600  0.76260  0.76260  Biso   1.000  N
  N108     1.0000 0.15100  0.79040  0.79040  Biso   1.000  N
  N109     1.0000 0.82400  0.76260  0.23740  Biso   1.000  N
  N110     1.0000 0.84900  0.79040  0.20960  Biso   1.000  N
  N111     1.0000 0.82400  0.23740  0.76260  Biso   1.000  N
  N112     1.0000 0.84900  0.20960  0.79040  Biso   1.000  N
  N113     1.0000 0.23740  0.17600  0.23740  Biso   1.000  N
  N114     1.0000 0.20960  0.15100  0.20960  Biso   1.000  N
  N115     1.0000 0.76260  0.17600  0.76260  Biso   1.000  N
  N116     1.0000 0.79040  0.15100  0.79040  Biso   1.000  N
  N117     1.0000 0.23740  0.82400  0.76260  Biso   1.000  N
  N118     1.0000 0.20960  0.84900  0.79040  Biso   1.000  N
  N119     1.0000 0.76260  0.82400  0.23740  Biso   1.000  N
  N120     1.0000 0.79040  0.84900  0.20960  Biso   1.000  N
  N121     1.0000 0.23740  0.23740  0.82400  Biso   1.000  N
  N122     1.0000 0.20960  0.20960  0.84900  Biso   1.000  N
  N123     1.0000 0.76260  0.76260  0.82400  Biso   1.000  N
  N124     1.0000 0.79040  0.79040  0.84900  Biso   1.000  N
  N125     1.0000 0.23740  0.76260  0.17600  Biso   1.000  N
  N126     1.0000 0.20960  0.79040  0.15100  Biso   1.000  N
  N127     1.0000 0.76260  0.23740  0.17600  Biso   1.000  N
  N128     1.0000 0.79040  0.20960  0.15100  Biso   1.000  N
  N129     1.0000 0.23740  0.17600  0.76260  Biso   1.000  N
  N130     1.0000 0.20960  0.15100  0.79040  Biso   1.000  N
  N131     1.0000 0.76260  0.17600  0.23740  Biso   1.000  N
  N132     1.0000 0.79040  0.15100  0.20960  Biso   1.000  N
  N133     1.0000 0.76260  0.82400  0.76260  Biso   1.000  N
  N134     1.0000 0.79040  0.84900  0.79040  Biso   1.000  N
  N135     1.0000 0.23740  0.82400  0.23740  Biso   1.000  N
  N136     1.0000 0.20960  0.84900  0.20960  Biso   1.000  N
  N137     1.0000 0.17600  0.23740  0.76260  Biso   1.000  N
  N138     1.0000 0.15100  0.20960  0.79040  Biso   1.000  N
  N139     1.0000 0.17600  0.76260  0.23740  Biso   1.000  N
  N140     1.0000 0.15100  0.79040  0.20960  Biso   1.000  N
  N141     1.0000 0.82400  0.23740  0.23740  Biso   1.000  N
  N142     1.0000 0.84900  0.20960  0.20960  Biso   1.000  N
  N143     1.0000 0.82400  0.76260  0.76260  Biso   1.000  N
  N144     1.0000 0.84900  0.79040  0.79040  Biso   1.000  N
  C193     1.0000 0.40040  0.09910  0.09910  Biso   1.000  C
  C194     1.0000 0.36800  0.13110  0.13110  Biso   1.000  C
  C195     1.0000 0.35100  0.11190  0.11190  Biso   1.000  C
  C196     1.0000 0.29360  0.17100  0.17100  Biso   1.000  C
  C197     1.0000 0.26100  0.14100  0.14100  Biso   1.000  C
  C198     1.0000 0.25650  0.19830  0.19830  Biso   1.000  C
  C199     1.0000 0.59960  0.90090  0.09910  Biso   1.000  C
  C200     1.0000 0.63200  0.86890  0.13110  Biso   1.000  C
  C201     1.0000 0.64900  0.88810  0.11190  Biso   1.000  C
  C202     1.0000 0.70640  0.82900  0.17100  Biso   1.000  C
  C203     1.0000 0.73900  0.85900  0.14100  Biso   1.000  C
  C204     1.0000 0.74350  0.80170  0.19830  Biso   1.000  C
  C205     1.0000 0.59960  0.09910  0.90090  Biso   1.000  C
  C206     1.0000 0.63200  0.13110  0.86890  Biso   1.000  C
  C207     1.0000 0.64900  0.11190  0.88810  Biso   1.000  C
  C208     1.0000 0.70640  0.17100  0.82900  Biso   1.000  C
  C209     1.0000 0.73900  0.14100  0.85900  Biso   1.000  C
  C210     1.0000 0.74350  0.19830  0.80170  Biso   1.000  C
  C211     1.0000 0.40040  0.90090  0.90090  Biso   1.000  C
  C212     1.0000 0.36800  0.86890  0.86890  Biso   1.000  C
  C213     1.0000 0.35100  0.88810  0.88810  Biso   1.000  C
  C214     1.0000 0.29360  0.82900  0.82900  Biso   1.000  C
  C215     1.0000 0.26100  0.85900  0.85900  Biso   1.000  C
  C216     1.0000 0.25650  0.80170  0.80170  Biso   1.000  C
  C217     1.0000 0.09910  0.40040  0.09910  Biso   1.000  C
  C218     1.0000 0.13110  0.36800  0.13110  Biso   1.000  C
  C219     1.0000 0.11190  0.35100  0.11190  Biso   1.000  C
  C220     1.0000 0.17100  0.29360  0.17100  Biso   1.000  C
  C221     1.0000 0.14100  0.26100  0.14100  Biso   1.000  C
  C222     1.0000 0.19830  0.25650  0.19830  Biso   1.000  C
  C223     1.0000 0.09910  0.59960  0.90090  Biso   1.000  C
  C224     1.0000 0.13110  0.63200  0.86890  Biso   1.000  C
  C225     1.0000 0.11190  0.64900  0.88810  Biso   1.000  C
  C226     1.0000 0.17100  0.70640  0.82900  Biso   1.000  C
  C227     1.0000 0.14100  0.73900  0.85900  Biso   1.000  C
  C228     1.0000 0.19830  0.74350  0.80170  Biso   1.000  C
  C229     1.0000 0.90090  0.59960  0.09910  Biso   1.000  C
  C230     1.0000 0.86890  0.63200  0.13110  Biso   1.000  C
  C231     1.0000 0.88810  0.64900  0.11190  Biso   1.000  C
  C232     1.0000 0.82900  0.70640  0.17100  Biso   1.000  C
  C233     1.0000 0.85900  0.73900  0.14100  Biso   1.000  C
  C234     1.0000 0.80170  0.74350  0.19830  Biso   1.000  C
  C235     1.0000 0.90090  0.40040  0.90090  Biso   1.000  C
  C236     1.0000 0.86890  0.36800  0.86890  Biso   1.000  C
  C237     1.0000 0.88810  0.35100  0.88810  Biso   1.000  C
  C238     1.0000 0.82900  0.29360  0.82900  Biso   1.000  C
  C239     1.0000 0.85900  0.26100  0.85900  Biso   1.000  C
  C240     1.0000 0.80170  0.25650  0.80170  Biso   1.000  C
  C241     1.0000 0.09910  0.09910  0.40040  Biso   1.000  C
  C242     1.0000 0.13110  0.13110  0.36800  Biso   1.000  C
  C243     1.0000 0.11190  0.11190  0.35100  Biso   1.000  C
  C244     1.0000 0.17100  0.17100  0.29360  Biso   1.000  C
  C245     1.0000 0.14100  0.14100  0.26100  Biso   1.000  C
  C246     1.0000 0.19830  0.19830  0.25650  Biso   1.000  C
  C247     1.0000 0.90090  0.09910  0.59960  Biso   1.000  C
  C248     1.0000 0.86890  0.13110  0.63200  Biso   1.000  C
  C249     1.0000 0.88810  0.11190  0.64900  Biso   1.000  C
  C250     1.0000 0.82900  0.17100  0.70640  Biso   1.000  C
  C251     1.0000 0.85900  0.14100  0.73900  Biso   1.000  C
  C252     1.0000 0.80170  0.19830  0.74350  Biso   1.000  C
  C253     1.0000 0.09910  0.90090  0.59960  Biso   1.000  C
  C254     1.0000 0.13110  0.86890  0.63200  Biso   1.000  C
  C255     1.0000 0.11190  0.88810  0.64900  Biso   1.000  C
  C256     1.0000 0.17100  0.82900  0.70640  Biso   1.000  C
  C257     1.0000 0.14100  0.85900  0.73900  Biso   1.000  C
  C258     1.0000 0.19830  0.80170  0.74350  Biso   1.000  C
  C259     1.0000 0.90090  0.90090  0.40040  Biso   1.000  C
  C260     1.0000 0.86890  0.86890  0.36800  Biso   1.000  C
  C261     1.0000 0.88810  0.88810  0.35100  Biso   1.000  C
  C262     1.0000 0.82900  0.82900  0.29360  Biso   1.000  C
  C263     1.0000 0.85900  0.85900  0.26100  Biso   1.000  C
  C264     1.0000 0.80170  0.80170  0.25650  Biso   1.000  C
  C265     1.0000 0.09910  0.40040  0.90090  Biso   1.000  C
  C266     1.0000 0.13110  0.36800  0.86890  Biso   1.000  C
  C267     1.0000 0.11190  0.35100  0.88810  Biso   1.000  C
  C268     1.0000 0.17100  0.29360  0.82900  Biso   1.000  C
  C269     1.0000 0.14100  0.26100  0.85900  Biso   1.000  C
  C270     1.0000 0.19830  0.25650  0.80170  Biso   1.000  C
  C271     1.0000 0.90090  0.59960  0.90090  Biso   1.000  C
  C272     1.0000 0.86890  0.63200  0.86890  Biso   1.000  C
  C273     1.0000 0.88810  0.64900  0.88810  Biso   1.000  C
  C274     1.0000 0.82900  0.70640  0.82900  Biso   1.000  C
  C275     1.0000 0.85900  0.73900  0.85900  Biso   1.000  C
  C276     1.0000 0.80170  0.74350  0.80170  Biso   1.000  C
  C277     1.0000 0.09910  0.59960  0.09910  Biso   1.000  C
  C278     1.0000 0.13110  0.63200  0.13110  Biso   1.000  C
  C279     1.0000 0.11190  0.64900  0.11190  Biso   1.000  C
  C280     1.0000 0.17100  0.70640  0.17100  Biso   1.000  C
  C281     1.0000 0.14100  0.73900  0.14100  Biso   1.000  C
  C282     1.0000 0.19830  0.74350  0.19830  Biso   1.000  C
  C283     1.0000 0.90090  0.40040  0.09910  Biso   1.000  C
  C284     1.0000 0.86890  0.36800  0.13110  Biso   1.000  C
  C285     1.0000 0.88810  0.35100  0.11190  Biso   1.000  C
  C286     1.0000 0.82900  0.29360  0.17100  Biso   1.000  C
  C287     1.0000 0.85900  0.26100  0.14100  Biso   1.000  C
  C288     1.0000 0.80170  0.25650  0.19830  Biso   1.000  C
  C289     1.0000 0.40040  0.09910  0.90090  Biso   1.000  C
  C290     1.0000 0.36800  0.13110  0.86890  Biso   1.000  C
  C291     1.0000 0.35100  0.11190  0.88810  Biso   1.000  C
  C292     1.0000 0.29360  0.17100  0.82900  Biso   1.000  C
  C293     1.0000 0.26100  0.14100  0.85900  Biso   1.000  C
  C294     1.0000 0.25650  0.19830  0.80170  Biso   1.000  C
  C295     1.0000 0.59960  0.09910  0.09910  Biso   1.000  C
  C296     1.0000 0.63200  0.13110  0.13110  Biso   1.000  C
  C297     1.0000 0.64900  0.11190  0.11190  Biso   1.000  C
  C298     1.0000 0.70640  0.17100  0.17100  Biso   1.000  C
  C299     1.0000 0.73900  0.14100  0.14100  Biso   1.000  C
  C300     1.0000 0.74350  0.19830  0.19830  Biso   1.000  C
  C301     1.0000 0.59960  0.90090  0.90090  Biso   1.000  C
  C302     1.0000 0.63200  0.86890  0.86890  Biso   1.000  C
  C303     1.0000 0.64900  0.88810  0.88810  Biso   1.000  C
  C304     1.0000 0.70640  0.82900  0.82900  Biso   1.000  C
  C305     1.0000 0.73900  0.85900  0.85900  Biso   1.000  C
  C306     1.0000 0.74350  0.80170  0.80170  Biso   1.000  C
  C307     1.0000 0.40040  0.90090  0.09910  Biso   1.000  C
  C308     1.0000 0.36800  0.86890  0.13110  Biso   1.000  C
  C309     1.0000 0.35100  0.88810  0.11190  Biso   1.000  C
  C310     1.0000 0.29360  0.82900  0.17100  Biso   1.000  C
  C311     1.0000 0.26100  0.85900  0.14100  Biso   1.000  C
  C312     1.0000 0.25650  0.80170  0.19830  Biso   1.000  C
  C313     1.0000 0.09910  0.09910  0.59960  Biso   1.000  C
  C314     1.0000 0.13110  0.13110  0.63200  Biso   1.000  C
  C315     1.0000 0.11190  0.11190  0.64900  Biso   1.000  C
  C316     1.0000 0.17100  0.17100  0.70640  Biso   1.000  C
  C317     1.0000 0.14100  0.14100  0.73900  Biso   1.000  C
  C318     1.0000 0.19830  0.19830  0.74350  Biso   1.000  C
  C319     1.0000 0.09910  0.90090  0.40040  Biso   1.000  C
  C320     1.0000 0.13110  0.86890  0.36800  Biso   1.000  C
  C321     1.0000 0.11190  0.88810  0.35100  Biso   1.000  C
  C322     1.0000 0.17100  0.82900  0.29360  Biso   1.000  C
  C323     1.0000 0.14100  0.85900  0.26100  Biso   1.000  C
  C324     1.0000 0.19830  0.80170  0.25650  Biso   1.000  C
  C325     1.0000 0.90090  0.09910  0.40040  Biso   1.000  C
  C326     1.0000 0.86890  0.13110  0.36800  Biso   1.000  C
  C327     1.0000 0.88810  0.11190  0.35100  Biso   1.000  C
  C328     1.0000 0.82900  0.17100  0.29360  Biso   1.000  C
  C329     1.0000 0.85900  0.14100  0.26100  Biso   1.000  C
  C330     1.0000 0.80170  0.19830  0.25650  Biso   1.000  C
  C331     1.0000 0.90090  0.90090  0.59960  Biso   1.000  C
  C332     1.0000 0.86890  0.86890  0.63200  Biso   1.000  C
  C333     1.0000 0.88810  0.88810  0.64900  Biso   1.000  C
  C334     1.0000 0.82900  0.82900  0.70640  Biso   1.000  C
  C335     1.0000 0.85900  0.85900  0.73900  Biso   1.000  C
  C336     1.0000 0.80170  0.80170  0.74350  Biso   1.000  C
  N145     1.0000 0.95130  0.58610  0.55220  Biso   1.000  N
  N146     1.0000 0.91970  0.61690  0.55880  Biso   1.000  N
  C337     1.0000 0.85150  0.67200  0.61400  Biso   1.000  C
  C338     1.0000 0.83020  0.64840  0.59050  Biso   1.000  C
  C339     1.0000 0.81300  0.69340  0.63460  Biso   1.000  C
  C340     1.0000 0.78610  0.66900  0.61070  Biso   1.000  C
  N147     1.0000 0.04870  0.41390  0.55220  Biso   1.000  N
  N148     1.0000 0.08030  0.38310  0.55880  Biso   1.000  N
  C341     1.0000 0.14850  0.32800  0.61400  Biso   1.000  C
  C342     1.0000 0.16980  0.35160  0.59050  Biso   1.000  C
  C343     1.0000 0.18700  0.30660  0.63460  Biso   1.000  C
  C344     1.0000 0.21390  0.33100  0.61070  Biso   1.000  C
  N149     1.0000 0.04870  0.58610  0.44780  Biso   1.000  N
  N150     1.0000 0.08030  0.61690  0.44120  Biso   1.000  N
  C345     1.0000 0.14850  0.67200  0.38600  Biso   1.000  C
  C346     1.0000 0.16980  0.64840  0.40950  Biso   1.000  C
  C347     1.0000 0.18700  0.69340  0.36540  Biso   1.000  C
  C348     1.0000 0.21390  0.66900  0.38930  Biso   1.000  C
  N151     1.0000 0.95130  0.41390  0.44780  Biso   1.000  N
  N152     1.0000 0.91970  0.38310  0.44120  Biso   1.000  N
  C349     1.0000 0.85150  0.32800  0.38600  Biso   1.000  C
  C350     1.0000 0.83020  0.35160  0.40950  Biso   1.000  C
  C351     1.0000 0.81300  0.30660  0.36540  Biso   1.000  C
  C352     1.0000 0.78610  0.33100  0.38930  Biso   1.000  C
  N153     1.0000 0.55220  0.95130  0.58610  Biso   1.000  N
  N154     1.0000 0.55880  0.91970  0.61690  Biso   1.000  N
  C353     1.0000 0.61400  0.85150  0.67200  Biso   1.000  C
  C354     1.0000 0.59050  0.83020  0.64840  Biso   1.000  C
  C355     1.0000 0.63460  0.81300  0.69340  Biso   1.000  C
  C356     1.0000 0.61070  0.78610  0.66900  Biso   1.000  C
  N155     1.0000 0.55220  0.04870  0.41390  Biso   1.000  N
  N156     1.0000 0.55880  0.08030  0.38310  Biso   1.000  N
  C357     1.0000 0.61400  0.14850  0.32800  Biso   1.000  C
  C358     1.0000 0.59050  0.16980  0.35160  Biso   1.000  C
  C359     1.0000 0.63460  0.18700  0.30660  Biso   1.000  C
  C360     1.0000 0.61070  0.21390  0.33100  Biso   1.000  C
  N157     1.0000 0.44780  0.04870  0.58610  Biso   1.000  N
  N158     1.0000 0.44120  0.08030  0.61690  Biso   1.000  N
  C361     1.0000 0.38600  0.14850  0.67200  Biso   1.000  C
  C362     1.0000 0.40950  0.16980  0.64840  Biso   1.000  C
  C363     1.0000 0.36540  0.18700  0.69340  Biso   1.000  C
  C364     1.0000 0.38930  0.21390  0.66900  Biso   1.000  C
  N159     1.0000 0.44780  0.95130  0.41390  Biso   1.000  N
  N160     1.0000 0.44120  0.91970  0.38310  Biso   1.000  N
  C365     1.0000 0.38600  0.85150  0.32800  Biso   1.000  C
  C366     1.0000 0.40950  0.83020  0.35160  Biso   1.000  C
  C367     1.0000 0.36540  0.81300  0.30660  Biso   1.000  C
  C368     1.0000 0.38930  0.78610  0.33100  Biso   1.000  C
  N161     1.0000 0.58610  0.55220  0.95130  Biso   1.000  N
  N162     1.0000 0.61690  0.55880  0.91970  Biso   1.000  N
  C369     1.0000 0.67200  0.61400  0.85150  Biso   1.000  C
  C370     1.0000 0.64840  0.59050  0.83020  Biso   1.000  C
  C371     1.0000 0.69340  0.63460  0.81300  Biso   1.000  C
  C372     1.0000 0.66900  0.61070  0.78610  Biso   1.000  C
  N163     1.0000 0.41390  0.55220  0.04870  Biso   1.000  N
  N164     1.0000 0.38310  0.55880  0.08030  Biso   1.000  N
  C373     1.0000 0.32800  0.61400  0.14850  Biso   1.000  C
  C374     1.0000 0.35160  0.59050  0.16980  Biso   1.000  C
  C375     1.0000 0.30660  0.63460  0.18700  Biso   1.000  C
  C376     1.0000 0.33100  0.61070  0.21390  Biso   1.000  C
  N165     1.0000 0.58610  0.44780  0.04870  Biso   1.000  N
  N166     1.0000 0.61690  0.44120  0.08030  Biso   1.000  N
  C377     1.0000 0.67200  0.38600  0.14850  Biso   1.000  C
  C378     1.0000 0.64840  0.40950  0.16980  Biso   1.000  C
  C379     1.0000 0.69340  0.36540  0.18700  Biso   1.000  C
  C380     1.0000 0.66900  0.38930  0.21390  Biso   1.000  C
  N167     1.0000 0.41390  0.44780  0.95130  Biso   1.000  N
  N168     1.0000 0.38310  0.44120  0.91970  Biso   1.000  N
  C381     1.0000 0.32800  0.38600  0.85150  Biso   1.000  C
  C382     1.0000 0.35160  0.40950  0.83020  Biso   1.000  C
  C383     1.0000 0.30660  0.36540  0.81300  Biso   1.000  C
  C384     1.0000 0.33100  0.38930  0.78610  Biso   1.000  C
  N169     1.0000 0.58610  0.95130  0.44780  Biso   1.000  N
  N170     1.0000 0.61690  0.91970  0.44120  Biso   1.000  N
  C385     1.0000 0.67200  0.85150  0.38600  Biso   1.000  C
  C386     1.0000 0.64840  0.83020  0.40950  Biso   1.000  C
  C387     1.0000 0.69340  0.81300  0.36540  Biso   1.000  C
  C388     1.0000 0.66900  0.78610  0.38930  Biso   1.000  C
  N171     1.0000 0.41390  0.04870  0.44780  Biso   1.000  N
  N172     1.0000 0.38310  0.08030  0.44120  Biso   1.000  N
  C389     1.0000 0.32800  0.14850  0.38600  Biso   1.000  C
  C390     1.0000 0.35160  0.16980  0.40950  Biso   1.000  C
  C391     1.0000 0.30660  0.18700  0.36540  Biso   1.000  C
  C392     1.0000 0.33100  0.21390  0.38930  Biso   1.000  C
  N173     1.0000 0.58610  0.04870  0.55220  Biso   1.000  N
  N174     1.0000 0.61690  0.08030  0.55880  Biso   1.000  N
  C393     1.0000 0.67200  0.14850  0.61400  Biso   1.000  C
  C394     1.0000 0.64840  0.16980  0.59050  Biso   1.000  C
  C395     1.0000 0.69340  0.18700  0.63460  Biso   1.000  C
  C396     1.0000 0.66900  0.21390  0.61070  Biso   1.000  C
  N175     1.0000 0.41390  0.95130  0.55220  Biso   1.000  N
  N176     1.0000 0.38310  0.91970  0.55880  Biso   1.000  N
  C397     1.0000 0.32800  0.85150  0.61400  Biso   1.000  C
  C398     1.0000 0.35160  0.83020  0.59050  Biso   1.000  C
  C399     1.0000 0.30660  0.81300  0.63460  Biso   1.000  C
  C400     1.0000 0.33100  0.78610  0.61070  Biso   1.000  C
  N177     1.0000 0.95130  0.55220  0.41390  Biso   1.000  N
  N178     1.0000 0.91970  0.55880  0.38310  Biso   1.000  N
  C401     1.0000 0.85150  0.61400  0.32800  Biso   1.000  C
  C402     1.0000 0.83020  0.59050  0.35160  Biso   1.000  C
  C403     1.0000 0.81300  0.63460  0.30660  Biso   1.000  C
  C404     1.0000 0.78610  0.61070  0.33100  Biso   1.000  C
  N179     1.0000 0.04870  0.55220  0.58610  Biso   1.000  N
  N180     1.0000 0.08030  0.55880  0.61690  Biso   1.000  N
  C405     1.0000 0.14850  0.61400  0.67200  Biso   1.000  C
  C406     1.0000 0.16980  0.59050  0.64840  Biso   1.000  C
  C407     1.0000 0.18700  0.63460  0.69340  Biso   1.000  C
  C408     1.0000 0.21390  0.61070  0.66900  Biso   1.000  C
  N181     1.0000 0.04870  0.44780  0.41390  Biso   1.000  N
  N182     1.0000 0.08030  0.44120  0.38310  Biso   1.000  N
  C409     1.0000 0.14850  0.38600  0.32800  Biso   1.000  C
  C410     1.0000 0.16980  0.40950  0.35160  Biso   1.000  C
  C411     1.0000 0.18700  0.36540  0.30660  Biso   1.000  C
  C412     1.0000 0.21390  0.38930  0.33100  Biso   1.000  C
  N183     1.0000 0.95130  0.44780  0.58610  Biso   1.000  N
  N184     1.0000 0.91970  0.44120  0.61690  Biso   1.000  N
  C413     1.0000 0.85150  0.38600  0.67200  Biso   1.000  C
  C414     1.0000 0.83020  0.40950  0.64840  Biso   1.000  C
  C415     1.0000 0.81300  0.36540  0.69340  Biso   1.000  C
  C416     1.0000 0.78610  0.38930  0.66900  Biso   1.000  C
  N185     1.0000 0.55220  0.58610  0.04870  Biso   1.000  N
  N186     1.0000 0.55880  0.61690  0.08030  Biso   1.000  N
  C417     1.0000 0.61400  0.67200  0.14850  Biso   1.000  C
  C418     1.0000 0.59050  0.64840  0.16980  Biso   1.000  C
  C419     1.0000 0.63460  0.69340  0.18700  Biso   1.000  C
  C420     1.0000 0.61070  0.66900  0.21390  Biso   1.000  C
  N187     1.0000 0.55220  0.41390  0.95130  Biso   1.000  N
  N188     1.0000 0.55880  0.38310  0.91970  Biso   1.000  N
  C421     1.0000 0.61400  0.32800  0.85150  Biso   1.000  C
  C422     1.0000 0.59050  0.35160  0.83020  Biso   1.000  C
  C423     1.0000 0.63460  0.30660  0.81300  Biso   1.000  C
  C424     1.0000 0.61070  0.33100  0.78610  Biso   1.000  C
  N189     1.0000 0.44780  0.58610  0.95130  Biso   1.000  N
  N190     1.0000 0.44120  0.61690  0.91970  Biso   1.000  N
  C425     1.0000 0.38600  0.67200  0.85150  Biso   1.000  C
  C426     1.0000 0.40950  0.64840  0.83020  Biso   1.000  C
  C427     1.0000 0.36540  0.69340  0.81300  Biso   1.000  C
  C428     1.0000 0.38930  0.66900  0.78610  Biso   1.000  C
  N191     1.0000 0.44780  0.41390  0.04870  Biso   1.000  N
  N192     1.0000 0.44120  0.38310  0.08030  Biso   1.000  N
  C429     1.0000 0.38600  0.32800  0.14850  Biso   1.000  C
  C430     1.0000 0.40950  0.35160  0.16980  Biso   1.000  C
  C431     1.0000 0.36540  0.30660  0.18700  Biso   1.000  C
  C432     1.0000 0.38930  0.33100  0.21390  Biso   1.000  C
  N193     1.0000 0.04870  0.41390  0.44780  Biso   1.000  N
  N194     1.0000 0.08030  0.38310  0.44120  Biso   1.000  N
  C433     1.0000 0.14850  0.32800  0.38600  Biso   1.000  C
  C434     1.0000 0.16980  0.35160  0.40950  Biso   1.000  C
  C435     1.0000 0.18700  0.30660  0.36540  Biso   1.000  C
  C436     1.0000 0.21390  0.33100  0.38930  Biso   1.000  C
  N195     1.0000 0.95130  0.58610  0.44780  Biso   1.000  N
  N196     1.0000 0.91970  0.61690  0.44120  Biso   1.000  N
  C437     1.0000 0.85150  0.67200  0.38600  Biso   1.000  C
  C438     1.0000 0.83020  0.64840  0.40950  Biso   1.000  C
  C439     1.0000 0.81300  0.69340  0.36540  Biso   1.000  C
  C440     1.0000 0.78610  0.66900  0.38930  Biso   1.000  C
  N197     1.0000 0.95130  0.41390  0.55220  Biso   1.000  N
  N198     1.0000 0.91970  0.38310  0.55880  Biso   1.000  N
  C441     1.0000 0.85150  0.32800  0.61400  Biso   1.000  C
  C442     1.0000 0.83020  0.35160  0.59050  Biso   1.000  C
  C443     1.0000 0.81300  0.30660  0.63460  Biso   1.000  C
  C444     1.0000 0.78610  0.33100  0.61070  Biso   1.000  C
  N199     1.0000 0.04870  0.58610  0.55220  Biso   1.000  N
  N200     1.0000 0.08030  0.61690  0.55880  Biso   1.000  N
  C445     1.0000 0.14850  0.67200  0.61400  Biso   1.000  C
  C446     1.0000 0.16980  0.64840  0.59050  Biso   1.000  C
  C447     1.0000 0.18700  0.69340  0.63460  Biso   1.000  C
  C448     1.0000 0.21390  0.66900  0.61070  Biso   1.000  C
  N201     1.0000 0.44780  0.04870  0.41390  Biso   1.000  N
  N202     1.0000 0.44120  0.08030  0.38310  Biso   1.000  N
  C449     1.0000 0.38600  0.14850  0.32800  Biso   1.000  C
  C450     1.0000 0.40950  0.16980  0.35160  Biso   1.000  C
  C451     1.0000 0.36540  0.18700  0.30660  Biso   1.000  C
  C452     1.0000 0.38930  0.21390  0.33100  Biso   1.000  C
  N203     1.0000 0.44780  0.95130  0.58610  Biso   1.000  N
  N204     1.0000 0.44120  0.91970  0.61690  Biso   1.000  N
  C453     1.0000 0.38600  0.85150  0.67200  Biso   1.000  C
  C454     1.0000 0.40950  0.83020  0.64840  Biso   1.000  C
  C455     1.0000 0.36540  0.81300  0.69340  Biso   1.000  C
  C456     1.0000 0.38930  0.78610  0.66900  Biso   1.000  C
  N205     1.0000 0.55220  0.95130  0.41390  Biso   1.000  N
  N206     1.0000 0.55880  0.91970  0.38310  Biso   1.000  N
  C457     1.0000 0.61400  0.85150  0.32800  Biso   1.000  C
  C458     1.0000 0.59050  0.83020  0.35160  Biso   1.000  C
  C459     1.0000 0.63460  0.81300  0.30660  Biso   1.000  C
  C460     1.0000 0.61070  0.78610  0.33100  Biso   1.000  C
  N207     1.0000 0.55220  0.04870  0.58610  Biso   1.000  N
  N208     1.0000 0.55880  0.08030  0.61690  Biso   1.000  N
  C461     1.0000 0.61400  0.14850  0.67200  Biso   1.000  C
  C462     1.0000 0.59050  0.16980  0.64840  Biso   1.000  C
  C463     1.0000 0.63460  0.18700  0.69340  Biso   1.000  C
  C464     1.0000 0.61070  0.21390  0.66900  Biso   1.000  C
  N209     1.0000 0.41390  0.44780  0.04870  Biso   1.000  N
  N210     1.0000 0.38310  0.44120  0.08030  Biso   1.000  N
  C465     1.0000 0.32800  0.38600  0.14850  Biso   1.000  C
  C466     1.0000 0.35160  0.40950  0.16980  Biso   1.000  C
  C467     1.0000 0.30660  0.36540  0.18700  Biso   1.000  C
  C468     1.0000 0.33100  0.38930  0.21390  Biso   1.000  C
  N211     1.0000 0.58610  0.44780  0.95130  Biso   1.000  N
  N212     1.0000 0.61690  0.44120  0.91970  Biso   1.000  N
  C469     1.0000 0.67200  0.38600  0.85150  Biso   1.000  C
  C470     1.0000 0.64840  0.40950  0.83020  Biso   1.000  C
  C471     1.0000 0.69340  0.36540  0.81300  Biso   1.000  C
  C472     1.0000 0.66900  0.38930  0.78610  Biso   1.000  C
  N213     1.0000 0.41390  0.55220  0.95130  Biso   1.000  N
  N214     1.0000 0.38310  0.55880  0.91970  Biso   1.000  N
  C473     1.0000 0.32800  0.61400  0.85150  Biso   1.000  C
  C474     1.0000 0.35160  0.59050  0.83020  Biso   1.000  C
  C475     1.0000 0.30660  0.63460  0.81300  Biso   1.000  C
  C476     1.0000 0.33100  0.61070  0.78610  Biso   1.000  C
  N215     1.0000 0.58610  0.55220  0.04870  Biso   1.000  N
  N216     1.0000 0.61690  0.55880  0.08030  Biso   1.000  N
  C477     1.0000 0.67200  0.61400  0.14850  Biso   1.000  C
  C478     1.0000 0.64840  0.59050  0.16980  Biso   1.000  C
  C479     1.0000 0.69340  0.63460  0.18700  Biso   1.000  C
  C480     1.0000 0.66900  0.61070  0.21390  Biso   1.000  C
  N217     1.0000 0.41390  0.04870  0.55220  Biso   1.000  N
  N218     1.0000 0.38310  0.08030  0.55880  Biso   1.000  N
  C481     1.0000 0.32800  0.14850  0.61400  Biso   1.000  C
  C482     1.0000 0.35160  0.16980  0.59050  Biso   1.000  C
  C483     1.0000 0.30660  0.18700  0.63460  Biso   1.000  C
  C484     1.0000 0.33100  0.21390  0.61070  Biso   1.000  C
  N219     1.0000 0.58610  0.95130  0.55220  Biso   1.000  N
  N220     1.0000 0.61690  0.91970  0.55880  Biso   1.000  N
  C485     1.0000 0.67200  0.85150  0.61400  Biso   1.000  C
  C486     1.0000 0.64840  0.83020  0.59050  Biso   1.000  C
  C487     1.0000 0.69340  0.81300  0.63460  Biso   1.000  C
  C488     1.0000 0.66900  0.78610  0.61070  Biso   1.000  C
  N221     1.0000 0.41390  0.95130  0.44780  Biso   1.000  N
  N222     1.0000 0.38310  0.91970  0.44120  Biso   1.000  N
  C489     1.0000 0.32800  0.85150  0.38600  Biso   1.000  C
  C490     1.0000 0.35160  0.83020  0.40950  Biso   1.000  C
  C491     1.0000 0.30660  0.81300  0.36540  Biso   1.000  C
  C492     1.0000 0.33100  0.78610  0.38930  Biso   1.000  C
  N223     1.0000 0.58610  0.04870  0.44780  Biso   1.000  N
  N224     1.0000 0.61690  0.08030  0.44120  Biso   1.000  N
  C493     1.0000 0.67200  0.14850  0.38600  Biso   1.000  C
  C494     1.0000 0.64840  0.16980  0.40950  Biso   1.000  C
  C495     1.0000 0.69340  0.18700  0.36540  Biso   1.000  C
  C496     1.0000 0.66900  0.21390  0.38930  Biso   1.000  C
  N225     1.0000 0.04870  0.44780  0.58610  Biso   1.000  N
  N226     1.0000 0.08030  0.44120  0.61690  Biso   1.000  N
  C497     1.0000 0.14850  0.38600  0.67200  Biso   1.000  C
  C498     1.0000 0.16980  0.40950  0.64840  Biso   1.000  C
  C499     1.0000 0.18700  0.36540  0.69340  Biso   1.000  C
  C500     1.0000 0.21390  0.38930  0.66900  Biso   1.000  C
  N227     1.0000 0.95130  0.44780  0.41390  Biso   1.000  N
  N228     1.0000 0.91970  0.44120  0.38310  Biso   1.000  N
  C501     1.0000 0.85150  0.38600  0.32800  Biso   1.000  C
  C502     1.0000 0.83020  0.40950  0.35160  Biso   1.000  C
  C503     1.0000 0.81300  0.36540  0.30660  Biso   1.000  C
  C504     1.0000 0.78610  0.38930  0.33100  Biso   1.000  C
  N229     1.0000 0.95130  0.55220  0.58610  Biso   1.000  N
  N230     1.0000 0.91970  0.55880  0.61690  Biso   1.000  N
  C505     1.0000 0.85150  0.61400  0.67200  Biso   1.000  C
  C506     1.0000 0.83020  0.59050  0.64840  Biso   1.000  C
  C507     1.0000 0.81300  0.63460  0.69340  Biso   1.000  C
  C508     1.0000 0.78610  0.61070  0.66900  Biso   1.000  C
  N231     1.0000 0.04870  0.55220  0.41390  Biso   1.000  N
  N232     1.0000 0.08030  0.55880  0.38310  Biso   1.000  N
  C509     1.0000 0.14850  0.61400  0.32800  Biso   1.000  C
  C510     1.0000 0.16980  0.59050  0.35160  Biso   1.000  C
  C511     1.0000 0.18700  0.63460  0.30660  Biso   1.000  C
  C512     1.0000 0.21390  0.61070  0.33100  Biso   1.000  C
  N233     1.0000 0.44780  0.41390  0.95130  Biso   1.000  N
  N234     1.0000 0.44120  0.38310  0.91970  Biso   1.000  N
  C513     1.0000 0.38600  0.32800  0.85150  Biso   1.000  C
  C514     1.0000 0.40950  0.35160  0.83020  Biso   1.000  C
  C515     1.0000 0.36540  0.30660  0.81300  Biso   1.000  C
  C516     1.0000 0.38930  0.33100  0.78610  Biso   1.000  C
  N235     1.0000 0.44780  0.58610  0.04870  Biso   1.000  N
  N236     1.0000 0.44120  0.61690  0.08030  Biso   1.000  N
  C517     1.0000 0.38600  0.67200  0.14850  Biso   1.000  C
  C518     1.0000 0.40950  0.64840  0.16980  Biso   1.000  C
  C519     1.0000 0.36540  0.69340  0.18700  Biso   1.000  C
  C520     1.0000 0.38930  0.66900  0.21390  Biso   1.000  C
  N237     1.0000 0.55220  0.41390  0.04870  Biso   1.000  N
  N238     1.0000 0.55880  0.38310  0.08030  Biso   1.000  N
  C521     1.0000 0.61400  0.32800  0.14850  Biso   1.000  C
  C522     1.0000 0.59050  0.35160  0.16980  Biso   1.000  C
  C523     1.0000 0.63460  0.30660  0.18700  Biso   1.000  C
  C524     1.0000 0.61070  0.33100  0.21390  Biso   1.000  C
  N239     1.0000 0.55220  0.58610  0.95130  Biso   1.000  N
  N240     1.0000 0.55880  0.61690  0.91970  Biso   1.000  N
  C525     1.0000 0.61400  0.67200  0.85150  Biso   1.000  C
  C526     1.0000 0.59050  0.64840  0.83020  Biso   1.000  C
  C527     1.0000 0.63460  0.69340  0.81300  Biso   1.000  C
  C528     1.0000 0.61070  0.66900  0.78610  Biso   1.000  C
  Cu13     1.0000 0.00000  0.58940  0.50000  Biso   1.000  Cu
  Cu14     1.0000 0.00000  0.41060  0.50000  Biso   1.000  Cu
  Cu15     1.0000 0.50000  0.00000  0.58940  Biso   1.000  Cu
  Cu16     1.0000 0.50000  0.00000  0.41060  Biso   1.000  Cu
  Cu17     1.0000 0.58940  0.50000  0.00000  Biso   1.000  Cu
  Cu18     1.0000 0.41060  0.50000  0.00000  Biso   1.000  Cu
  Cu19     1.0000 0.58940  0.00000  0.50000  Biso   1.000  Cu
  Cu20     1.0000 0.41060  0.00000  0.50000  Biso   1.000  Cu
  Cu21     1.0000 0.00000  0.50000  0.41060  Biso   1.000  Cu
  Cu22     1.0000 0.00000  0.50000  0.58940  Biso   1.000  Cu
  Cu23     1.0000 0.50000  0.58940  0.00000  Biso   1.000  Cu
  Cu24     1.0000 0.50000  0.41060  0.00000  Biso   1.000  Cu
  Cl4      1.0000 0.00000  0.50000  0.50000  Biso   1.000  Cl
  Cl5      1.0000 0.50000  0.00000  0.50000  Biso   1.000  Cl
  Cl6      1.0000 0.50000  0.50000  0.00000  Biso   1.000  Cl
  N241     1.0000 0.73740  0.73740  0.67600  Biso   1.000  N
  N242     1.0000 0.70960  0.70960  0.65100  Biso   1.000  N
  N243     1.0000 0.26260  0.26260  0.67600  Biso   1.000  N
  N244     1.0000 0.29040  0.29040  0.65100  Biso   1.000  N
  N245     1.0000 0.26260  0.73740  0.32400  Biso   1.000  N
  N246     1.0000 0.29040  0.70960  0.34900  Biso   1.000  N
  N247     1.0000 0.73740  0.26260  0.32400  Biso   1.000  N
  N248     1.0000 0.70960  0.29040  0.34900  Biso   1.000  N
  N249     1.0000 0.67600  0.73740  0.73740  Biso   1.000  N
  N250     1.0000 0.65100  0.70960  0.70960  Biso   1.000  N
  N251     1.0000 0.67600  0.26260  0.26260  Biso   1.000  N
  N252     1.0000 0.65100  0.29040  0.29040  Biso   1.000  N
  N253     1.0000 0.32400  0.26260  0.73740  Biso   1.000  N
  N254     1.0000 0.34900  0.29040  0.70960  Biso   1.000  N
  N255     1.0000 0.32400  0.73740  0.26260  Biso   1.000  N
  N256     1.0000 0.34900  0.70960  0.29040  Biso   1.000  N
  N257     1.0000 0.73740  0.67600  0.73740  Biso   1.000  N
  N258     1.0000 0.70960  0.65100  0.70960  Biso   1.000  N
  N259     1.0000 0.26260  0.67600  0.26260  Biso   1.000  N
  N260     1.0000 0.29040  0.65100  0.29040  Biso   1.000  N
  N261     1.0000 0.73740  0.32400  0.26260  Biso   1.000  N
  N262     1.0000 0.70960  0.34900  0.29040  Biso   1.000  N
  N263     1.0000 0.26260  0.32400  0.73740  Biso   1.000  N
  N264     1.0000 0.29040  0.34900  0.70960  Biso   1.000  N
  N265     1.0000 0.73740  0.73740  0.32400  Biso   1.000  N
  N266     1.0000 0.70960  0.70960  0.34900  Biso   1.000  N
  N267     1.0000 0.26260  0.26260  0.32400  Biso   1.000  N
  N268     1.0000 0.29040  0.29040  0.34900  Biso   1.000  N
  N269     1.0000 0.73740  0.26260  0.67600  Biso   1.000  N
  N270     1.0000 0.70960  0.29040  0.65100  Biso   1.000  N
  N271     1.0000 0.26260  0.73740  0.67600  Biso   1.000  N
  N272     1.0000 0.29040  0.70960  0.65100  Biso   1.000  N
  N273     1.0000 0.73740  0.67600  0.26260  Biso   1.000  N
  N274     1.0000 0.70960  0.65100  0.29040  Biso   1.000  N
  N275     1.0000 0.26260  0.67600  0.73740  Biso   1.000  N
  N276     1.0000 0.29040  0.65100  0.70960  Biso   1.000  N
  N277     1.0000 0.26260  0.32400  0.26260  Biso   1.000  N
  N278     1.0000 0.29040  0.34900  0.29040  Biso   1.000  N
  N279     1.0000 0.73740  0.32400  0.73740  Biso   1.000  N
  N280     1.0000 0.70960  0.34900  0.70960  Biso   1.000  N
  N281     1.0000 0.67600  0.73740  0.26260  Biso   1.000  N
  N282     1.0000 0.65100  0.70960  0.29040  Biso   1.000  N
  N283     1.0000 0.67600  0.26260  0.73740  Biso   1.000  N
  N284     1.0000 0.65100  0.29040  0.70960  Biso   1.000  N
  N285     1.0000 0.32400  0.73740  0.73740  Biso   1.000  N
  N286     1.0000 0.34900  0.70960  0.70960  Biso   1.000  N
  N287     1.0000 0.32400  0.26260  0.26260  Biso   1.000  N
  N288     1.0000 0.34900  0.29040  0.29040  Biso   1.000  N
  C529     1.0000 0.90040  0.59910  0.59910  Biso   1.000  C
  C530     1.0000 0.86800  0.63110  0.63110  Biso   1.000  C
  C531     1.0000 0.85100  0.61190  0.61190  Biso   1.000  C
  C532     1.0000 0.79360  0.67100  0.67100  Biso   1.000  C
  C533     1.0000 0.76100  0.64100  0.64100  Biso   1.000  C
  C534     1.0000 0.75650  0.69830  0.69830  Biso   1.000  C
  C535     1.0000 0.09960  0.40090  0.59910  Biso   1.000  C
  C536     1.0000 0.13200  0.36890  0.63110  Biso   1.000  C
  C537     1.0000 0.14900  0.38810  0.61190  Biso   1.000  C
  C538     1.0000 0.20640  0.32900  0.67100  Biso   1.000  C
  C539     1.0000 0.23900  0.35900  0.64100  Biso   1.000  C
  C540     1.0000 0.24350  0.30170  0.69830  Biso   1.000  C
  C541     1.0000 0.09960  0.59910  0.40090  Biso   1.000  C
  C542     1.0000 0.13200  0.63110  0.36890  Biso   1.000  C
  C543     1.0000 0.14900  0.61190  0.38810  Biso   1.000  C
  C544     1.0000 0.20640  0.67100  0.32900  Biso   1.000  C
  C545     1.0000 0.23900  0.64100  0.35900  Biso   1.000  C
  C546     1.0000 0.24350  0.69830  0.30170  Biso   1.000  C
  C547     1.0000 0.90040  0.40090  0.40090  Biso   1.000  C
  C548     1.0000 0.86800  0.36890  0.36890  Biso   1.000  C
  C549     1.0000 0.85100  0.38810  0.38810  Biso   1.000  C
  C550     1.0000 0.79360  0.32900  0.32900  Biso   1.000  C
  C551     1.0000 0.76100  0.35900  0.35900  Biso   1.000  C
  C552     1.0000 0.75650  0.30170  0.30170  Biso   1.000  C
  C553     1.0000 0.59910  0.90040  0.59910  Biso   1.000  C
  C554     1.0000 0.63110  0.86800  0.63110  Biso   1.000  C
  C555     1.0000 0.61190  0.85100  0.61190  Biso   1.000  C
  C556     1.0000 0.67100  0.79360  0.67100  Biso   1.000  C
  C557     1.0000 0.64100  0.76100  0.64100  Biso   1.000  C
  C558     1.0000 0.69830  0.75650  0.69830  Biso   1.000  C
  C559     1.0000 0.59910  0.09960  0.40090  Biso   1.000  C
  C560     1.0000 0.63110  0.13200  0.36890  Biso   1.000  C
  C561     1.0000 0.61190  0.14900  0.38810  Biso   1.000  C
  C562     1.0000 0.67100  0.20640  0.32900  Biso   1.000  C
  C563     1.0000 0.64100  0.23900  0.35900  Biso   1.000  C
  C564     1.0000 0.69830  0.24350  0.30170  Biso   1.000  C
  C565     1.0000 0.40090  0.09960  0.59910  Biso   1.000  C
  C566     1.0000 0.36890  0.13200  0.63110  Biso   1.000  C
  C567     1.0000 0.38810  0.14900  0.61190  Biso   1.000  C
  C568     1.0000 0.32900  0.20640  0.67100  Biso   1.000  C
  C569     1.0000 0.35900  0.23900  0.64100  Biso   1.000  C
  C570     1.0000 0.30170  0.24350  0.69830  Biso   1.000  C
  C571     1.0000 0.40090  0.90040  0.40090  Biso   1.000  C
  C572     1.0000 0.36890  0.86800  0.36890  Biso   1.000  C
  C573     1.0000 0.38810  0.85100  0.38810  Biso   1.000  C
  C574     1.0000 0.32900  0.79360  0.32900  Biso   1.000  C
  C575     1.0000 0.35900  0.76100  0.35900  Biso   1.000  C
  C576     1.0000 0.30170  0.75650  0.30170  Biso   1.000  C
  C577     1.0000 0.59910  0.59910  0.90040  Biso   1.000  C
  C578     1.0000 0.63110  0.63110  0.86800  Biso   1.000  C
  C579     1.0000 0.61190  0.61190  0.85100  Biso   1.000  C
  C580     1.0000 0.67100  0.67100  0.79360  Biso   1.000  C
  C581     1.0000 0.64100  0.64100  0.76100  Biso   1.000  C
  C582     1.0000 0.69830  0.69830  0.75650  Biso   1.000  C
  C583     1.0000 0.40090  0.59910  0.09960  Biso   1.000  C
  C584     1.0000 0.36890  0.63110  0.13200  Biso   1.000  C
  C585     1.0000 0.38810  0.61190  0.14900  Biso   1.000  C
  C586     1.0000 0.32900  0.67100  0.20640  Biso   1.000  C
  C587     1.0000 0.35900  0.64100  0.23900  Biso   1.000  C
  C588     1.0000 0.30170  0.69830  0.24350  Biso   1.000  C
  C589     1.0000 0.59910  0.40090  0.09960  Biso   1.000  C
  C590     1.0000 0.63110  0.36890  0.13200  Biso   1.000  C
  C591     1.0000 0.61190  0.38810  0.14900  Biso   1.000  C
  C592     1.0000 0.67100  0.32900  0.20640  Biso   1.000  C
  C593     1.0000 0.64100  0.35900  0.23900  Biso   1.000  C
  C594     1.0000 0.69830  0.30170  0.24350  Biso   1.000  C
  C595     1.0000 0.40090  0.40090  0.90040  Biso   1.000  C
  C596     1.0000 0.36890  0.36890  0.86800  Biso   1.000  C
  C597     1.0000 0.38810  0.38810  0.85100  Biso   1.000  C
  C598     1.0000 0.32900  0.32900  0.79360  Biso   1.000  C
  C599     1.0000 0.35900  0.35900  0.76100  Biso   1.000  C
  C600     1.0000 0.30170  0.30170  0.75650  Biso   1.000  C
  C601     1.0000 0.59910  0.90040  0.40090  Biso   1.000  C
  C602     1.0000 0.63110  0.86800  0.36890  Biso   1.000  C
  C603     1.0000 0.61190  0.85100  0.38810  Biso   1.000  C
  C604     1.0000 0.67100  0.79360  0.32900  Biso   1.000  C
  C605     1.0000 0.64100  0.76100  0.35900  Biso   1.000  C
  C606     1.0000 0.69830  0.75650  0.30170  Biso   1.000  C
  C607     1.0000 0.40090  0.09960  0.40090  Biso   1.000  C
  C608     1.0000 0.36890  0.13200  0.36890  Biso   1.000  C
  C609     1.0000 0.38810  0.14900  0.38810  Biso   1.000  C
  C610     1.0000 0.32900  0.20640  0.32900  Biso   1.000  C
  C611     1.0000 0.35900  0.23900  0.35900  Biso   1.000  C
  C612     1.0000 0.30170  0.24350  0.30170  Biso   1.000  C
  C613     1.0000 0.59910  0.09960  0.59910  Biso   1.000  C
  C614     1.0000 0.63110  0.13200  0.63110  Biso   1.000  C
  C615     1.0000 0.61190  0.14900  0.61190  Biso   1.000  C
  C616     1.0000 0.67100  0.20640  0.67100  Biso   1.000  C
  C617     1.0000 0.64100  0.23900  0.64100  Biso   1.000  C
  C618     1.0000 0.69830  0.24350  0.69830  Biso   1.000  C
  C619     1.0000 0.40090  0.90040  0.59910  Biso   1.000  C
  C620     1.0000 0.36890  0.86800  0.63110  Biso   1.000  C
  C621     1.0000 0.38810  0.85100  0.61190  Biso   1.000  C
  C622     1.0000 0.32900  0.79360  0.67100  Biso   1.000  C
  C623     1.0000 0.35900  0.76100  0.64100  Biso   1.000  C
  C624     1.0000 0.30170  0.75650  0.69830  Biso   1.000  C
  C625     1.0000 0.90040  0.59910  0.40090  Biso   1.000  C
  C626     1.0000 0.86800  0.63110  0.36890  Biso   1.000  C
  C627     1.0000 0.85100  0.61190  0.38810  Biso   1.000  C
  C628     1.0000 0.79360  0.67100  0.32900  Biso   1.000  C
  C629     1.0000 0.76100  0.64100  0.35900  Biso   1.000  C
  C630     1.0000 0.75650  0.69830  0.30170  Biso   1.000  C
  C631     1.0000 0.09960  0.59910  0.59910  Biso   1.000  C
  C632     1.0000 0.13200  0.63110  0.63110  Biso   1.000  C
  C633     1.0000 0.14900  0.61190  0.61190  Biso   1.000  C
  C634     1.0000 0.20640  0.67100  0.67100  Biso   1.000  C
  C635     1.0000 0.23900  0.64100  0.64100  Biso   1.000  C
  C636     1.0000 0.24350  0.69830  0.69830  Biso   1.000  C
  C637     1.0000 0.09960  0.40090  0.40090  Biso   1.000  C
  C638     1.0000 0.13200  0.36890  0.36890  Biso   1.000  C
  C639     1.0000 0.14900  0.38810  0.38810  Biso   1.000  C
  C640     1.0000 0.20640  0.32900  0.32900  Biso   1.000  C
  C641     1.0000 0.23900  0.35900  0.35900  Biso   1.000  C
  C642     1.0000 0.24350  0.30170  0.30170  Biso   1.000  C
  C643     1.0000 0.90040  0.40090  0.59910  Biso   1.000  C
  C644     1.0000 0.86800  0.36890  0.63110  Biso   1.000  C
  C645     1.0000 0.85100  0.38810  0.61190  Biso   1.000  C
  C646     1.0000 0.79360  0.32900  0.67100  Biso   1.000  C
  C647     1.0000 0.76100  0.35900  0.64100  Biso   1.000  C
  C648     1.0000 0.75650  0.30170  0.69830  Biso   1.000  C
  C649     1.0000 0.59910  0.59910  0.09960  Biso   1.000  C
  C650     1.0000 0.63110  0.63110  0.13200  Biso   1.000  C
  C651     1.0000 0.61190  0.61190  0.14900  Biso   1.000  C
  C652     1.0000 0.67100  0.67100  0.20640  Biso   1.000  C
  C653     1.0000 0.64100  0.64100  0.23900  Biso   1.000  C
  C654     1.0000 0.69830  0.69830  0.24350  Biso   1.000  C
  C655     1.0000 0.59910  0.40090  0.90040  Biso   1.000  C
  C656     1.0000 0.63110  0.36890  0.86800  Biso   1.000  C
  C657     1.0000 0.61190  0.38810  0.85100  Biso   1.000  C
  C658     1.0000 0.67100  0.32900  0.79360  Biso   1.000  C
  C659     1.0000 0.64100  0.35900  0.76100  Biso   1.000  C
  C660     1.0000 0.69830  0.30170  0.75650  Biso   1.000  C
  C661     1.0000 0.40090  0.59910  0.90040  Biso   1.000  C
  C662     1.0000 0.36890  0.63110  0.86800  Biso   1.000  C
  C663     1.0000 0.38810  0.61190  0.85100  Biso   1.000  C
  C664     1.0000 0.32900  0.67100  0.79360  Biso   1.000  C
  C665     1.0000 0.35900  0.64100  0.76100  Biso   1.000  C
  C666     1.0000 0.30170  0.69830  0.75650  Biso   1.000  C
  C667     1.0000 0.40090  0.40090  0.09960  Biso   1.000  C
  C668     1.0000 0.36890  0.36890  0.13200  Biso   1.000  C
  C669     1.0000 0.38810  0.38810  0.14900  Biso   1.000  C
  C670     1.0000 0.32900  0.32900  0.20640  Biso   1.000  C
  C671     1.0000 0.35900  0.35900  0.23900  Biso   1.000  C
  C672     1.0000 0.30170  0.30170  0.24350  Biso   1.000  C
