data_image0
_cell_length_a       18.6843
_cell_length_b       18.6843
_cell_length_c       38.6052
_cell_angle_alpha    90
_cell_angle_beta     90
_cell_angle_gamma    120

_symmetry_space_group_name_H-M    "P 1"
_symmetry_int_tables_number       1

loop_
  _symmetry_equiv_pos_as_xyz
  'x, y, z'

loop_
  _atom_site_label
  _atom_site_occupancy
  _atom_site_fract_x
  _atom_site_fract_y
  _atom_site_fract_z
  _atom_site_thermal_displace_type
  _atom_site_B_iso_or_equiv
  _atom_site_type_symbol
  O1       1.0000 0.96190  0.18490  0.16312  Biso   1.000  O
  O2       1.0000 0.92264  0.22492  0.21064  Biso   1.000  O
  C1       1.0000 0.97310  0.21390  0.19338  Biso   1.000  C
  C2       1.0000 0.05300  0.23450  0.21053  Biso   1.000  C
  C3       1.0000 0.06800  0.26450  0.24441  Biso   1.000  C
  H1       1.0000 0.03000  0.27480  0.25560  Biso   1.000  H
  C4       1.0000 0.09740  0.25210  0.32573  Biso   1.000  C
  C5       1.0000 0.03320  0.17420  0.31670  Biso   1.000  C
  C6       1.0000 0.98340  0.11970  0.34240  Biso   1.000  C
  C7       1.0000 0.99790  0.14320  0.37700  Biso   1.000  C
  C8       1.0000 0.06210  0.22100  0.38597  Biso   1.000  C
  C9       1.0000 0.11190  0.27550  0.36030  Biso   1.000  C
  H2       1.0000 0.02140  0.15590  0.29290  Biso   1.000  H
  H3       1.0000 0.96550  0.10280  0.39500  Biso   1.000  H
  H4       1.0000 0.07210  0.23690  0.40980  Biso   1.000  H
  O3       1.0000 0.62857  0.51823  0.49645  Biso   1.000  O
  O4       1.0000 0.58931  0.55825  0.54397  Biso   1.000  O
  C10      1.0000 0.63977  0.54723  0.52671  Biso   1.000  C
  C11      1.0000 0.71967  0.56783  0.54386  Biso   1.000  C
  C12      1.0000 0.73467  0.59783  0.57774  Biso   1.000  C
  H5       1.0000 0.69667  0.60813  0.58893  Biso   1.000  H
  C13      1.0000 0.76407  0.58543  0.65906  Biso   1.000  C
  C14      1.0000 0.69987  0.50753  0.65003  Biso   1.000  C
  C15      1.0000 0.65007  0.45303  0.67573  Biso   1.000  C
  C16      1.0000 0.66457  0.47653  0.71033  Biso   1.000  C
  C17      1.0000 0.72877  0.55433  0.71930  Biso   1.000  C
  C18      1.0000 0.77857  0.60883  0.69363  Biso   1.000  C
  H6       1.0000 0.68807  0.48923  0.62623  Biso   1.000  H
  H7       1.0000 0.63217  0.43613  0.72833  Biso   1.000  H
  H8       1.0000 0.73877  0.57023  0.74313  Biso   1.000  H
  O5       1.0000 0.29523  0.85157  0.82979  Biso   1.000  O
  O6       1.0000 0.25597  0.89159  0.87731  Biso   1.000  O
  C19      1.0000 0.30643  0.88057  0.86005  Biso   1.000  C
  C20      1.0000 0.38633  0.90117  0.87720  Biso   1.000  C
  C21      1.0000 0.40133  0.93117  0.91108  Biso   1.000  C
  H9       1.0000 0.36333  0.94147  0.92227  Biso   1.000  H
  C22      1.0000 0.43073  0.91877  0.99240  Biso   1.000  C
  C23      1.0000 0.36653  0.84087  0.98337  Biso   1.000  C
  C24      1.0000 0.31673  0.78637  0.00907  Biso   1.000  C
  C25      1.0000 0.33123  0.80987  0.04367  Biso   1.000  C
  C26      1.0000 0.39543  0.88767  0.05264  Biso   1.000  C
  C27      1.0000 0.44523  0.94217  0.02697  Biso   1.000  C
  H10      1.0000 0.35473  0.82257  0.95957  Biso   1.000  H
  H11      1.0000 0.29883  0.76947  0.06167  Biso   1.000  H
  H12      1.0000 0.40543  0.90357  0.07647  Biso   1.000  H
  O7       1.0000 0.81510  0.77700  0.16312  Biso   1.000  O
  O8       1.0000 0.77508  0.69772  0.21064  Biso   1.000  O
  C28      1.0000 0.78610  0.75920  0.19338  Biso   1.000  C
  C29      1.0000 0.76550  0.81850  0.21053  Biso   1.000  C
  C30      1.0000 0.73550  0.80350  0.24441  Biso   1.000  C
  H13      1.0000 0.72520  0.75520  0.25560  Biso   1.000  H
  C31      1.0000 0.74790  0.84530  0.32573  Biso   1.000  C
  C32      1.0000 0.82580  0.85900  0.31670  Biso   1.000  C
  C33      1.0000 0.88030  0.86370  0.34240  Biso   1.000  C
  C34      1.0000 0.85680  0.85470  0.37700  Biso   1.000  C
  C35      1.0000 0.77900  0.84110  0.38597  Biso   1.000  C
  C36      1.0000 0.72450  0.83640  0.36030  Biso   1.000  C
  H14      1.0000 0.84410  0.86550  0.29290  Biso   1.000  H
  H15      1.0000 0.89720  0.86270  0.39500  Biso   1.000  H
  H16      1.0000 0.76310  0.83520  0.40980  Biso   1.000  H
  O9       1.0000 0.48177  0.11033  0.49645  Biso   1.000  O
  O10      1.0000 0.44175  0.03105  0.54397  Biso   1.000  O
  C37      1.0000 0.45277  0.09253  0.52671  Biso   1.000  C
  C38      1.0000 0.43217  0.15183  0.54386  Biso   1.000  C
  C39      1.0000 0.40217  0.13683  0.57774  Biso   1.000  C
  H17      1.0000 0.39187  0.08853  0.58893  Biso   1.000  H
  C40      1.0000 0.41457  0.17863  0.65906  Biso   1.000  C
  C41      1.0000 0.49247  0.19233  0.65003  Biso   1.000  C
  C42      1.0000 0.54697  0.19703  0.67573  Biso   1.000  C
  C43      1.0000 0.52347  0.18803  0.71033  Biso   1.000  C
  C44      1.0000 0.44567  0.17443  0.71930  Biso   1.000  C
  C45      1.0000 0.39117  0.16973  0.69363  Biso   1.000  C
  H18      1.0000 0.51077  0.19883  0.62623  Biso   1.000  H
  H19      1.0000 0.56387  0.19603  0.72833  Biso   1.000  H
  H20      1.0000 0.42977  0.16853  0.74313  Biso   1.000  H
  O11      1.0000 0.14843  0.44367  0.82979  Biso   1.000  O
  O12      1.0000 0.10841  0.36439  0.87731  Biso   1.000  O
  C46      1.0000 0.11943  0.42587  0.86005  Biso   1.000  C
  C47      1.0000 0.09883  0.48517  0.87720  Biso   1.000  C
  C48      1.0000 0.06883  0.47017  0.91108  Biso   1.000  C
  H21      1.0000 0.05853  0.42187  0.92227  Biso   1.000  H
  C49      1.0000 0.08123  0.51197  0.99240  Biso   1.000  C
  C50      1.0000 0.15913  0.52567  0.98337  Biso   1.000  C
  C51      1.0000 0.21363  0.53037  0.00907  Biso   1.000  C
  C52      1.0000 0.19013  0.52137  0.04367  Biso   1.000  C
  C53      1.0000 0.11233  0.50777  0.05264  Biso   1.000  C
  C54      1.0000 0.05783  0.50307  0.02697  Biso   1.000  C
  H22      1.0000 0.17743  0.53217  0.95957  Biso   1.000  H
  H23      1.0000 0.23053  0.52937  0.06167  Biso   1.000  H
  H24      1.0000 0.09643  0.50187  0.07647  Biso   1.000  H
  O13      1.0000 0.22300  0.03810  0.16312  Biso   1.000  O
  O14      1.0000 0.30228  0.07736  0.21064  Biso   1.000  O
  C55      1.0000 0.24080  0.02690  0.19338  Biso   1.000  C
  C56      1.0000 0.18150  0.94700  0.21053  Biso   1.000  C
  C57      1.0000 0.19650  0.93200  0.24441  Biso   1.000  C
  H25      1.0000 0.24480  0.97000  0.25560  Biso   1.000  H
  C58      1.0000 0.15470  0.90260  0.32573  Biso   1.000  C
  C59      1.0000 0.14100  0.96680  0.31670  Biso   1.000  C
  C60      1.0000 0.13630  0.01660  0.34240  Biso   1.000  C
  C61      1.0000 0.14530  0.00210  0.37700  Biso   1.000  C
  C62      1.0000 0.15890  0.93790  0.38597  Biso   1.000  C
  C63      1.0000 0.16360  0.88810  0.36030  Biso   1.000  C
  H26      1.0000 0.13450  0.97860  0.29290  Biso   1.000  H
  H27      1.0000 0.13730  0.03450  0.39500  Biso   1.000  H
  H28      1.0000 0.16480  0.92790  0.40980  Biso   1.000  H
  O15      1.0000 0.88967  0.37143  0.49645  Biso   1.000  O
  O16      1.0000 0.96895  0.41069  0.54397  Biso   1.000  O
  C64      1.0000 0.90747  0.36023  0.52671  Biso   1.000  C
  C65      1.0000 0.84817  0.28033  0.54386  Biso   1.000  C
  C66      1.0000 0.86317  0.26533  0.57774  Biso   1.000  C
  H29      1.0000 0.91147  0.30333  0.58893  Biso   1.000  H
  C67      1.0000 0.82137  0.23593  0.65906  Biso   1.000  C
  C68      1.0000 0.80767  0.30013  0.65003  Biso   1.000  C
  C69      1.0000 0.80297  0.34993  0.67573  Biso   1.000  C
  C70      1.0000 0.81197  0.33543  0.71033  Biso   1.000  C
  C71      1.0000 0.82557  0.27123  0.71930  Biso   1.000  C
  C72      1.0000 0.83027  0.22143  0.69363  Biso   1.000  C
  H30      1.0000 0.80117  0.31193  0.62623  Biso   1.000  H
  H31      1.0000 0.80397  0.36783  0.72833  Biso   1.000  H
  H32      1.0000 0.83147  0.26123  0.74313  Biso   1.000  H
  O17      1.0000 0.55633  0.70477  0.82979  Biso   1.000  O
  O18      1.0000 0.63561  0.74403  0.87731  Biso   1.000  O
  C73      1.0000 0.57413  0.69357  0.86005  Biso   1.000  C
  C74      1.0000 0.51483  0.61367  0.87720  Biso   1.000  C
  C75      1.0000 0.52983  0.59867  0.91108  Biso   1.000  C
  H33      1.0000 0.57813  0.63667  0.92227  Biso   1.000  H
  C76      1.0000 0.48803  0.56927  0.99240  Biso   1.000  C
  C77      1.0000 0.47433  0.63347  0.98337  Biso   1.000  C
  C78      1.0000 0.46963  0.68327  0.00907  Biso   1.000  C
  C79      1.0000 0.47863  0.66877  0.04367  Biso   1.000  C
  C80      1.0000 0.49223  0.60457  0.05264  Biso   1.000  C
  C81      1.0000 0.49693  0.55477  0.02697  Biso   1.000  C
  H34      1.0000 0.46783  0.64527  0.95957  Biso   1.000  H
  H35      1.0000 0.47063  0.70117  0.06167  Biso   1.000  H
  H36      1.0000 0.49813  0.59457  0.07647  Biso   1.000  H
  O19      1.0000 0.18490  0.96190  0.83688  Biso   1.000  O
  O20      1.0000 0.22492  0.92264  0.78936  Biso   1.000  O
  C82      1.0000 0.21390  0.97310  0.80662  Biso   1.000  C
  C83      1.0000 0.23450  0.05300  0.78947  Biso   1.000  C
  C84      1.0000 0.26450  0.06800  0.75559  Biso   1.000  C
  H37      1.0000 0.27480  0.03000  0.74440  Biso   1.000  H
  C85      1.0000 0.25210  0.09740  0.67427  Biso   1.000  C
  C86      1.0000 0.17420  0.03320  0.68330  Biso   1.000  C
  C87      1.0000 0.11970  0.98340  0.65760  Biso   1.000  C
  C88      1.0000 0.14320  0.99790  0.62300  Biso   1.000  C
  C89      1.0000 0.22100  0.06210  0.61403  Biso   1.000  C
  C90      1.0000 0.27550  0.11190  0.63970  Biso   1.000  C
  H38      1.0000 0.15590  0.02140  0.70710  Biso   1.000  H
  H39      1.0000 0.10280  0.96550  0.60500  Biso   1.000  H
  H40      1.0000 0.23690  0.07210  0.59020  Biso   1.000  H
  O21      1.0000 0.85157  0.29523  0.17021  Biso   1.000  O
  O22      1.0000 0.89159  0.25597  0.12269  Biso   1.000  O
  C91      1.0000 0.88057  0.30643  0.13995  Biso   1.000  C
  C92      1.0000 0.90117  0.38633  0.12280  Biso   1.000  C
  C93      1.0000 0.93117  0.40133  0.08892  Biso   1.000  C
  H41      1.0000 0.94147  0.36333  0.07773  Biso   1.000  H
  C94      1.0000 0.91877  0.43073  0.00760  Biso   1.000  C
  C95      1.0000 0.84087  0.36653  0.01663  Biso   1.000  C
  C96      1.0000 0.78637  0.31673  0.99093  Biso   1.000  C
  C97      1.0000 0.80987  0.33123  0.95633  Biso   1.000  C
  C98      1.0000 0.88767  0.39543  0.94736  Biso   1.000  C
  C99      1.0000 0.94217  0.44523  0.97303  Biso   1.000  C
  H42      1.0000 0.82257  0.35473  0.04043  Biso   1.000  H
  H43      1.0000 0.76947  0.29883  0.93833  Biso   1.000  H
  H44      1.0000 0.90357  0.40543  0.92353  Biso   1.000  H
  O23      1.0000 0.51823  0.62857  0.50355  Biso   1.000  O
  O24      1.0000 0.55825  0.58931  0.45603  Biso   1.000  O
  C100     1.0000 0.54723  0.63977  0.47329  Biso   1.000  C
  C101     1.0000 0.56783  0.71967  0.45614  Biso   1.000  C
  C102     1.0000 0.59783  0.73467  0.42226  Biso   1.000  C
  H45      1.0000 0.60813  0.69667  0.41107  Biso   1.000  H
  C103     1.0000 0.58543  0.76407  0.34094  Biso   1.000  C
  C104     1.0000 0.50753  0.69987  0.34997  Biso   1.000  C
  C105     1.0000 0.45303  0.65007  0.32427  Biso   1.000  C
  C106     1.0000 0.47653  0.66457  0.28967  Biso   1.000  C
  C107     1.0000 0.55433  0.72877  0.28070  Biso   1.000  C
  C108     1.0000 0.60883  0.77857  0.30637  Biso   1.000  C
  H46      1.0000 0.48923  0.68807  0.37377  Biso   1.000  H
  H47      1.0000 0.43613  0.63217  0.27167  Biso   1.000  H
  H48      1.0000 0.57023  0.73877  0.25687  Biso   1.000  H
  O25      1.0000 0.77700  0.81510  0.83688  Biso   1.000  O
  O26      1.0000 0.69772  0.77508  0.78936  Biso   1.000  O
  C109     1.0000 0.75920  0.78610  0.80662  Biso   1.000  C
  C110     1.0000 0.81850  0.76550  0.78947  Biso   1.000  C
  C111     1.0000 0.80350  0.73550  0.75559  Biso   1.000  C
  H49      1.0000 0.75520  0.72520  0.74440  Biso   1.000  H
  C112     1.0000 0.84530  0.74790  0.67427  Biso   1.000  C
  C113     1.0000 0.85900  0.82580  0.68330  Biso   1.000  C
  C114     1.0000 0.86370  0.88030  0.65760  Biso   1.000  C
  C115     1.0000 0.85470  0.85680  0.62300  Biso   1.000  C
  C116     1.0000 0.84110  0.77900  0.61403  Biso   1.000  C
  C117     1.0000 0.83640  0.72450  0.63970  Biso   1.000  C
  H50      1.0000 0.86550  0.84410  0.70710  Biso   1.000  H
  H51      1.0000 0.86270  0.89720  0.60500  Biso   1.000  H
  H52      1.0000 0.83520  0.76310  0.59020  Biso   1.000  H
  O27      1.0000 0.44367  0.14843  0.17021  Biso   1.000  O
  O28      1.0000 0.36439  0.10841  0.12269  Biso   1.000  O
  C118     1.0000 0.42587  0.11943  0.13995  Biso   1.000  C
  C119     1.0000 0.48517  0.09883  0.12280  Biso   1.000  C
  C120     1.0000 0.47017  0.06883  0.08892  Biso   1.000  C
  H53      1.0000 0.42187  0.05853  0.07773  Biso   1.000  H
  C121     1.0000 0.51197  0.08123  0.00760  Biso   1.000  C
  C122     1.0000 0.52567  0.15913  0.01663  Biso   1.000  C
  C123     1.0000 0.53037  0.21363  0.99093  Biso   1.000  C
  C124     1.0000 0.52137  0.19013  0.95633  Biso   1.000  C
  C125     1.0000 0.50777  0.11233  0.94736  Biso   1.000  C
  C126     1.0000 0.50307  0.05783  0.97303  Biso   1.000  C
  H54      1.0000 0.53217  0.17743  0.04043  Biso   1.000  H
  H55      1.0000 0.52937  0.23053  0.93833  Biso   1.000  H
  H56      1.0000 0.50187  0.09643  0.92353  Biso   1.000  H
  O29      1.0000 0.11033  0.48177  0.50355  Biso   1.000  O
  O30      1.0000 0.03105  0.44175  0.45603  Biso   1.000  O
  C127     1.0000 0.09253  0.45277  0.47329  Biso   1.000  C
  C128     1.0000 0.15183  0.43217  0.45614  Biso   1.000  C
  C129     1.0000 0.13683  0.40217  0.42226  Biso   1.000  C
  H57      1.0000 0.08853  0.39187  0.41107  Biso   1.000  H
  C130     1.0000 0.17863  0.41457  0.34094  Biso   1.000  C
  C131     1.0000 0.19233  0.49247  0.34997  Biso   1.000  C
  C132     1.0000 0.19703  0.54697  0.32427  Biso   1.000  C
  C133     1.0000 0.18803  0.52347  0.28967  Biso   1.000  C
  C134     1.0000 0.17443  0.44567  0.28070  Biso   1.000  C
  C135     1.0000 0.16973  0.39117  0.30637  Biso   1.000  C
  H58      1.0000 0.19883  0.51077  0.37377  Biso   1.000  H
  H59      1.0000 0.19603  0.56387  0.27167  Biso   1.000  H
  H60      1.0000 0.16853  0.42977  0.25687  Biso   1.000  H
  O31      1.0000 0.03810  0.22300  0.83688  Biso   1.000  O
  O32      1.0000 0.07736  0.30228  0.78936  Biso   1.000  O
  C136     1.0000 0.02690  0.24080  0.80662  Biso   1.000  C
  C137     1.0000 0.94700  0.18150  0.78947  Biso   1.000  C
  C138     1.0000 0.93200  0.19650  0.75559  Biso   1.000  C
  H61      1.0000 0.97000  0.24480  0.74440  Biso   1.000  H
  C139     1.0000 0.90260  0.15470  0.67427  Biso   1.000  C
  C140     1.0000 0.96680  0.14100  0.68330  Biso   1.000  C
  C141     1.0000 0.01660  0.13630  0.65760  Biso   1.000  C
  C142     1.0000 0.00210  0.14530  0.62300  Biso   1.000  C
  C143     1.0000 0.93790  0.15890  0.61403  Biso   1.000  C
  C144     1.0000 0.88810  0.16360  0.63970  Biso   1.000  C
  H62      1.0000 0.97860  0.13450  0.70710  Biso   1.000  H
  H63      1.0000 0.03450  0.13730  0.60500  Biso   1.000  H
  H64      1.0000 0.92790  0.16480  0.59020  Biso   1.000  H
  O33      1.0000 0.70477  0.55633  0.17021  Biso   1.000  O
  O34      1.0000 0.74403  0.63561  0.12269  Biso   1.000  O
  C145     1.0000 0.69357  0.57413  0.13995  Biso   1.000  C
  C146     1.0000 0.61367  0.51483  0.12280  Biso   1.000  C
  C147     1.0000 0.59867  0.52983  0.08892  Biso   1.000  C
  H65      1.0000 0.63667  0.57813  0.07773  Biso   1.000  H
  C148     1.0000 0.56927  0.48803  0.00760  Biso   1.000  C
  C149     1.0000 0.63347  0.47433  0.01663  Biso   1.000  C
  C150     1.0000 0.68327  0.46963  0.99093  Biso   1.000  C
  C151     1.0000 0.66877  0.47863  0.95633  Biso   1.000  C
  C152     1.0000 0.60457  0.49223  0.94736  Biso   1.000  C
  C153     1.0000 0.55477  0.49693  0.97303  Biso   1.000  C
  H66      1.0000 0.64527  0.46783  0.04043  Biso   1.000  H
  H67      1.0000 0.70117  0.47063  0.93833  Biso   1.000  H
  H68      1.0000 0.59457  0.49813  0.92353  Biso   1.000  H
  O35      1.0000 0.37143  0.88967  0.50355  Biso   1.000  O
  O36      1.0000 0.41069  0.96895  0.45603  Biso   1.000  O
  C154     1.0000 0.36023  0.90747  0.47329  Biso   1.000  C
  C155     1.0000 0.28033  0.84817  0.45614  Biso   1.000  C
  C156     1.0000 0.26533  0.86317  0.42226  Biso   1.000  C
  H69      1.0000 0.30333  0.91147  0.41107  Biso   1.000  H
  C157     1.0000 0.23593  0.82137  0.34094  Biso   1.000  C
  C158     1.0000 0.30013  0.80767  0.34997  Biso   1.000  C
  C159     1.0000 0.34993  0.80297  0.32427  Biso   1.000  C
  C160     1.0000 0.33543  0.81197  0.28967  Biso   1.000  C
  C161     1.0000 0.27123  0.82557  0.28070  Biso   1.000  C
  C162     1.0000 0.22143  0.83027  0.30637  Biso   1.000  C
  H70      1.0000 0.31193  0.80117  0.37377  Biso   1.000  H
  H71      1.0000 0.36783  0.80397  0.27167  Biso   1.000  H
  H72      1.0000 0.26123  0.83147  0.25687  Biso   1.000  H
  O37      1.0000 0.03810  0.81510  0.83688  Biso   1.000  O
  O38      1.0000 0.07736  0.77508  0.78936  Biso   1.000  O
  C163     1.0000 0.02690  0.78610  0.80662  Biso   1.000  C
  C164     1.0000 0.94700  0.76550  0.78947  Biso   1.000  C
  C165     1.0000 0.93200  0.73550  0.75559  Biso   1.000  C
  H73      1.0000 0.97000  0.72520  0.74440  Biso   1.000  H
  C166     1.0000 0.90260  0.74790  0.67427  Biso   1.000  C
  C167     1.0000 0.96680  0.82580  0.68330  Biso   1.000  C
  C168     1.0000 0.01660  0.88030  0.65760  Biso   1.000  C
  C169     1.0000 0.00210  0.85680  0.62300  Biso   1.000  C
  C170     1.0000 0.93790  0.77900  0.61403  Biso   1.000  C
  C171     1.0000 0.88810  0.72450  0.63970  Biso   1.000  C
  H74      1.0000 0.97860  0.84410  0.70710  Biso   1.000  H
  H75      1.0000 0.03450  0.89720  0.60500  Biso   1.000  H
  H76      1.0000 0.92790  0.76310  0.59020  Biso   1.000  H
  O39      1.0000 0.70477  0.14843  0.17021  Biso   1.000  O
  O40      1.0000 0.74403  0.10841  0.12269  Biso   1.000  O
  C172     1.0000 0.69357  0.11943  0.13995  Biso   1.000  C
  C173     1.0000 0.61367  0.09883  0.12280  Biso   1.000  C
  C174     1.0000 0.59867  0.06883  0.08892  Biso   1.000  C
  H77      1.0000 0.63667  0.05853  0.07773  Biso   1.000  H
  C175     1.0000 0.56927  0.08123  0.00760  Biso   1.000  C
  C176     1.0000 0.63347  0.15913  0.01663  Biso   1.000  C
  C177     1.0000 0.68327  0.21363  0.99093  Biso   1.000  C
  C178     1.0000 0.66877  0.19013  0.95633  Biso   1.000  C
  C179     1.0000 0.60457  0.11233  0.94736  Biso   1.000  C
  C180     1.0000 0.55477  0.05783  0.97303  Biso   1.000  C
  H78      1.0000 0.64527  0.17743  0.04043  Biso   1.000  H
  H79      1.0000 0.70117  0.23053  0.93833  Biso   1.000  H
  H80      1.0000 0.59457  0.09643  0.92353  Biso   1.000  H
  O41      1.0000 0.37143  0.48177  0.50355  Biso   1.000  O
  O42      1.0000 0.41069  0.44175  0.45603  Biso   1.000  O
  C181     1.0000 0.36023  0.45277  0.47329  Biso   1.000  C
  C182     1.0000 0.28033  0.43217  0.45614  Biso   1.000  C
  C183     1.0000 0.26533  0.40217  0.42226  Biso   1.000  C
  H81      1.0000 0.30333  0.39187  0.41107  Biso   1.000  H
  C184     1.0000 0.23593  0.41457  0.34094  Biso   1.000  C
  C185     1.0000 0.30013  0.49247  0.34997  Biso   1.000  C
  C186     1.0000 0.34993  0.54697  0.32427  Biso   1.000  C
  C187     1.0000 0.33543  0.52347  0.28967  Biso   1.000  C
  C188     1.0000 0.27123  0.44567  0.28070  Biso   1.000  C
  C189     1.0000 0.22143  0.39117  0.30637  Biso   1.000  C
  H82      1.0000 0.31193  0.51077  0.37377  Biso   1.000  H
  H83      1.0000 0.36783  0.56387  0.27167  Biso   1.000  H
  H84      1.0000 0.26123  0.42977  0.25687  Biso   1.000  H
  O43      1.0000 0.18490  0.22300  0.83688  Biso   1.000  O
  O44      1.0000 0.22492  0.30228  0.78936  Biso   1.000  O
  C190     1.0000 0.21390  0.24080  0.80662  Biso   1.000  C
  C191     1.0000 0.23450  0.18150  0.78947  Biso   1.000  C
  C192     1.0000 0.26450  0.19650  0.75559  Biso   1.000  C
  H85      1.0000 0.27480  0.24480  0.74440  Biso   1.000  H
  C193     1.0000 0.25210  0.15470  0.67427  Biso   1.000  C
  C194     1.0000 0.17420  0.14100  0.68330  Biso   1.000  C
  C195     1.0000 0.11970  0.13630  0.65760  Biso   1.000  C
  C196     1.0000 0.14320  0.14530  0.62300  Biso   1.000  C
  C197     1.0000 0.22100  0.15890  0.61403  Biso   1.000  C
  C198     1.0000 0.27550  0.16360  0.63970  Biso   1.000  C
  H86      1.0000 0.15590  0.13450  0.70710  Biso   1.000  H
  H87      1.0000 0.10280  0.13730  0.60500  Biso   1.000  H
  H88      1.0000 0.23690  0.16480  0.59020  Biso   1.000  H
  O45      1.0000 0.85157  0.55633  0.17021  Biso   1.000  O
  O46      1.0000 0.89159  0.63561  0.12269  Biso   1.000  O
  C199     1.0000 0.88057  0.57413  0.13995  Biso   1.000  C
  C200     1.0000 0.90117  0.51483  0.12280  Biso   1.000  C
  C201     1.0000 0.93117  0.52983  0.08892  Biso   1.000  C
  H89      1.0000 0.94147  0.57813  0.07773  Biso   1.000  H
  C202     1.0000 0.91877  0.48803  0.00760  Biso   1.000  C
  C203     1.0000 0.84087  0.47433  0.01663  Biso   1.000  C
  C204     1.0000 0.78637  0.46963  0.99093  Biso   1.000  C
  C205     1.0000 0.80987  0.47863  0.95633  Biso   1.000  C
  C206     1.0000 0.88767  0.49223  0.94736  Biso   1.000  C
  C207     1.0000 0.94217  0.49693  0.97303  Biso   1.000  C
  H90      1.0000 0.82257  0.46783  0.04043  Biso   1.000  H
  H91      1.0000 0.76947  0.47063  0.93833  Biso   1.000  H
  H92      1.0000 0.90357  0.49813  0.92353  Biso   1.000  H
  O47      1.0000 0.51823  0.88967  0.50355  Biso   1.000  O
  O48      1.0000 0.55825  0.96895  0.45603  Biso   1.000  O
  C208     1.0000 0.54723  0.90747  0.47329  Biso   1.000  C
  C209     1.0000 0.56783  0.84817  0.45614  Biso   1.000  C
  C210     1.0000 0.59783  0.86317  0.42226  Biso   1.000  C
  H93      1.0000 0.60813  0.91147  0.41107  Biso   1.000  H
  C211     1.0000 0.58543  0.82137  0.34094  Biso   1.000  C
  C212     1.0000 0.50753  0.80767  0.34997  Biso   1.000  C
  C213     1.0000 0.45303  0.80297  0.32427  Biso   1.000  C
  C214     1.0000 0.47653  0.81197  0.28967  Biso   1.000  C
  C215     1.0000 0.55433  0.82557  0.28070  Biso   1.000  C
  C216     1.0000 0.60883  0.83027  0.30637  Biso   1.000  C
  H94      1.0000 0.48923  0.80117  0.37377  Biso   1.000  H
  H95      1.0000 0.43613  0.80397  0.27167  Biso   1.000  H
  H96      1.0000 0.57023  0.83147  0.25687  Biso   1.000  H
  O49      1.0000 0.77700  0.96190  0.83688  Biso   1.000  O
  O50      1.0000 0.69772  0.92264  0.78936  Biso   1.000  O
  C217     1.0000 0.75920  0.97310  0.80662  Biso   1.000  C
  C218     1.0000 0.81850  0.05300  0.78947  Biso   1.000  C
  C219     1.0000 0.80350  0.06800  0.75559  Biso   1.000  C
  H97      1.0000 0.75520  0.03000  0.74440  Biso   1.000  H
  C220     1.0000 0.84530  0.09740  0.67427  Biso   1.000  C
  C221     1.0000 0.85900  0.03320  0.68330  Biso   1.000  C
  C222     1.0000 0.86370  0.98340  0.65760  Biso   1.000  C
  C223     1.0000 0.85470  0.99790  0.62300  Biso   1.000  C
  C224     1.0000 0.84110  0.06210  0.61403  Biso   1.000  C
  C225     1.0000 0.83640  0.11190  0.63970  Biso   1.000  C
  H98      1.0000 0.86550  0.02140  0.70710  Biso   1.000  H
  H99      1.0000 0.86270  0.96550  0.60500  Biso   1.000  H
  H100     1.0000 0.83520  0.07210  0.59020  Biso   1.000  H
  O51      1.0000 0.44367  0.29523  0.17021  Biso   1.000  O
  O52      1.0000 0.36439  0.25597  0.12269  Biso   1.000  O
  C226     1.0000 0.42587  0.30643  0.13995  Biso   1.000  C
  C227     1.0000 0.48517  0.38633  0.12280  Biso   1.000  C
  C228     1.0000 0.47017  0.40133  0.08892  Biso   1.000  C
  H101     1.0000 0.42187  0.36333  0.07773  Biso   1.000  H
  C229     1.0000 0.51197  0.43073  0.00760  Biso   1.000  C
  C230     1.0000 0.52567  0.36653  0.01663  Biso   1.000  C
  C231     1.0000 0.53037  0.31673  0.99093  Biso   1.000  C
  C232     1.0000 0.52137  0.33123  0.95633  Biso   1.000  C
  C233     1.0000 0.50777  0.39543  0.94736  Biso   1.000  C
  C234     1.0000 0.50307  0.44523  0.97303  Biso   1.000  C
  H102     1.0000 0.53217  0.35473  0.04043  Biso   1.000  H
  H103     1.0000 0.52937  0.29883  0.93833  Biso   1.000  H
  H104     1.0000 0.50187  0.40543  0.92353  Biso   1.000  H
  O53      1.0000 0.11033  0.62857  0.50355  Biso   1.000  O
  O54      1.0000 0.03105  0.58931  0.45603  Biso   1.000  O
  C235     1.0000 0.09253  0.63977  0.47329  Biso   1.000  C
  C236     1.0000 0.15183  0.71967  0.45614  Biso   1.000  C
  C237     1.0000 0.13683  0.73467  0.42226  Biso   1.000  C
  H105     1.0000 0.08853  0.69667  0.41107  Biso   1.000  H
  C238     1.0000 0.17863  0.76407  0.34094  Biso   1.000  C
  C239     1.0000 0.19233  0.69987  0.34997  Biso   1.000  C
  C240     1.0000 0.19703  0.65007  0.32427  Biso   1.000  C
  C241     1.0000 0.18803  0.66457  0.28967  Biso   1.000  C
  C242     1.0000 0.17443  0.72877  0.28070  Biso   1.000  C
  C243     1.0000 0.16973  0.77857  0.30637  Biso   1.000  C
  H106     1.0000 0.19883  0.68807  0.37377  Biso   1.000  H
  H107     1.0000 0.19603  0.63217  0.27167  Biso   1.000  H
  H108     1.0000 0.16853  0.73877  0.25687  Biso   1.000  H
  O55      1.0000 0.81510  0.03810  0.16312  Biso   1.000  O
  O56      1.0000 0.77508  0.07736  0.21064  Biso   1.000  O
  C244     1.0000 0.78610  0.02690  0.19338  Biso   1.000  C
  C245     1.0000 0.76550  0.94700  0.21053  Biso   1.000  C
  C246     1.0000 0.73550  0.93200  0.24441  Biso   1.000  C
  H109     1.0000 0.72520  0.97000  0.25560  Biso   1.000  H
  C247     1.0000 0.74790  0.90260  0.32573  Biso   1.000  C
  C248     1.0000 0.82580  0.96680  0.31670  Biso   1.000  C
  C249     1.0000 0.88030  0.01660  0.34240  Biso   1.000  C
  C250     1.0000 0.85680  0.00210  0.37700  Biso   1.000  C
  C251     1.0000 0.77900  0.93790  0.38597  Biso   1.000  C
  C252     1.0000 0.72450  0.88810  0.36030  Biso   1.000  C
  H110     1.0000 0.84410  0.97860  0.29290  Biso   1.000  H
  H111     1.0000 0.89720  0.03450  0.39500  Biso   1.000  H
  H112     1.0000 0.76310  0.92790  0.40980  Biso   1.000  H
  O57      1.0000 0.48177  0.37143  0.49645  Biso   1.000  O
  O58      1.0000 0.44175  0.41069  0.54397  Biso   1.000  O
  C253     1.0000 0.45277  0.36023  0.52671  Biso   1.000  C
  C254     1.0000 0.43217  0.28033  0.54386  Biso   1.000  C
  C255     1.0000 0.40217  0.26533  0.57774  Biso   1.000  C
  H113     1.0000 0.39187  0.30333  0.58893  Biso   1.000  H
  C256     1.0000 0.41457  0.23593  0.65906  Biso   1.000  C
  C257     1.0000 0.49247  0.30013  0.65003  Biso   1.000  C
  C258     1.0000 0.54697  0.34993  0.67573  Biso   1.000  C
  C259     1.0000 0.52347  0.33543  0.71033  Biso   1.000  C
  C260     1.0000 0.44567  0.27123  0.71930  Biso   1.000  C
  C261     1.0000 0.39117  0.22143  0.69363  Biso   1.000  C
  H114     1.0000 0.51077  0.31193  0.62623  Biso   1.000  H
  H115     1.0000 0.56387  0.36783  0.72833  Biso   1.000  H
  H116     1.0000 0.42977  0.26123  0.74313  Biso   1.000  H
  O59      1.0000 0.14843  0.70477  0.82979  Biso   1.000  O
  O60      1.0000 0.10841  0.74403  0.87731  Biso   1.000  O
  C262     1.0000 0.11943  0.69357  0.86005  Biso   1.000  C
  C263     1.0000 0.09883  0.61367  0.87720  Biso   1.000  C
  C264     1.0000 0.06883  0.59867  0.91108  Biso   1.000  C
  H117     1.0000 0.05853  0.63667  0.92227  Biso   1.000  H
  C265     1.0000 0.08123  0.56927  0.99240  Biso   1.000  C
  C266     1.0000 0.15913  0.63347  0.98337  Biso   1.000  C
  C267     1.0000 0.21363  0.68327  0.00907  Biso   1.000  C
  C268     1.0000 0.19013  0.66877  0.04367  Biso   1.000  C
  C269     1.0000 0.11233  0.60457  0.05264  Biso   1.000  C
  C270     1.0000 0.05783  0.55477  0.02697  Biso   1.000  C
  H118     1.0000 0.17743  0.64527  0.95957  Biso   1.000  H
  H119     1.0000 0.23053  0.70117  0.06167  Biso   1.000  H
  H120     1.0000 0.09643  0.59457  0.07647  Biso   1.000  H
  O61      1.0000 0.22300  0.18490  0.16312  Biso   1.000  O
  O62      1.0000 0.30228  0.22492  0.21064  Biso   1.000  O
  C271     1.0000 0.24080  0.21390  0.19338  Biso   1.000  C
  C272     1.0000 0.18150  0.23450  0.21053  Biso   1.000  C
  C273     1.0000 0.19650  0.26450  0.24441  Biso   1.000  C
  H121     1.0000 0.24480  0.27480  0.25560  Biso   1.000  H
  C274     1.0000 0.15470  0.25210  0.32573  Biso   1.000  C
  C275     1.0000 0.14100  0.17420  0.31670  Biso   1.000  C
  C276     1.0000 0.13630  0.11970  0.34240  Biso   1.000  C
  C277     1.0000 0.14530  0.14320  0.37700  Biso   1.000  C
  C278     1.0000 0.15890  0.22100  0.38597  Biso   1.000  C
  C279     1.0000 0.16360  0.27550  0.36030  Biso   1.000  C
  H122     1.0000 0.13450  0.15590  0.29290  Biso   1.000  H
  H123     1.0000 0.13730  0.10280  0.39500  Biso   1.000  H
  H124     1.0000 0.16480  0.23690  0.40980  Biso   1.000  H
  O63      1.0000 0.88967  0.51823  0.49645  Biso   1.000  O
  O64      1.0000 0.96895  0.55825  0.54397  Biso   1.000  O
  C280     1.0000 0.90747  0.54723  0.52671  Biso   1.000  C
  C281     1.0000 0.84817  0.56783  0.54386  Biso   1.000  C
  C282     1.0000 0.86317  0.59783  0.57774  Biso   1.000  C
  H125     1.0000 0.91147  0.60813  0.58893  Biso   1.000  H
  C283     1.0000 0.82137  0.58543  0.65906  Biso   1.000  C
  C284     1.0000 0.80767  0.50753  0.65003  Biso   1.000  C
  C285     1.0000 0.80297  0.45303  0.67573  Biso   1.000  C
  C286     1.0000 0.81197  0.47653  0.71033  Biso   1.000  C
  C287     1.0000 0.82557  0.55433  0.71930  Biso   1.000  C
  C288     1.0000 0.83027  0.60883  0.69363  Biso   1.000  C
  H126     1.0000 0.80117  0.48923  0.62623  Biso   1.000  H
  H127     1.0000 0.80397  0.43613  0.72833  Biso   1.000  H
  H128     1.0000 0.83147  0.57023  0.74313  Biso   1.000  H
  O65      1.0000 0.55633  0.85157  0.82979  Biso   1.000  O
  O66      1.0000 0.63561  0.89159  0.87731  Biso   1.000  O
  C289     1.0000 0.57413  0.88057  0.86005  Biso   1.000  C
  C290     1.0000 0.51483  0.90117  0.87720  Biso   1.000  C
  C291     1.0000 0.52983  0.93117  0.91108  Biso   1.000  C
  H129     1.0000 0.57813  0.94147  0.92227  Biso   1.000  H
  C292     1.0000 0.48803  0.91877  0.99240  Biso   1.000  C
  C293     1.0000 0.47433  0.84087  0.98337  Biso   1.000  C
  C294     1.0000 0.46963  0.78637  0.00907  Biso   1.000  C
  C295     1.0000 0.47863  0.80987  0.04367  Biso   1.000  C
  C296     1.0000 0.49223  0.88767  0.05264  Biso   1.000  C
  C297     1.0000 0.49693  0.94217  0.02697  Biso   1.000  C
  H130     1.0000 0.46783  0.82257  0.95957  Biso   1.000  H
  H131     1.0000 0.47063  0.76947  0.06167  Biso   1.000  H
  H132     1.0000 0.49813  0.90357  0.07647  Biso   1.000  H
  O67      1.0000 0.96190  0.77700  0.16312  Biso   1.000  O
  O68      1.0000 0.92264  0.69772  0.21064  Biso   1.000  O
  C298     1.0000 0.97310  0.75920  0.19338  Biso   1.000  C
  C299     1.0000 0.05300  0.81850  0.21053  Biso   1.000  C
  C300     1.0000 0.06800  0.80350  0.24441  Biso   1.000  C
  H133     1.0000 0.03000  0.75520  0.25560  Biso   1.000  H
  C301     1.0000 0.09740  0.84530  0.32573  Biso   1.000  C
  C302     1.0000 0.03320  0.85900  0.31670  Biso   1.000  C
  C303     1.0000 0.98340  0.86370  0.34240  Biso   1.000  C
  C304     1.0000 0.99790  0.85470  0.37700  Biso   1.000  C
  C305     1.0000 0.06210  0.84110  0.38597  Biso   1.000  C
  C306     1.0000 0.11190  0.83640  0.36030  Biso   1.000  C
  H134     1.0000 0.02140  0.86550  0.29290  Biso   1.000  H
  H135     1.0000 0.96550  0.86270  0.39500  Biso   1.000  H
  H136     1.0000 0.07210  0.83520  0.40980  Biso   1.000  H
  O69      1.0000 0.62857  0.11033  0.49645  Biso   1.000  O
  O70      1.0000 0.58931  0.03105  0.54397  Biso   1.000  O
  C307     1.0000 0.63977  0.09253  0.52671  Biso   1.000  C
  C308     1.0000 0.71967  0.15183  0.54386  Biso   1.000  C
  C309     1.0000 0.73467  0.13683  0.57774  Biso   1.000  C
  H137     1.0000 0.69667  0.08853  0.58893  Biso   1.000  H
  C310     1.0000 0.76407  0.17863  0.65906  Biso   1.000  C
  C311     1.0000 0.69987  0.19233  0.65003  Biso   1.000  C
  C312     1.0000 0.65007  0.19703  0.67573  Biso   1.000  C
  C313     1.0000 0.66457  0.18803  0.71033  Biso   1.000  C
  C314     1.0000 0.72877  0.17443  0.71930  Biso   1.000  C
  C315     1.0000 0.77857  0.16973  0.69363  Biso   1.000  C
  H138     1.0000 0.68807  0.19883  0.62623  Biso   1.000  H
  H139     1.0000 0.63217  0.19603  0.72833  Biso   1.000  H
  H140     1.0000 0.73877  0.16853  0.74313  Biso   1.000  H
  O71      1.0000 0.29523  0.44367  0.82979  Biso   1.000  O
  O72      1.0000 0.25597  0.36439  0.87731  Biso   1.000  O
  C316     1.0000 0.30643  0.42587  0.86005  Biso   1.000  C
  C317     1.0000 0.38633  0.48517  0.87720  Biso   1.000  C
  C318     1.0000 0.40133  0.47017  0.91108  Biso   1.000  C
  H141     1.0000 0.36333  0.42187  0.92227  Biso   1.000  H
  C319     1.0000 0.43073  0.51197  0.99240  Biso   1.000  C
  C320     1.0000 0.36653  0.52567  0.98337  Biso   1.000  C
  C321     1.0000 0.31673  0.53037  0.00907  Biso   1.000  C
  C322     1.0000 0.33123  0.52137  0.04367  Biso   1.000  C
  C323     1.0000 0.39543  0.50777  0.05264  Biso   1.000  C
  C324     1.0000 0.44523  0.50307  0.02697  Biso   1.000  C
  H142     1.0000 0.35473  0.53217  0.95957  Biso   1.000  H
  H143     1.0000 0.29883  0.52937  0.06167  Biso   1.000  H
  H144     1.0000 0.40543  0.50187  0.07647  Biso   1.000  H
  Cu1      1.0000 0.85678  0.14322  0.13842  Biso   1.000  Cu
  H145     1.0000 0.94010  0.05990  0.33660  Biso   1.000  H
  Cu2      1.0000 0.52345  0.47655  0.47176  Biso   1.000  Cu
  H146     1.0000 0.60677  0.39323  0.66993  Biso   1.000  H
  Cu3      1.0000 0.19011  0.80989  0.80509  Biso   1.000  Cu
  H147     1.0000 0.27343  0.72657  0.00327  Biso   1.000  H
  Cu4      1.0000 0.85678  0.71356  0.13842  Biso   1.000  Cu
  H148     1.0000 0.94010  0.88020  0.33660  Biso   1.000  H
  Cu5      1.0000 0.52345  0.04690  0.47176  Biso   1.000  Cu
  H149     1.0000 0.60677  0.21353  0.66993  Biso   1.000  H
  Cu6      1.0000 0.19011  0.38023  0.80509  Biso   1.000  Cu
  H150     1.0000 0.27343  0.54687  0.00327  Biso   1.000  H
  Cu7      1.0000 0.28644  0.14322  0.13842  Biso   1.000  Cu
  H151     1.0000 0.11980  0.05990  0.33660  Biso   1.000  H
  Cu8      1.0000 0.95310  0.47655  0.47176  Biso   1.000  Cu
  H152     1.0000 0.78647  0.39323  0.66993  Biso   1.000  H
  Cu9      1.0000 0.61977  0.80989  0.80509  Biso   1.000  Cu
  H153     1.0000 0.45313  0.72657  0.00327  Biso   1.000  H
  Cu10     1.0000 0.14322  0.85678  0.86158  Biso   1.000  Cu
  H154     1.0000 0.05990  0.94010  0.66340  Biso   1.000  H
  Cu11     1.0000 0.80989  0.19011  0.19491  Biso   1.000  Cu
  H155     1.0000 0.72657  0.27343  0.99673  Biso   1.000  H
  Cu12     1.0000 0.47655  0.52345  0.52824  Biso   1.000  Cu
  H156     1.0000 0.39323  0.60677  0.33007  Biso   1.000  H
  Cu13     1.0000 0.71356  0.85678  0.86158  Biso   1.000  Cu
  H157     1.0000 0.88020  0.94010  0.66340  Biso   1.000  H
  Cu14     1.0000 0.38023  0.19011  0.19491  Biso   1.000  Cu
  H158     1.0000 0.54687  0.27343  0.99673  Biso   1.000  H
  Cu15     1.0000 0.04690  0.52345  0.52824  Biso   1.000  Cu
  H159     1.0000 0.21353  0.60677  0.33007  Biso   1.000  H
  Cu16     1.0000 0.14322  0.28644  0.86158  Biso   1.000  Cu
  H160     1.0000 0.05990  0.11980  0.66340  Biso   1.000  H
  Cu17     1.0000 0.80989  0.61977  0.19491  Biso   1.000  Cu
  H161     1.0000 0.72657  0.45313  0.99673  Biso   1.000  H
  Cu18     1.0000 0.47655  0.95310  0.52824  Biso   1.000  Cu
  H162     1.0000 0.39323  0.78647  0.33007  Biso   1.000  H
  C325     1.0000 0.10995  0.21990  0.19394  Biso   1.000  C
  H163     1.0000 0.10005  0.20010  0.17130  Biso   1.000  H
  C326     1.0000 0.13950  0.27900  0.26151  Biso   1.000  C
  C327     1.0000 0.15355  0.30710  0.29884  Biso   1.000  C
  C328     1.0000 0.77662  0.55323  0.52727  Biso   1.000  C
  H164     1.0000 0.76672  0.53343  0.50463  Biso   1.000  H
  C329     1.0000 0.80617  0.61233  0.59484  Biso   1.000  C
  C330     1.0000 0.82022  0.64043  0.63217  Biso   1.000  C
  C331     1.0000 0.44328  0.88657  0.86061  Biso   1.000  C
  H165     1.0000 0.43338  0.86677  0.83797  Biso   1.000  H
  C332     1.0000 0.47283  0.94567  0.92818  Biso   1.000  C
  C333     1.0000 0.48688  0.97377  0.96551  Biso   1.000  C
  C334     1.0000 0.78010  0.89005  0.19394  Biso   1.000  C
  H166     1.0000 0.79990  0.89995  0.17130  Biso   1.000  H
  C335     1.0000 0.72100  0.86050  0.26151  Biso   1.000  C
  C336     1.0000 0.69290  0.84645  0.29884  Biso   1.000  C
  C337     1.0000 0.44677  0.22338  0.52727  Biso   1.000  C
  H167     1.0000 0.46657  0.23328  0.50463  Biso   1.000  H
  C338     1.0000 0.38767  0.19383  0.59484  Biso   1.000  C
  C339     1.0000 0.35957  0.17978  0.63217  Biso   1.000  C
  C340     1.0000 0.11343  0.55672  0.86061  Biso   1.000  C
  H168     1.0000 0.13323  0.56662  0.83797  Biso   1.000  H
  C341     1.0000 0.05433  0.52717  0.92818  Biso   1.000  C
  C342     1.0000 0.02623  0.51312  0.96551  Biso   1.000  C
  C343     1.0000 0.10995  0.89005  0.19394  Biso   1.000  C
  H169     1.0000 0.10005  0.89995  0.17130  Biso   1.000  H
  C344     1.0000 0.13950  0.86050  0.26151  Biso   1.000  C
  C345     1.0000 0.15355  0.84645  0.29884  Biso   1.000  C
  C346     1.0000 0.77662  0.22338  0.52727  Biso   1.000  C
  H170     1.0000 0.76672  0.23328  0.50463  Biso   1.000  H
  C347     1.0000 0.80617  0.19383  0.59484  Biso   1.000  C
  C348     1.0000 0.82022  0.17978  0.63217  Biso   1.000  C
  C349     1.0000 0.44328  0.55672  0.86061  Biso   1.000  C
  H171     1.0000 0.43338  0.56662  0.83797  Biso   1.000  H
  C350     1.0000 0.47283  0.52717  0.92818  Biso   1.000  C
  C351     1.0000 0.48688  0.51312  0.96551  Biso   1.000  C
  C352     1.0000 0.21990  0.10995  0.80606  Biso   1.000  C
  H172     1.0000 0.20010  0.10005  0.82870  Biso   1.000  H
  C353     1.0000 0.27900  0.13950  0.73849  Biso   1.000  C
  C354     1.0000 0.30710  0.15355  0.70116  Biso   1.000  C
  C355     1.0000 0.88657  0.44328  0.13939  Biso   1.000  C
  H173     1.0000 0.86677  0.43338  0.16203  Biso   1.000  H
  C356     1.0000 0.94567  0.47283  0.07182  Biso   1.000  C
  C357     1.0000 0.97377  0.48688  0.03449  Biso   1.000  C
  C358     1.0000 0.55323  0.77662  0.47273  Biso   1.000  C
  H174     1.0000 0.53343  0.76672  0.49537  Biso   1.000  H
  C359     1.0000 0.61233  0.80617  0.40516  Biso   1.000  C
  C360     1.0000 0.64043  0.82022  0.36783  Biso   1.000  C
  C361     1.0000 0.89005  0.78010  0.80606  Biso   1.000  C
  H175     1.0000 0.89995  0.79990  0.82870  Biso   1.000  H
  C362     1.0000 0.86050  0.72100  0.73849  Biso   1.000  C
  C363     1.0000 0.84645  0.69290  0.70116  Biso   1.000  C
  C364     1.0000 0.55672  0.11343  0.13939  Biso   1.000  C
  H176     1.0000 0.56662  0.13323  0.16203  Biso   1.000  H
  C365     1.0000 0.52717  0.05433  0.07182  Biso   1.000  C
  C366     1.0000 0.51312  0.02623  0.03449  Biso   1.000  C
  C367     1.0000 0.22338  0.44677  0.47273  Biso   1.000  C
  H177     1.0000 0.23328  0.46657  0.49537  Biso   1.000  H
  C368     1.0000 0.19383  0.38767  0.40516  Biso   1.000  C
  C369     1.0000 0.17978  0.35957  0.36783  Biso   1.000  C
  C370     1.0000 0.89005  0.10995  0.80606  Biso   1.000  C
  H178     1.0000 0.89995  0.10005  0.82870  Biso   1.000  H
  C371     1.0000 0.86050  0.13950  0.73849  Biso   1.000  C
  C372     1.0000 0.84645  0.15355  0.70116  Biso   1.000  C
  C373     1.0000 0.55672  0.44328  0.13939  Biso   1.000  C
  H179     1.0000 0.56662  0.43338  0.16203  Biso   1.000  H
  C374     1.0000 0.52717  0.47283  0.07182  Biso   1.000  C
  C375     1.0000 0.51312  0.48688  0.03449  Biso   1.000  C
  C376     1.0000 0.22338  0.77662  0.47273  Biso   1.000  C
  H180     1.0000 0.23328  0.76672  0.49537  Biso   1.000  H
  C377     1.0000 0.19383  0.80617  0.40516  Biso   1.000  C
  C378     1.0000 0.17978  0.82022  0.36783  Biso   1.000  C
