data_image0
_cell_length_a       40.6544
_cell_length_b       14.3377
_cell_length_c       20.2429
_cell_angle_alpha    90
_cell_angle_beta     108.733
_cell_angle_gamma    90

_symmetry_space_group_name_H-M    "P 1"
_symmetry_int_tables_number       1

loop_
  _symmetry_equiv_pos_as_xyz
  'x, y, z'

loop_
  _atom_site_label
  _atom_site_occupancy
  _atom_site_fract_x
  _atom_site_fract_y
  _atom_site_fract_z
  _atom_site_thermal_displace_type
  _atom_site_B_iso_or_equiv
  _atom_site_type_symbol
  Zn1      1.0000 0.08224  0.96529  0.11891  Biso   1.000  Zn
  Zn2      1.0000 0.27790  0.15390  0.17062  Biso   1.000  Zn
  O1       1.0000 0.11464  0.98489  0.21509  Biso   1.000  O
  O2       1.0000 0.06724  0.95920  0.24299  Biso   1.000  O
  O3       1.0000 0.11645  0.03118  0.56720  Biso   1.000  O
  O4       1.0000 0.06675  0.03010  0.48168  Biso   1.000  O
  O5       1.0000 0.28574  0.28480  0.15750  Biso   1.000  O
  O6       1.0000 0.27560  0.36260  0.24375  Biso   1.000  O
  O7       1.0000 0.22166  0.38600  0.91993  Biso   1.000  O
  O8       1.0000 0.22592  0.53630  0.89650  Biso   1.000  O
  N1       1.0000 0.06764  0.83160  0.11160  Biso   1.000  N
  N2       1.0000 0.06876  0.68920  0.14880  Biso   1.000  N
  N3       1.0000 0.94741  0.07960  0.39783  Biso   1.000  N
  N4       1.0000 0.98326  0.18830  0.38910  Biso   1.000  N
  N5       1.0000 0.22950  0.14740  0.17629  Biso   1.000  N
  N6       1.0000 0.18451  0.17820  0.20916  Biso   1.000  N
  N7       1.0000 0.19212  0.41040  0.74392  Biso   1.000  N
  N8       1.0000 0.16391  0.44100  0.63374  Biso   1.000  N
  C1       1.0000 0.09849  0.98170  0.25887  Biso   1.000  C
  C2       1.0000 0.11813  0.00890  0.33303  Biso   1.000  C
  C3       1.0000 0.10125  0.00780  0.38258  Biso   1.000  C
  H1       1.0000 0.07800  0.99030  0.36960  Biso   1.000  H
  C4       1.0000 0.11846  0.03230  0.45110  Biso   1.000  C
  C5       1.0000 0.09864  0.03120  0.50239  Biso   1.000  C
  C6       1.0000 0.15263  0.05940  0.47040  Biso   1.000  C
  H2       1.0000 0.16430  0.07650  0.51630  Biso   1.000  H
  C7       1.0000 0.16991  0.06130  0.42050  Biso   1.000  C
  H3       1.0000 0.19300  0.07990  0.43330  Biso   1.000  H
  C8       1.0000 0.15258  0.03560  0.35250  Biso   1.000  C
  H4       1.0000 0.16410  0.03620  0.31970  Biso   1.000  H
  C9       1.0000 0.07383  0.77560  0.16650  Biso   1.000  C
  H5       1.0000 0.08100  0.79650  0.21240  Biso   1.000  H
  C10      1.0000 0.06066  0.68340  0.07850  Biso   1.000  C
  H6       1.0000 0.05690  0.62950  0.05160  Biso   1.000  H
  C11      1.0000 0.05922  0.77260  0.05570  Biso   1.000  C
  H7       1.0000 0.05340  0.79080  0.00930  Biso   1.000  H
  C12      1.0000 0.07516  0.61030  0.19736  Biso   1.000  C
  C13      1.0000 0.10748  0.60340  0.24880  Biso   1.000  C
  H8       1.0000 0.12450  0.64840  0.25230  Biso   1.000  H
  C14      1.0000 0.11385  0.52980  0.29380  Biso   1.000  C
  H9       1.0000 0.13570  0.52350  0.32680  Biso   1.000  H
  C15      1.0000 0.05689  0.47270  0.23980  Biso   1.000  C
  H10      1.0000 0.03970  0.42840  0.23640  Biso   1.000  H
  C16      1.0000 0.05017  0.54560  0.19310  Biso   1.000  C
  H11      1.0000 0.02860  0.55050  0.15870  Biso   1.000  H
  C17      1.0000 0.08843  0.46400  0.29150  Biso   1.000  C
  C18      1.0000 0.09827  0.37680  0.33925  Biso   1.000  C
  C19      1.0000 0.96975  0.10600  0.36644  Biso   1.000  C
  H12      1.0000 0.97530  0.07110  0.33270  Biso   1.000  H
  C20      1.0000 0.96781  0.22010  0.43660  Biso   1.000  C
  H13      1.0000 0.97170  0.27680  0.46020  Biso   1.000  H
  C21      1.0000 0.94632  0.15310  0.44160  Biso   1.000  C
  H14      1.0000 0.93250  0.15510  0.47020  Biso   1.000  H
  C22      1.0000 0.01036  0.23500  0.36999  Biso   1.000  C
  C23      1.0000 0.03376  0.18390  0.34890  Biso   1.000  C
  H15      1.0000 0.03150  0.11940  0.34440  Biso   1.000  H
  C24      1.0000 0.06099  0.22940  0.33440  Biso   1.000  C
  H16      1.0000 0.07660  0.19470  0.31940  Biso   1.000  H
  C25      1.0000 0.06529  0.32560  0.34177  Biso   1.000  C
  C26      1.0000 0.04081  0.37590  0.36290  Biso   1.000  C
  H17      1.0000 0.04290  0.44040  0.36750  Biso   1.000  H
  C27      1.0000 0.01365  0.33140  0.37700  Biso   1.000  C
  H18      1.0000 0.99770  0.36560  0.39120  Biso   1.000  H
  C28      1.0000 0.21616  0.20570  0.21091  Biso   1.000  C
  H19      1.0000 0.22730  0.25900  0.23360  Biso   1.000  H
  C29      1.0000 0.17682  0.09780  0.17070  Biso   1.000  C
  H20      1.0000 0.15640  0.06320  0.16010  Biso   1.000  H
  C30      1.0000 0.20474  0.07960  0.15170  Biso   1.000  C
  H21      1.0000 0.20710  0.02820  0.12550  Biso   1.000  H
  C31      1.0000 0.16252  0.22680  0.24234  Biso   1.000  C
  C32      1.0000 0.12733  0.23160  0.20966  Biso   1.000  C
  H22      1.0000 0.11740  0.20470  0.16600  Biso   1.000  H
  C33      1.0000 0.10691  0.27670  0.24210  Biso   1.000  C
  H23      1.0000 0.08300  0.27920  0.22000  Biso   1.000  H
  C34      1.0000 0.12091  0.31880  0.30726  Biso   1.000  C
  C35      1.0000 0.15686  0.31470  0.33820  Biso   1.000  C
  H24      1.0000 0.16710  0.34380  0.38090  Biso   1.000  H
  C36      1.0000 0.17762  0.26780  0.30624  Biso   1.000  C
  H25      1.0000 0.20150  0.26420  0.32800  Biso   1.000  H
  C37      1.0000 0.17762  0.37420  0.68141  Biso   1.000  C
  H26      1.0000 0.17700  0.31070  0.67150  Biso   1.000  H
  C38      1.0000 0.17017  0.52460  0.66790  Biso   1.000  C
  H27      1.0000 0.16350  0.58310  0.64840  Biso   1.000  H
  C39      1.0000 0.18794  0.50620  0.73560  Biso   1.000  C
  H28      1.0000 0.19600  0.55040  0.77080  Biso   1.000  H
  C40      1.0000 0.14763  0.42580  0.56037  Biso   1.000  C
  C41      1.0000 0.13334  0.50020  0.51730  Biso   1.000  C
  H29      1.0000 0.13400  0.55990  0.53570  Biso   1.000  H
  C42      1.0000 0.11800  0.48470  0.44605  Biso   1.000  C
  H30      1.0000 0.10830  0.53500  0.41740  Biso   1.000  H
  C43      1.0000 0.11668  0.39880  0.41692  Biso   1.000  C
  C44      1.0000 0.13024  0.32530  0.46183  Biso   1.000  C
  H31      1.0000 0.12870  0.26520  0.44380  Biso   1.000  H
  C45      1.0000 0.14611  0.33850  0.53291  Biso   1.000  C
  H32      1.0000 0.15570  0.28810  0.56160  Biso   1.000  H
  C46      1.0000 0.27446  0.35550  0.18210  Biso   1.000  C
  C47      1.0000 0.25968  0.43290  0.13280  Biso   1.000  C
  C48      1.0000 0.24896  0.41920  0.06069  Biso   1.000  C
  H33      1.0000 0.25080  0.35980  0.04370  Biso   1.000  H
  C49      1.0000 0.23588  0.48990  0.01398  Biso   1.000  C
  C50      1.0000 0.22662  0.47070  0.93690  Biso   1.000  C
  C51      1.0000 0.23306  0.57840  0.03840  Biso   1.000  C
  H34      1.0000 0.22480  0.62720  0.00720  Biso   1.000  H
  C52      1.0000 0.24273  0.59480  0.11140  Biso   1.000  C
  H35      1.0000 0.24040  0.65390  0.12830  Biso   1.000  H
  C53      1.0000 0.25557  0.52180  0.15700  Biso   1.000  C
  H36      1.0000 0.26160  0.53220  0.20470  Biso   1.000  H
  Co1      1.0000 0.08230  0.96800  0.11790  Biso   1.000  Co
  Co2      1.0000 0.27820  0.15190  0.17230  Biso   1.000  Co
  Zn3      1.0000 0.58224  0.46529  0.11891  Biso   1.000  Zn
  Zn4      1.0000 0.77790  0.65390  0.17062  Biso   1.000  Zn
  O9       1.0000 0.61464  0.48489  0.21509  Biso   1.000  O
  O10      1.0000 0.56724  0.45920  0.24299  Biso   1.000  O
  O11      1.0000 0.61645  0.53118  0.56720  Biso   1.000  O
  O12      1.0000 0.56675  0.53010  0.48168  Biso   1.000  O
  O13      1.0000 0.78574  0.78480  0.15750  Biso   1.000  O
  O14      1.0000 0.77560  0.86260  0.24375  Biso   1.000  O
  O15      1.0000 0.72166  0.88600  0.91993  Biso   1.000  O
  O16      1.0000 0.72592  0.03630  0.89650  Biso   1.000  O
  N9       1.0000 0.56764  0.33160  0.11160  Biso   1.000  N
  N10      1.0000 0.56876  0.18920  0.14880  Biso   1.000  N
  N11      1.0000 0.44741  0.57960  0.39783  Biso   1.000  N
  N12      1.0000 0.48326  0.68830  0.38910  Biso   1.000  N
  N13      1.0000 0.72950  0.64740  0.17629  Biso   1.000  N
  N14      1.0000 0.68451  0.67820  0.20916  Biso   1.000  N
  N15      1.0000 0.69212  0.91040  0.74392  Biso   1.000  N
  N16      1.0000 0.66391  0.94100  0.63374  Biso   1.000  N
  C54      1.0000 0.59849  0.48170  0.25887  Biso   1.000  C
  C55      1.0000 0.61813  0.50890  0.33303  Biso   1.000  C
  C56      1.0000 0.60125  0.50780  0.38258  Biso   1.000  C
  H37      1.0000 0.57800  0.49030  0.36960  Biso   1.000  H
  C57      1.0000 0.61846  0.53230  0.45110  Biso   1.000  C
  C58      1.0000 0.59864  0.53120  0.50239  Biso   1.000  C
  C59      1.0000 0.65263  0.55940  0.47040  Biso   1.000  C
  H38      1.0000 0.66430  0.57650  0.51630  Biso   1.000  H
  C60      1.0000 0.66991  0.56130  0.42050  Biso   1.000  C
  H39      1.0000 0.69300  0.57990  0.43330  Biso   1.000  H
  C61      1.0000 0.65258  0.53560  0.35250  Biso   1.000  C
  H40      1.0000 0.66410  0.53620  0.31970  Biso   1.000  H
  C62      1.0000 0.57383  0.27560  0.16650  Biso   1.000  C
  H41      1.0000 0.58100  0.29650  0.21240  Biso   1.000  H
  C63      1.0000 0.56066  0.18340  0.07850  Biso   1.000  C
  H42      1.0000 0.55690  0.12950  0.05160  Biso   1.000  H
  C64      1.0000 0.55922  0.27260  0.05570  Biso   1.000  C
  H43      1.0000 0.55340  0.29080  0.00930  Biso   1.000  H
  C65      1.0000 0.57516  0.11030  0.19736  Biso   1.000  C
  C66      1.0000 0.60748  0.10340  0.24880  Biso   1.000  C
  H44      1.0000 0.62450  0.14840  0.25230  Biso   1.000  H
  C67      1.0000 0.61385  0.02980  0.29380  Biso   1.000  C
  H45      1.0000 0.63570  0.02350  0.32680  Biso   1.000  H
  C68      1.0000 0.55689  0.97270  0.23980  Biso   1.000  C
  H46      1.0000 0.53970  0.92840  0.23640  Biso   1.000  H
  C69      1.0000 0.55017  0.04560  0.19310  Biso   1.000  C
  H47      1.0000 0.52860  0.05050  0.15870  Biso   1.000  H
  C70      1.0000 0.58843  0.96400  0.29150  Biso   1.000  C
  C71      1.0000 0.59827  0.87680  0.33925  Biso   1.000  C
  C72      1.0000 0.46975  0.60600  0.36644  Biso   1.000  C
  H48      1.0000 0.47530  0.57110  0.33270  Biso   1.000  H
  C73      1.0000 0.46781  0.72010  0.43660  Biso   1.000  C
  H49      1.0000 0.47170  0.77680  0.46020  Biso   1.000  H
  C74      1.0000 0.44632  0.65310  0.44160  Biso   1.000  C
  H50      1.0000 0.43250  0.65510  0.47020  Biso   1.000  H
  C75      1.0000 0.51036  0.73500  0.36999  Biso   1.000  C
  C76      1.0000 0.53376  0.68390  0.34890  Biso   1.000  C
  H51      1.0000 0.53150  0.61940  0.34440  Biso   1.000  H
  C77      1.0000 0.56099  0.72940  0.33440  Biso   1.000  C
  H52      1.0000 0.57660  0.69470  0.31940  Biso   1.000  H
  C78      1.0000 0.56529  0.82560  0.34177  Biso   1.000  C
  C79      1.0000 0.54081  0.87590  0.36290  Biso   1.000  C
  H53      1.0000 0.54290  0.94040  0.36750  Biso   1.000  H
  C80      1.0000 0.51365  0.83140  0.37700  Biso   1.000  C
  H54      1.0000 0.49770  0.86560  0.39120  Biso   1.000  H
  C81      1.0000 0.71616  0.70570  0.21091  Biso   1.000  C
  H55      1.0000 0.72730  0.75900  0.23360  Biso   1.000  H
  C82      1.0000 0.67682  0.59780  0.17070  Biso   1.000  C
  H56      1.0000 0.65640  0.56320  0.16010  Biso   1.000  H
  C83      1.0000 0.70474  0.57960  0.15170  Biso   1.000  C
  H57      1.0000 0.70710  0.52820  0.12550  Biso   1.000  H
  C84      1.0000 0.66252  0.72680  0.24234  Biso   1.000  C
  C85      1.0000 0.62733  0.73160  0.20966  Biso   1.000  C
  H58      1.0000 0.61740  0.70470  0.16600  Biso   1.000  H
  C86      1.0000 0.60691  0.77670  0.24210  Biso   1.000  C
  H59      1.0000 0.58300  0.77920  0.22000  Biso   1.000  H
  C87      1.0000 0.62091  0.81880  0.30726  Biso   1.000  C
  C88      1.0000 0.65686  0.81470  0.33820  Biso   1.000  C
  H60      1.0000 0.66710  0.84380  0.38090  Biso   1.000  H
  C89      1.0000 0.67762  0.76780  0.30624  Biso   1.000  C
  H61      1.0000 0.70150  0.76420  0.32800  Biso   1.000  H
  C90      1.0000 0.67762  0.87420  0.68141  Biso   1.000  C
  H62      1.0000 0.67700  0.81070  0.67150  Biso   1.000  H
  C91      1.0000 0.67017  0.02460  0.66790  Biso   1.000  C
  H63      1.0000 0.66350  0.08310  0.64840  Biso   1.000  H
  C92      1.0000 0.68794  0.00620  0.73560  Biso   1.000  C
  H64      1.0000 0.69600  0.05040  0.77080  Biso   1.000  H
  C93      1.0000 0.64763  0.92580  0.56037  Biso   1.000  C
  C94      1.0000 0.63334  0.00020  0.51730  Biso   1.000  C
  H65      1.0000 0.63400  0.05990  0.53570  Biso   1.000  H
  C95      1.0000 0.61800  0.98470  0.44605  Biso   1.000  C
  H66      1.0000 0.60830  0.03500  0.41740  Biso   1.000  H
  C96      1.0000 0.61668  0.89880  0.41692  Biso   1.000  C
  C97      1.0000 0.63024  0.82530  0.46183  Biso   1.000  C
  H67      1.0000 0.62870  0.76520  0.44380  Biso   1.000  H
  C98      1.0000 0.64611  0.83850  0.53291  Biso   1.000  C
  H68      1.0000 0.65570  0.78810  0.56160  Biso   1.000  H
  C99      1.0000 0.77446  0.85550  0.18210  Biso   1.000  C
  C100     1.0000 0.75968  0.93290  0.13280  Biso   1.000  C
  C101     1.0000 0.74896  0.91920  0.06069  Biso   1.000  C
  H69      1.0000 0.75080  0.85980  0.04370  Biso   1.000  H
  C102     1.0000 0.73588  0.98990  0.01398  Biso   1.000  C
  C103     1.0000 0.72662  0.97070  0.93690  Biso   1.000  C
  C104     1.0000 0.73306  0.07840  0.03840  Biso   1.000  C
  H70      1.0000 0.72480  0.12720  0.00720  Biso   1.000  H
  C105     1.0000 0.74273  0.09480  0.11140  Biso   1.000  C
  H71      1.0000 0.74040  0.15390  0.12830  Biso   1.000  H
  C106     1.0000 0.75557  0.02180  0.15700  Biso   1.000  C
  H72      1.0000 0.76160  0.03220  0.20470  Biso   1.000  H
  Co3      1.0000 0.58230  0.46800  0.11790  Biso   1.000  Co
  Co4      1.0000 0.77820  0.65190  0.17230  Biso   1.000  Co
  Zn5      1.0000 0.91776  0.96529  0.38109  Biso   1.000  Zn
  Zn6      1.0000 0.72210  0.15390  0.32938  Biso   1.000  Zn
  O17      1.0000 0.88536  0.98489  0.28491  Biso   1.000  O
  O18      1.0000 0.93276  0.95920  0.25701  Biso   1.000  O
  O19      1.0000 0.88355  0.03118  0.93280  Biso   1.000  O
  O20      1.0000 0.93325  0.03010  0.01832  Biso   1.000  O
  O21      1.0000 0.71426  0.28480  0.34250  Biso   1.000  O
  O22      1.0000 0.72440  0.36260  0.25625  Biso   1.000  O
  O23      1.0000 0.77834  0.38600  0.58007  Biso   1.000  O
  O24      1.0000 0.77408  0.53630  0.60350  Biso   1.000  O
  N17      1.0000 0.93236  0.83160  0.38840  Biso   1.000  N
  N18      1.0000 0.93124  0.68920  0.35120  Biso   1.000  N
  N19      1.0000 0.05259  0.07960  0.10217  Biso   1.000  N
  N20      1.0000 0.01674  0.18830  0.11090  Biso   1.000  N
  N21      1.0000 0.77050  0.14740  0.32371  Biso   1.000  N
  N22      1.0000 0.81549  0.17820  0.29084  Biso   1.000  N
  N23      1.0000 0.80788  0.41040  0.75608  Biso   1.000  N
  N24      1.0000 0.83609  0.44100  0.86626  Biso   1.000  N
  C107     1.0000 0.90151  0.98170  0.24113  Biso   1.000  C
  C108     1.0000 0.88187  0.00890  0.16697  Biso   1.000  C
  C109     1.0000 0.89875  0.00780  0.11742  Biso   1.000  C
  H73      1.0000 0.92200  0.99030  0.13040  Biso   1.000  H
  C110     1.0000 0.88154  0.03230  0.04890  Biso   1.000  C
  C111     1.0000 0.90136  0.03120  0.99761  Biso   1.000  C
  C112     1.0000 0.84737  0.05940  0.02960  Biso   1.000  C
  H74      1.0000 0.83570  0.07650  0.98370  Biso   1.000  H
  C113     1.0000 0.83009  0.06130  0.07950  Biso   1.000  C
  H75      1.0000 0.80700  0.07990  0.06670  Biso   1.000  H
  C114     1.0000 0.84742  0.03560  0.14750  Biso   1.000  C
  H76      1.0000 0.83590  0.03620  0.18030  Biso   1.000  H
  C115     1.0000 0.92617  0.77560  0.33350  Biso   1.000  C
  H77      1.0000 0.91900  0.79650  0.28760  Biso   1.000  H
  C116     1.0000 0.93934  0.68340  0.42150  Biso   1.000  C
  H78      1.0000 0.94310  0.62950  0.44840  Biso   1.000  H
  C117     1.0000 0.94078  0.77260  0.44430  Biso   1.000  C
  H79      1.0000 0.94660  0.79080  0.49070  Biso   1.000  H
  C118     1.0000 0.92484  0.61030  0.30264  Biso   1.000  C
  C119     1.0000 0.89252  0.60340  0.25120  Biso   1.000  C
  H80      1.0000 0.87550  0.64840  0.24770  Biso   1.000  H
  C120     1.0000 0.88615  0.52980  0.20620  Biso   1.000  C
  H81      1.0000 0.86430  0.52350  0.17320  Biso   1.000  H
  C121     1.0000 0.94311  0.47270  0.26020  Biso   1.000  C
  H82      1.0000 0.96030  0.42840  0.26360  Biso   1.000  H
  C122     1.0000 0.94983  0.54560  0.30690  Biso   1.000  C
  H83      1.0000 0.97140  0.55050  0.34130  Biso   1.000  H
  C123     1.0000 0.91157  0.46400  0.20850  Biso   1.000  C
  C124     1.0000 0.90173  0.37680  0.16075  Biso   1.000  C
  C125     1.0000 0.03025  0.10600  0.13356  Biso   1.000  C
  H84      1.0000 0.02470  0.07110  0.16730  Biso   1.000  H
  C126     1.0000 0.03219  0.22010  0.06340  Biso   1.000  C
  H85      1.0000 0.02830  0.27680  0.03980  Biso   1.000  H
  C127     1.0000 0.05368  0.15310  0.05840  Biso   1.000  C
  H86      1.0000 0.06750  0.15510  0.02980  Biso   1.000  H
  C128     1.0000 0.98964  0.23500  0.13001  Biso   1.000  C
  C129     1.0000 0.96624  0.18390  0.15110  Biso   1.000  C
  H87      1.0000 0.96850  0.11940  0.15560  Biso   1.000  H
  C130     1.0000 0.93901  0.22940  0.16560  Biso   1.000  C
  H88      1.0000 0.92340  0.19470  0.18060  Biso   1.000  H
  C131     1.0000 0.93471  0.32560  0.15823  Biso   1.000  C
  C132     1.0000 0.95919  0.37590  0.13710  Biso   1.000  C
  H89      1.0000 0.95710  0.44040  0.13250  Biso   1.000  H
  C133     1.0000 0.98635  0.33140  0.12300  Biso   1.000  C
  H90      1.0000 0.00230  0.36560  0.10880  Biso   1.000  H
  C134     1.0000 0.78384  0.20570  0.28909  Biso   1.000  C
  H91      1.0000 0.77270  0.25900  0.26640  Biso   1.000  H
  C135     1.0000 0.82318  0.09780  0.32930  Biso   1.000  C
  H92      1.0000 0.84360  0.06320  0.33990  Biso   1.000  H
  C136     1.0000 0.79526  0.07960  0.34830  Biso   1.000  C
  H93      1.0000 0.79290  0.02820  0.37450  Biso   1.000  H
  C137     1.0000 0.83748  0.22680  0.25766  Biso   1.000  C
  C138     1.0000 0.87267  0.23160  0.29034  Biso   1.000  C
  H94      1.0000 0.88260  0.20470  0.33400  Biso   1.000  H
  C139     1.0000 0.89309  0.27670  0.25790  Biso   1.000  C
  H95      1.0000 0.91700  0.27920  0.28000  Biso   1.000  H
  C140     1.0000 0.87909  0.31880  0.19274  Biso   1.000  C
  C141     1.0000 0.84314  0.31470  0.16180  Biso   1.000  C
  H96      1.0000 0.83290  0.34380  0.11910  Biso   1.000  H
  C142     1.0000 0.82238  0.26780  0.19376  Biso   1.000  C
  H97      1.0000 0.79850  0.26420  0.17200  Biso   1.000  H
  C143     1.0000 0.82238  0.37420  0.81859  Biso   1.000  C
  H98      1.0000 0.82300  0.31070  0.82850  Biso   1.000  H
  C144     1.0000 0.82983  0.52460  0.83210  Biso   1.000  C
  H99      1.0000 0.83650  0.58310  0.85160  Biso   1.000  H
  C145     1.0000 0.81206  0.50620  0.76440  Biso   1.000  C
  H100     1.0000 0.80400  0.55040  0.72920  Biso   1.000  H
  C146     1.0000 0.85237  0.42580  0.93963  Biso   1.000  C
  C147     1.0000 0.86666  0.50020  0.98270  Biso   1.000  C
  H101     1.0000 0.86600  0.55990  0.96430  Biso   1.000  H
  C148     1.0000 0.88200  0.48470  0.05395  Biso   1.000  C
  H102     1.0000 0.89170  0.53500  0.08260  Biso   1.000  H
  C149     1.0000 0.88332  0.39880  0.08308  Biso   1.000  C
  C150     1.0000 0.86976  0.32530  0.03817  Biso   1.000  C
  H103     1.0000 0.87130  0.26520  0.05620  Biso   1.000  H
  C151     1.0000 0.85389  0.33850  0.96709  Biso   1.000  C
  H104     1.0000 0.84430  0.28810  0.93840  Biso   1.000  H
  C152     1.0000 0.72554  0.35550  0.31790  Biso   1.000  C
  C153     1.0000 0.74032  0.43290  0.36720  Biso   1.000  C
  C154     1.0000 0.75104  0.41920  0.43931  Biso   1.000  C
  H105     1.0000 0.74920  0.35980  0.45630  Biso   1.000  H
  C155     1.0000 0.76412  0.48990  0.48602  Biso   1.000  C
  C156     1.0000 0.77338  0.47070  0.56310  Biso   1.000  C
  C157     1.0000 0.76694  0.57840  0.46160  Biso   1.000  C
  H106     1.0000 0.77520  0.62720  0.49280  Biso   1.000  H
  C158     1.0000 0.75727  0.59480  0.38860  Biso   1.000  C
  H107     1.0000 0.75960  0.65390  0.37170  Biso   1.000  H
  C159     1.0000 0.74443  0.52180  0.34300  Biso   1.000  C
  H108     1.0000 0.73840  0.53220  0.29530  Biso   1.000  H
  Co5      1.0000 0.91770  0.96800  0.38210  Biso   1.000  Co
  Co6      1.0000 0.72180  0.15190  0.32770  Biso   1.000  Co
  Zn7      1.0000 0.41776  0.46529  0.38109  Biso   1.000  Zn
  Zn8      1.0000 0.22210  0.65390  0.32938  Biso   1.000  Zn
  O25      1.0000 0.38536  0.48489  0.28491  Biso   1.000  O
  O26      1.0000 0.43276  0.45920  0.25701  Biso   1.000  O
  O27      1.0000 0.38355  0.53118  0.93280  Biso   1.000  O
  O28      1.0000 0.43325  0.53010  0.01832  Biso   1.000  O
  O29      1.0000 0.21426  0.78480  0.34250  Biso   1.000  O
  O30      1.0000 0.22440  0.86260  0.25625  Biso   1.000  O
  O31      1.0000 0.27834  0.88600  0.58007  Biso   1.000  O
  O32      1.0000 0.27408  0.03630  0.60350  Biso   1.000  O
  N25      1.0000 0.43236  0.33160  0.38840  Biso   1.000  N
  N26      1.0000 0.43124  0.18920  0.35120  Biso   1.000  N
  N27      1.0000 0.55259  0.57960  0.10217  Biso   1.000  N
  N28      1.0000 0.51674  0.68830  0.11090  Biso   1.000  N
  N29      1.0000 0.27050  0.64740  0.32371  Biso   1.000  N
  N30      1.0000 0.31549  0.67820  0.29084  Biso   1.000  N
  N31      1.0000 0.30788  0.91040  0.75608  Biso   1.000  N
  N32      1.0000 0.33609  0.94100  0.86626  Biso   1.000  N
  C160     1.0000 0.40151  0.48170  0.24113  Biso   1.000  C
  C161     1.0000 0.38187  0.50890  0.16697  Biso   1.000  C
  C162     1.0000 0.39875  0.50780  0.11742  Biso   1.000  C
  H109     1.0000 0.42200  0.49030  0.13040  Biso   1.000  H
  C163     1.0000 0.38154  0.53230  0.04890  Biso   1.000  C
  C164     1.0000 0.40136  0.53120  0.99761  Biso   1.000  C
  C165     1.0000 0.34737  0.55940  0.02960  Biso   1.000  C
  H110     1.0000 0.33570  0.57650  0.98370  Biso   1.000  H
  C166     1.0000 0.33009  0.56130  0.07950  Biso   1.000  C
  H111     1.0000 0.30700  0.57990  0.06670  Biso   1.000  H
  C167     1.0000 0.34742  0.53560  0.14750  Biso   1.000  C
  H112     1.0000 0.33590  0.53620  0.18030  Biso   1.000  H
  C168     1.0000 0.42617  0.27560  0.33350  Biso   1.000  C
  H113     1.0000 0.41900  0.29650  0.28760  Biso   1.000  H
  C169     1.0000 0.43934  0.18340  0.42150  Biso   1.000  C
  H114     1.0000 0.44310  0.12950  0.44840  Biso   1.000  H
  C170     1.0000 0.44078  0.27260  0.44430  Biso   1.000  C
  H115     1.0000 0.44660  0.29080  0.49070  Biso   1.000  H
  C171     1.0000 0.42484  0.11030  0.30264  Biso   1.000  C
  C172     1.0000 0.39252  0.10340  0.25120  Biso   1.000  C
  H116     1.0000 0.37550  0.14840  0.24770  Biso   1.000  H
  C173     1.0000 0.38615  0.02980  0.20620  Biso   1.000  C
  H117     1.0000 0.36430  0.02350  0.17320  Biso   1.000  H
  C174     1.0000 0.44311  0.97270  0.26020  Biso   1.000  C
  H118     1.0000 0.46030  0.92840  0.26360  Biso   1.000  H
  C175     1.0000 0.44983  0.04560  0.30690  Biso   1.000  C
  H119     1.0000 0.47140  0.05050  0.34130  Biso   1.000  H
  C176     1.0000 0.41157  0.96400  0.20850  Biso   1.000  C
  C177     1.0000 0.40173  0.87680  0.16075  Biso   1.000  C
  C178     1.0000 0.53025  0.60600  0.13356  Biso   1.000  C
  H120     1.0000 0.52470  0.57110  0.16730  Biso   1.000  H
  C179     1.0000 0.53219  0.72010  0.06340  Biso   1.000  C
  H121     1.0000 0.52830  0.77680  0.03980  Biso   1.000  H
  C180     1.0000 0.55368  0.65310  0.05840  Biso   1.000  C
  H122     1.0000 0.56750  0.65510  0.02980  Biso   1.000  H
  C181     1.0000 0.48964  0.73500  0.13001  Biso   1.000  C
  C182     1.0000 0.46624  0.68390  0.15110  Biso   1.000  C
  H123     1.0000 0.46850  0.61940  0.15560  Biso   1.000  H
  C183     1.0000 0.43901  0.72940  0.16560  Biso   1.000  C
  H124     1.0000 0.42340  0.69470  0.18060  Biso   1.000  H
  C184     1.0000 0.43471  0.82560  0.15823  Biso   1.000  C
  C185     1.0000 0.45919  0.87590  0.13710  Biso   1.000  C
  H125     1.0000 0.45710  0.94040  0.13250  Biso   1.000  H
  C186     1.0000 0.48635  0.83140  0.12300  Biso   1.000  C
  H126     1.0000 0.50230  0.86560  0.10880  Biso   1.000  H
  C187     1.0000 0.28384  0.70570  0.28909  Biso   1.000  C
  H127     1.0000 0.27270  0.75900  0.26640  Biso   1.000  H
  C188     1.0000 0.32318  0.59780  0.32930  Biso   1.000  C
  H128     1.0000 0.34360  0.56320  0.33990  Biso   1.000  H
  C189     1.0000 0.29526  0.57960  0.34830  Biso   1.000  C
  H129     1.0000 0.29290  0.52820  0.37450  Biso   1.000  H
  C190     1.0000 0.33748  0.72680  0.25766  Biso   1.000  C
  C191     1.0000 0.37267  0.73160  0.29034  Biso   1.000  C
  H130     1.0000 0.38260  0.70470  0.33400  Biso   1.000  H
  C192     1.0000 0.39309  0.77670  0.25790  Biso   1.000  C
  H131     1.0000 0.41700  0.77920  0.28000  Biso   1.000  H
  C193     1.0000 0.37909  0.81880  0.19274  Biso   1.000  C
  C194     1.0000 0.34314  0.81470  0.16180  Biso   1.000  C
  H132     1.0000 0.33290  0.84380  0.11910  Biso   1.000  H
  C195     1.0000 0.32238  0.76780  0.19376  Biso   1.000  C
  H133     1.0000 0.29850  0.76420  0.17200  Biso   1.000  H
  C196     1.0000 0.32238  0.87420  0.81859  Biso   1.000  C
  H134     1.0000 0.32300  0.81070  0.82850  Biso   1.000  H
  C197     1.0000 0.32983  0.02460  0.83210  Biso   1.000  C
  H135     1.0000 0.33650  0.08310  0.85160  Biso   1.000  H
  C198     1.0000 0.31206  0.00620  0.76440  Biso   1.000  C
  H136     1.0000 0.30400  0.05040  0.72920  Biso   1.000  H
  C199     1.0000 0.35237  0.92580  0.93963  Biso   1.000  C
  C200     1.0000 0.36666  0.00020  0.98270  Biso   1.000  C
  H137     1.0000 0.36600  0.05990  0.96430  Biso   1.000  H
  C201     1.0000 0.38200  0.98470  0.05395  Biso   1.000  C
  H138     1.0000 0.39170  0.03500  0.08260  Biso   1.000  H
  C202     1.0000 0.38332  0.89880  0.08308  Biso   1.000  C
  C203     1.0000 0.36976  0.82530  0.03817  Biso   1.000  C
  H139     1.0000 0.37130  0.76520  0.05620  Biso   1.000  H
  C204     1.0000 0.35389  0.83850  0.96709  Biso   1.000  C
  H140     1.0000 0.34430  0.78810  0.93840  Biso   1.000  H
  C205     1.0000 0.22554  0.85550  0.31790  Biso   1.000  C
  C206     1.0000 0.24032  0.93290  0.36720  Biso   1.000  C
  C207     1.0000 0.25104  0.91920  0.43931  Biso   1.000  C
  H141     1.0000 0.24920  0.85980  0.45630  Biso   1.000  H
  C208     1.0000 0.26412  0.98990  0.48602  Biso   1.000  C
  C209     1.0000 0.27338  0.97070  0.56310  Biso   1.000  C
  C210     1.0000 0.26694  0.07840  0.46160  Biso   1.000  C
  H142     1.0000 0.27520  0.12720  0.49280  Biso   1.000  H
  C211     1.0000 0.25727  0.09480  0.38860  Biso   1.000  C
  H143     1.0000 0.25960  0.15390  0.37170  Biso   1.000  H
  C212     1.0000 0.24443  0.02180  0.34300  Biso   1.000  C
  H144     1.0000 0.23840  0.03220  0.29530  Biso   1.000  H
  Co7      1.0000 0.41770  0.46800  0.38210  Biso   1.000  Co
  Co8      1.0000 0.22180  0.65190  0.32770  Biso   1.000  Co
  Zn9      1.0000 0.91776  0.03471  0.88109  Biso   1.000  Zn
  Zn10     1.0000 0.72210  0.84610  0.82938  Biso   1.000  Zn
  O33      1.0000 0.88536  0.01511  0.78491  Biso   1.000  O
  O34      1.0000 0.93276  0.04080  0.75701  Biso   1.000  O
  O35      1.0000 0.88355  0.96882  0.43280  Biso   1.000  O
  O36      1.0000 0.93325  0.96990  0.51832  Biso   1.000  O
  O37      1.0000 0.71426  0.71520  0.84250  Biso   1.000  O
  O38      1.0000 0.72440  0.63740  0.75625  Biso   1.000  O
  O39      1.0000 0.77834  0.61400  0.08007  Biso   1.000  O
  O40      1.0000 0.77408  0.46370  0.10350  Biso   1.000  O
  N33      1.0000 0.93236  0.16840  0.88840  Biso   1.000  N
  N34      1.0000 0.93124  0.31080  0.85120  Biso   1.000  N
  N35      1.0000 0.05259  0.92040  0.60217  Biso   1.000  N
  N36      1.0000 0.01674  0.81170  0.61090  Biso   1.000  N
  N37      1.0000 0.77050  0.85260  0.82371  Biso   1.000  N
  N38      1.0000 0.81549  0.82180  0.79084  Biso   1.000  N
  N39      1.0000 0.80788  0.58960  0.25608  Biso   1.000  N
  N40      1.0000 0.83609  0.55900  0.36626  Biso   1.000  N
  C213     1.0000 0.90151  0.01830  0.74113  Biso   1.000  C
  C214     1.0000 0.88187  0.99110  0.66697  Biso   1.000  C
  C215     1.0000 0.89875  0.99220  0.61742  Biso   1.000  C
  H145     1.0000 0.92200  0.00970  0.63040  Biso   1.000  H
  C216     1.0000 0.88154  0.96770  0.54890  Biso   1.000  C
  C217     1.0000 0.90136  0.96880  0.49761  Biso   1.000  C
  C218     1.0000 0.84737  0.94060  0.52960  Biso   1.000  C
  H146     1.0000 0.83570  0.92350  0.48370  Biso   1.000  H
  C219     1.0000 0.83009  0.93870  0.57950  Biso   1.000  C
  H147     1.0000 0.80700  0.92010  0.56670  Biso   1.000  H
  C220     1.0000 0.84742  0.96440  0.64750  Biso   1.000  C
  H148     1.0000 0.83590  0.96380  0.68030  Biso   1.000  H
  C221     1.0000 0.92617  0.22440  0.83350  Biso   1.000  C
  H149     1.0000 0.91900  0.20350  0.78760  Biso   1.000  H
  C222     1.0000 0.93934  0.31660  0.92150  Biso   1.000  C
  H150     1.0000 0.94310  0.37050  0.94840  Biso   1.000  H
  C223     1.0000 0.94078  0.22740  0.94430  Biso   1.000  C
  H151     1.0000 0.94660  0.20920  0.99070  Biso   1.000  H
  C224     1.0000 0.92484  0.38970  0.80264  Biso   1.000  C
  C225     1.0000 0.89252  0.39660  0.75120  Biso   1.000  C
  H152     1.0000 0.87550  0.35160  0.74770  Biso   1.000  H
  C226     1.0000 0.88615  0.47020  0.70620  Biso   1.000  C
  H153     1.0000 0.86430  0.47650  0.67320  Biso   1.000  H
  C227     1.0000 0.94311  0.52730  0.76020  Biso   1.000  C
  H154     1.0000 0.96030  0.57160  0.76360  Biso   1.000  H
  C228     1.0000 0.94983  0.45440  0.80690  Biso   1.000  C
  H155     1.0000 0.97140  0.44950  0.84130  Biso   1.000  H
  C229     1.0000 0.91157  0.53600  0.70850  Biso   1.000  C
  C230     1.0000 0.90173  0.62320  0.66075  Biso   1.000  C
  C231     1.0000 0.03025  0.89400  0.63356  Biso   1.000  C
  H156     1.0000 0.02470  0.92890  0.66730  Biso   1.000  H
  C232     1.0000 0.03219  0.77990  0.56340  Biso   1.000  C
  H157     1.0000 0.02830  0.72320  0.53980  Biso   1.000  H
  C233     1.0000 0.05368  0.84690  0.55840  Biso   1.000  C
  H158     1.0000 0.06750  0.84490  0.52980  Biso   1.000  H
  C234     1.0000 0.98964  0.76500  0.63001  Biso   1.000  C
  C235     1.0000 0.96624  0.81610  0.65110  Biso   1.000  C
  H159     1.0000 0.96850  0.88060  0.65560  Biso   1.000  H
  C236     1.0000 0.93901  0.77060  0.66560  Biso   1.000  C
  H160     1.0000 0.92340  0.80530  0.68060  Biso   1.000  H
  C237     1.0000 0.93471  0.67440  0.65823  Biso   1.000  C
  C238     1.0000 0.95919  0.62410  0.63710  Biso   1.000  C
  H161     1.0000 0.95710  0.55960  0.63250  Biso   1.000  H
  C239     1.0000 0.98635  0.66860  0.62300  Biso   1.000  C
  H162     1.0000 0.00230  0.63440  0.60880  Biso   1.000  H
  C240     1.0000 0.78384  0.79430  0.78909  Biso   1.000  C
  H163     1.0000 0.77270  0.74100  0.76640  Biso   1.000  H
  C241     1.0000 0.82318  0.90220  0.82930  Biso   1.000  C
  H164     1.0000 0.84360  0.93680  0.83990  Biso   1.000  H
  C242     1.0000 0.79526  0.92040  0.84830  Biso   1.000  C
  H165     1.0000 0.79290  0.97180  0.87450  Biso   1.000  H
  C243     1.0000 0.83748  0.77320  0.75766  Biso   1.000  C
  C244     1.0000 0.87267  0.76840  0.79034  Biso   1.000  C
  H166     1.0000 0.88260  0.79530  0.83400  Biso   1.000  H
  C245     1.0000 0.89309  0.72330  0.75790  Biso   1.000  C
  H167     1.0000 0.91700  0.72080  0.78000  Biso   1.000  H
  C246     1.0000 0.87909  0.68120  0.69274  Biso   1.000  C
  C247     1.0000 0.84314  0.68530  0.66180  Biso   1.000  C
  H168     1.0000 0.83290  0.65620  0.61910  Biso   1.000  H
  C248     1.0000 0.82238  0.73220  0.69376  Biso   1.000  C
  H169     1.0000 0.79850  0.73580  0.67200  Biso   1.000  H
  C249     1.0000 0.82238  0.62580  0.31859  Biso   1.000  C
  H170     1.0000 0.82300  0.68930  0.32850  Biso   1.000  H
  C250     1.0000 0.82983  0.47540  0.33210  Biso   1.000  C
  H171     1.0000 0.83650  0.41690  0.35160  Biso   1.000  H
  C251     1.0000 0.81206  0.49380  0.26440  Biso   1.000  C
  H172     1.0000 0.80400  0.44960  0.22920  Biso   1.000  H
  C252     1.0000 0.85237  0.57420  0.43963  Biso   1.000  C
  C253     1.0000 0.86666  0.49980  0.48270  Biso   1.000  C
  H173     1.0000 0.86600  0.44010  0.46430  Biso   1.000  H
  C254     1.0000 0.88200  0.51530  0.55395  Biso   1.000  C
  H174     1.0000 0.89170  0.46500  0.58260  Biso   1.000  H
  C255     1.0000 0.88332  0.60120  0.58308  Biso   1.000  C
  C256     1.0000 0.86976  0.67470  0.53817  Biso   1.000  C
  H175     1.0000 0.87130  0.73480  0.55620  Biso   1.000  H
  C257     1.0000 0.85389  0.66150  0.46709  Biso   1.000  C
  H176     1.0000 0.84430  0.71190  0.43840  Biso   1.000  H
  C258     1.0000 0.72554  0.64450  0.81790  Biso   1.000  C
  C259     1.0000 0.74032  0.56710  0.86720  Biso   1.000  C
  C260     1.0000 0.75104  0.58080  0.93931  Biso   1.000  C
  H177     1.0000 0.74920  0.64020  0.95630  Biso   1.000  H
  C261     1.0000 0.76412  0.51010  0.98602  Biso   1.000  C
  C262     1.0000 0.77338  0.52930  0.06310  Biso   1.000  C
  C263     1.0000 0.76694  0.42160  0.96160  Biso   1.000  C
  H178     1.0000 0.77520  0.37280  0.99280  Biso   1.000  H
  C264     1.0000 0.75727  0.40520  0.88860  Biso   1.000  C
  H179     1.0000 0.75960  0.34610  0.87170  Biso   1.000  H
  C265     1.0000 0.74443  0.47820  0.84300  Biso   1.000  C
  H180     1.0000 0.73840  0.46780  0.79530  Biso   1.000  H
  Co9      1.0000 0.91770  0.03200  0.88210  Biso   1.000  Co
  Co10     1.0000 0.72180  0.84810  0.82770  Biso   1.000  Co
  Zn11     1.0000 0.41776  0.53471  0.88109  Biso   1.000  Zn
  Zn12     1.0000 0.22210  0.34610  0.82938  Biso   1.000  Zn
  O41      1.0000 0.38536  0.51511  0.78491  Biso   1.000  O
  O42      1.0000 0.43276  0.54080  0.75701  Biso   1.000  O
  O43      1.0000 0.38355  0.46882  0.43280  Biso   1.000  O
  O44      1.0000 0.43325  0.46990  0.51832  Biso   1.000  O
  O45      1.0000 0.21426  0.21520  0.84250  Biso   1.000  O
  O46      1.0000 0.22440  0.13740  0.75625  Biso   1.000  O
  O47      1.0000 0.27834  0.11400  0.08007  Biso   1.000  O
  O48      1.0000 0.27408  0.96370  0.10350  Biso   1.000  O
  N41      1.0000 0.43236  0.66840  0.88840  Biso   1.000  N
  N42      1.0000 0.43124  0.81080  0.85120  Biso   1.000  N
  N43      1.0000 0.55259  0.42040  0.60217  Biso   1.000  N
  N44      1.0000 0.51674  0.31170  0.61090  Biso   1.000  N
  N45      1.0000 0.27050  0.35260  0.82371  Biso   1.000  N
  N46      1.0000 0.31549  0.32180  0.79084  Biso   1.000  N
  N47      1.0000 0.30788  0.08960  0.25608  Biso   1.000  N
  N48      1.0000 0.33609  0.05900  0.36626  Biso   1.000  N
  C266     1.0000 0.40151  0.51830  0.74113  Biso   1.000  C
  C267     1.0000 0.38187  0.49110  0.66697  Biso   1.000  C
  C268     1.0000 0.39875  0.49220  0.61742  Biso   1.000  C
  H181     1.0000 0.42200  0.50970  0.63040  Biso   1.000  H
  C269     1.0000 0.38154  0.46770  0.54890  Biso   1.000  C
  C270     1.0000 0.40136  0.46880  0.49761  Biso   1.000  C
  C271     1.0000 0.34737  0.44060  0.52960  Biso   1.000  C
  H182     1.0000 0.33570  0.42350  0.48370  Biso   1.000  H
  C272     1.0000 0.33009  0.43870  0.57950  Biso   1.000  C
  H183     1.0000 0.30700  0.42010  0.56670  Biso   1.000  H
  C273     1.0000 0.34742  0.46440  0.64750  Biso   1.000  C
  H184     1.0000 0.33590  0.46380  0.68030  Biso   1.000  H
  C274     1.0000 0.42617  0.72440  0.83350  Biso   1.000  C
  H185     1.0000 0.41900  0.70350  0.78760  Biso   1.000  H
  C275     1.0000 0.43934  0.81660  0.92150  Biso   1.000  C
  H186     1.0000 0.44310  0.87050  0.94840  Biso   1.000  H
  C276     1.0000 0.44078  0.72740  0.94430  Biso   1.000  C
  H187     1.0000 0.44660  0.70920  0.99070  Biso   1.000  H
  C277     1.0000 0.42484  0.88970  0.80264  Biso   1.000  C
  C278     1.0000 0.39252  0.89660  0.75120  Biso   1.000  C
  H188     1.0000 0.37550  0.85160  0.74770  Biso   1.000  H
  C279     1.0000 0.38615  0.97020  0.70620  Biso   1.000  C
  H189     1.0000 0.36430  0.97650  0.67320  Biso   1.000  H
  C280     1.0000 0.44311  0.02730  0.76020  Biso   1.000  C
  H190     1.0000 0.46030  0.07160  0.76360  Biso   1.000  H
  C281     1.0000 0.44983  0.95440  0.80690  Biso   1.000  C
  H191     1.0000 0.47140  0.94950  0.84130  Biso   1.000  H
  C282     1.0000 0.41157  0.03600  0.70850  Biso   1.000  C
  C283     1.0000 0.40173  0.12320  0.66075  Biso   1.000  C
  C284     1.0000 0.53025  0.39400  0.63356  Biso   1.000  C
  H192     1.0000 0.52470  0.42890  0.66730  Biso   1.000  H
  C285     1.0000 0.53219  0.27990  0.56340  Biso   1.000  C
  H193     1.0000 0.52830  0.22320  0.53980  Biso   1.000  H
  C286     1.0000 0.55368  0.34690  0.55840  Biso   1.000  C
  H194     1.0000 0.56750  0.34490  0.52980  Biso   1.000  H
  C287     1.0000 0.48964  0.26500  0.63001  Biso   1.000  C
  C288     1.0000 0.46624  0.31610  0.65110  Biso   1.000  C
  H195     1.0000 0.46850  0.38060  0.65560  Biso   1.000  H
  C289     1.0000 0.43901  0.27060  0.66560  Biso   1.000  C
  H196     1.0000 0.42340  0.30530  0.68060  Biso   1.000  H
  C290     1.0000 0.43471  0.17440  0.65823  Biso   1.000  C
  C291     1.0000 0.45919  0.12410  0.63710  Biso   1.000  C
  H197     1.0000 0.45710  0.05960  0.63250  Biso   1.000  H
  C292     1.0000 0.48635  0.16860  0.62300  Biso   1.000  C
  H198     1.0000 0.50230  0.13440  0.60880  Biso   1.000  H
  C293     1.0000 0.28384  0.29430  0.78909  Biso   1.000  C
  H199     1.0000 0.27270  0.24100  0.76640  Biso   1.000  H
  C294     1.0000 0.32318  0.40220  0.82930  Biso   1.000  C
  H200     1.0000 0.34360  0.43680  0.83990  Biso   1.000  H
  C295     1.0000 0.29526  0.42040  0.84830  Biso   1.000  C
  H201     1.0000 0.29290  0.47180  0.87450  Biso   1.000  H
  C296     1.0000 0.33748  0.27320  0.75766  Biso   1.000  C
  C297     1.0000 0.37267  0.26840  0.79034  Biso   1.000  C
  H202     1.0000 0.38260  0.29530  0.83400  Biso   1.000  H
  C298     1.0000 0.39309  0.22330  0.75790  Biso   1.000  C
  H203     1.0000 0.41700  0.22080  0.78000  Biso   1.000  H
  C299     1.0000 0.37909  0.18120  0.69274  Biso   1.000  C
  C300     1.0000 0.34314  0.18530  0.66180  Biso   1.000  C
  H204     1.0000 0.33290  0.15620  0.61910  Biso   1.000  H
  C301     1.0000 0.32238  0.23220  0.69376  Biso   1.000  C
  H205     1.0000 0.29850  0.23580  0.67200  Biso   1.000  H
  C302     1.0000 0.32238  0.12580  0.31859  Biso   1.000  C
  H206     1.0000 0.32300  0.18930  0.32850  Biso   1.000  H
  C303     1.0000 0.32983  0.97540  0.33210  Biso   1.000  C
  H207     1.0000 0.33650  0.91690  0.35160  Biso   1.000  H
  C304     1.0000 0.31206  0.99380  0.26440  Biso   1.000  C
  H208     1.0000 0.30400  0.94960  0.22920  Biso   1.000  H
  C305     1.0000 0.35237  0.07420  0.43963  Biso   1.000  C
  C306     1.0000 0.36666  0.99980  0.48270  Biso   1.000  C
  H209     1.0000 0.36600  0.94010  0.46430  Biso   1.000  H
  C307     1.0000 0.38200  0.01530  0.55395  Biso   1.000  C
  H210     1.0000 0.39170  0.96500  0.58260  Biso   1.000  H
  C308     1.0000 0.38332  0.10120  0.58308  Biso   1.000  C
  C309     1.0000 0.36976  0.17470  0.53817  Biso   1.000  C
  H211     1.0000 0.37130  0.23480  0.55620  Biso   1.000  H
  C310     1.0000 0.35389  0.16150  0.46709  Biso   1.000  C
  H212     1.0000 0.34430  0.21190  0.43840  Biso   1.000  H
  C311     1.0000 0.22554  0.14450  0.81790  Biso   1.000  C
  C312     1.0000 0.24032  0.06710  0.86720  Biso   1.000  C
  C313     1.0000 0.25104  0.08080  0.93931  Biso   1.000  C
  H213     1.0000 0.24920  0.14020  0.95630  Biso   1.000  H
  C314     1.0000 0.26412  0.01010  0.98602  Biso   1.000  C
  C315     1.0000 0.27338  0.02930  0.06310  Biso   1.000  C
  C316     1.0000 0.26694  0.92160  0.96160  Biso   1.000  C
  H214     1.0000 0.27520  0.87280  0.99280  Biso   1.000  H
  C317     1.0000 0.25727  0.90520  0.88860  Biso   1.000  C
  H215     1.0000 0.25960  0.84610  0.87170  Biso   1.000  H
  C318     1.0000 0.24443  0.97820  0.84300  Biso   1.000  C
  H216     1.0000 0.23840  0.96780  0.79530  Biso   1.000  H
  Co11     1.0000 0.41770  0.53200  0.88210  Biso   1.000  Co
  Co12     1.0000 0.22180  0.34810  0.82770  Biso   1.000  Co
  Zn13     1.0000 0.08224  0.03471  0.61891  Biso   1.000  Zn
  Zn14     1.0000 0.27790  0.84610  0.67062  Biso   1.000  Zn
  O49      1.0000 0.11464  0.01511  0.71509  Biso   1.000  O
  O50      1.0000 0.06724  0.04080  0.74299  Biso   1.000  O
  O51      1.0000 0.11645  0.96882  0.06720  Biso   1.000  O
  O52      1.0000 0.06675  0.96990  0.98168  Biso   1.000  O
  O53      1.0000 0.28574  0.71520  0.65750  Biso   1.000  O
  O54      1.0000 0.27560  0.63740  0.74375  Biso   1.000  O
  O55      1.0000 0.22166  0.61400  0.41993  Biso   1.000  O
  O56      1.0000 0.22592  0.46370  0.39650  Biso   1.000  O
  N49      1.0000 0.06764  0.16840  0.61160  Biso   1.000  N
  N50      1.0000 0.06876  0.31080  0.64880  Biso   1.000  N
  N51      1.0000 0.94741  0.92040  0.89783  Biso   1.000  N
  N52      1.0000 0.98326  0.81170  0.88910  Biso   1.000  N
  N53      1.0000 0.22950  0.85260  0.67629  Biso   1.000  N
  N54      1.0000 0.18451  0.82180  0.70916  Biso   1.000  N
  N55      1.0000 0.19212  0.58960  0.24392  Biso   1.000  N
  N56      1.0000 0.16391  0.55900  0.13374  Biso   1.000  N
  C319     1.0000 0.09849  0.01830  0.75887  Biso   1.000  C
  C320     1.0000 0.11813  0.99110  0.83303  Biso   1.000  C
  C321     1.0000 0.10125  0.99220  0.88258  Biso   1.000  C
  H217     1.0000 0.07800  0.00970  0.86960  Biso   1.000  H
  C322     1.0000 0.11846  0.96770  0.95110  Biso   1.000  C
  C323     1.0000 0.09864  0.96880  0.00239  Biso   1.000  C
  C324     1.0000 0.15263  0.94060  0.97040  Biso   1.000  C
  H218     1.0000 0.16430  0.92350  0.01630  Biso   1.000  H
  C325     1.0000 0.16991  0.93870  0.92050  Biso   1.000  C
  H219     1.0000 0.19300  0.92010  0.93330  Biso   1.000  H
  C326     1.0000 0.15258  0.96440  0.85250  Biso   1.000  C
  H220     1.0000 0.16410  0.96380  0.81970  Biso   1.000  H
  C327     1.0000 0.07383  0.22440  0.66650  Biso   1.000  C
  H221     1.0000 0.08100  0.20350  0.71240  Biso   1.000  H
  C328     1.0000 0.06066  0.31660  0.57850  Biso   1.000  C
  H222     1.0000 0.05690  0.37050  0.55160  Biso   1.000  H
  C329     1.0000 0.05922  0.22740  0.55570  Biso   1.000  C
  H223     1.0000 0.05340  0.20920  0.50930  Biso   1.000  H
  C330     1.0000 0.07516  0.38970  0.69736  Biso   1.000  C
  C331     1.0000 0.10748  0.39660  0.74880  Biso   1.000  C
  H224     1.0000 0.12450  0.35160  0.75230  Biso   1.000  H
  C332     1.0000 0.11385  0.47020  0.79380  Biso   1.000  C
  H225     1.0000 0.13570  0.47650  0.82680  Biso   1.000  H
  C333     1.0000 0.05689  0.52730  0.73980  Biso   1.000  C
  H226     1.0000 0.03970  0.57160  0.73640  Biso   1.000  H
  C334     1.0000 0.05017  0.45440  0.69310  Biso   1.000  C
  H227     1.0000 0.02860  0.44950  0.65870  Biso   1.000  H
  C335     1.0000 0.08843  0.53600  0.79150  Biso   1.000  C
  C336     1.0000 0.09827  0.62320  0.83925  Biso   1.000  C
  C337     1.0000 0.96975  0.89400  0.86644  Biso   1.000  C
  H228     1.0000 0.97530  0.92890  0.83270  Biso   1.000  H
  C338     1.0000 0.96781  0.77990  0.93660  Biso   1.000  C
  H229     1.0000 0.97170  0.72320  0.96020  Biso   1.000  H
  C339     1.0000 0.94632  0.84690  0.94160  Biso   1.000  C
  H230     1.0000 0.93250  0.84490  0.97020  Biso   1.000  H
  C340     1.0000 0.01036  0.76500  0.86999  Biso   1.000  C
  C341     1.0000 0.03376  0.81610  0.84890  Biso   1.000  C
  H231     1.0000 0.03150  0.88060  0.84440  Biso   1.000  H
  C342     1.0000 0.06099  0.77060  0.83440  Biso   1.000  C
  H232     1.0000 0.07660  0.80530  0.81940  Biso   1.000  H
  C343     1.0000 0.06529  0.67440  0.84177  Biso   1.000  C
  C344     1.0000 0.04081  0.62410  0.86290  Biso   1.000  C
  H233     1.0000 0.04290  0.55960  0.86750  Biso   1.000  H
  C345     1.0000 0.01365  0.66860  0.87700  Biso   1.000  C
  H234     1.0000 0.99770  0.63440  0.89120  Biso   1.000  H
  C346     1.0000 0.21616  0.79430  0.71091  Biso   1.000  C
  H235     1.0000 0.22730  0.74100  0.73360  Biso   1.000  H
  C347     1.0000 0.17682  0.90220  0.67070  Biso   1.000  C
  H236     1.0000 0.15640  0.93680  0.66010  Biso   1.000  H
  C348     1.0000 0.20474  0.92040  0.65170  Biso   1.000  C
  H237     1.0000 0.20710  0.97180  0.62550  Biso   1.000  H
  C349     1.0000 0.16252  0.77320  0.74234  Biso   1.000  C
  C350     1.0000 0.12733  0.76840  0.70966  Biso   1.000  C
  H238     1.0000 0.11740  0.79530  0.66600  Biso   1.000  H
  C351     1.0000 0.10691  0.72330  0.74210  Biso   1.000  C
  H239     1.0000 0.08300  0.72080  0.72000  Biso   1.000  H
  C352     1.0000 0.12091  0.68120  0.80726  Biso   1.000  C
  C353     1.0000 0.15686  0.68530  0.83820  Biso   1.000  C
  H240     1.0000 0.16710  0.65620  0.88090  Biso   1.000  H
  C354     1.0000 0.17762  0.73220  0.80624  Biso   1.000  C
  H241     1.0000 0.20150  0.73580  0.82800  Biso   1.000  H
  C355     1.0000 0.17762  0.62580  0.18141  Biso   1.000  C
  H242     1.0000 0.17700  0.68930  0.17150  Biso   1.000  H
  C356     1.0000 0.17017  0.47540  0.16790  Biso   1.000  C
  H243     1.0000 0.16350  0.41690  0.14840  Biso   1.000  H
  C357     1.0000 0.18794  0.49380  0.23560  Biso   1.000  C
  H244     1.0000 0.19600  0.44960  0.27080  Biso   1.000  H
  C358     1.0000 0.14763  0.57420  0.06037  Biso   1.000  C
  C359     1.0000 0.13334  0.49980  0.01730  Biso   1.000  C
  H245     1.0000 0.13400  0.44010  0.03570  Biso   1.000  H
  C360     1.0000 0.11800  0.51530  0.94605  Biso   1.000  C
  H246     1.0000 0.10830  0.46500  0.91740  Biso   1.000  H
  C361     1.0000 0.11668  0.60120  0.91692  Biso   1.000  C
  C362     1.0000 0.13024  0.67470  0.96183  Biso   1.000  C
  H247     1.0000 0.12870  0.73480  0.94380  Biso   1.000  H
  C363     1.0000 0.14611  0.66150  0.03291  Biso   1.000  C
  H248     1.0000 0.15570  0.71190  0.06160  Biso   1.000  H
  C364     1.0000 0.27446  0.64450  0.68210  Biso   1.000  C
  C365     1.0000 0.25968  0.56710  0.63280  Biso   1.000  C
  C366     1.0000 0.24896  0.58080  0.56069  Biso   1.000  C
  H249     1.0000 0.25080  0.64020  0.54370  Biso   1.000  H
  C367     1.0000 0.23588  0.51010  0.51398  Biso   1.000  C
  C368     1.0000 0.22662  0.52930  0.43690  Biso   1.000  C
  C369     1.0000 0.23306  0.42160  0.53840  Biso   1.000  C
  H250     1.0000 0.22480  0.37280  0.50720  Biso   1.000  H
  C370     1.0000 0.24273  0.40520  0.61140  Biso   1.000  C
  H251     1.0000 0.24040  0.34610  0.62830  Biso   1.000  H
  C371     1.0000 0.25557  0.47820  0.65700  Biso   1.000  C
  H252     1.0000 0.26160  0.46780  0.70470  Biso   1.000  H
  Co13     1.0000 0.08230  0.03200  0.61790  Biso   1.000  Co
  Co14     1.0000 0.27820  0.84810  0.67230  Biso   1.000  Co
  Zn15     1.0000 0.58224  0.53471  0.61891  Biso   1.000  Zn
  Zn16     1.0000 0.77790  0.34610  0.67062  Biso   1.000  Zn
  O57      1.0000 0.61464  0.51511  0.71509  Biso   1.000  O
  O58      1.0000 0.56724  0.54080  0.74299  Biso   1.000  O
  O59      1.0000 0.61645  0.46882  0.06720  Biso   1.000  O
  O60      1.0000 0.56675  0.46990  0.98168  Biso   1.000  O
  O61      1.0000 0.78574  0.21520  0.65750  Biso   1.000  O
  O62      1.0000 0.77560  0.13740  0.74375  Biso   1.000  O
  O63      1.0000 0.72166  0.11400  0.41993  Biso   1.000  O
  O64      1.0000 0.72592  0.96370  0.39650  Biso   1.000  O
  N57      1.0000 0.56764  0.66840  0.61160  Biso   1.000  N
  N58      1.0000 0.56876  0.81080  0.64880  Biso   1.000  N
  N59      1.0000 0.44741  0.42040  0.89783  Biso   1.000  N
  N60      1.0000 0.48326  0.31170  0.88910  Biso   1.000  N
  N61      1.0000 0.72950  0.35260  0.67629  Biso   1.000  N
  N62      1.0000 0.68451  0.32180  0.70916  Biso   1.000  N
  N63      1.0000 0.69212  0.08960  0.24392  Biso   1.000  N
  N64      1.0000 0.66391  0.05900  0.13374  Biso   1.000  N
  C372     1.0000 0.59849  0.51830  0.75887  Biso   1.000  C
  C373     1.0000 0.61813  0.49110  0.83303  Biso   1.000  C
  C374     1.0000 0.60125  0.49220  0.88258  Biso   1.000  C
  H253     1.0000 0.57800  0.50970  0.86960  Biso   1.000  H
  C375     1.0000 0.61846  0.46770  0.95110  Biso   1.000  C
  C376     1.0000 0.59864  0.46880  0.00239  Biso   1.000  C
  C377     1.0000 0.65263  0.44060  0.97040  Biso   1.000  C
  H254     1.0000 0.66430  0.42350  0.01630  Biso   1.000  H
  C378     1.0000 0.66991  0.43870  0.92050  Biso   1.000  C
  H255     1.0000 0.69300  0.42010  0.93330  Biso   1.000  H
  C379     1.0000 0.65258  0.46440  0.85250  Biso   1.000  C
  H256     1.0000 0.66410  0.46380  0.81970  Biso   1.000  H
  C380     1.0000 0.57383  0.72440  0.66650  Biso   1.000  C
  H257     1.0000 0.58100  0.70350  0.71240  Biso   1.000  H
  C381     1.0000 0.56066  0.81660  0.57850  Biso   1.000  C
  H258     1.0000 0.55690  0.87050  0.55160  Biso   1.000  H
  C382     1.0000 0.55922  0.72740  0.55570  Biso   1.000  C
  H259     1.0000 0.55340  0.70920  0.50930  Biso   1.000  H
  C383     1.0000 0.57516  0.88970  0.69736  Biso   1.000  C
  C384     1.0000 0.60748  0.89660  0.74880  Biso   1.000  C
  H260     1.0000 0.62450  0.85160  0.75230  Biso   1.000  H
  C385     1.0000 0.61385  0.97020  0.79380  Biso   1.000  C
  H261     1.0000 0.63570  0.97650  0.82680  Biso   1.000  H
  C386     1.0000 0.55689  0.02730  0.73980  Biso   1.000  C
  H262     1.0000 0.53970  0.07160  0.73640  Biso   1.000  H
  C387     1.0000 0.55017  0.95440  0.69310  Biso   1.000  C
  H263     1.0000 0.52860  0.94950  0.65870  Biso   1.000  H
  C388     1.0000 0.58843  0.03600  0.79150  Biso   1.000  C
  C389     1.0000 0.59827  0.12320  0.83925  Biso   1.000  C
  C390     1.0000 0.46975  0.39400  0.86644  Biso   1.000  C
  H264     1.0000 0.47530  0.42890  0.83270  Biso   1.000  H
  C391     1.0000 0.46781  0.27990  0.93660  Biso   1.000  C
  H265     1.0000 0.47170  0.22320  0.96020  Biso   1.000  H
  C392     1.0000 0.44632  0.34690  0.94160  Biso   1.000  C
  H266     1.0000 0.43250  0.34490  0.97020  Biso   1.000  H
  C393     1.0000 0.51036  0.26500  0.86999  Biso   1.000  C
  C394     1.0000 0.53376  0.31610  0.84890  Biso   1.000  C
  H267     1.0000 0.53150  0.38060  0.84440  Biso   1.000  H
  C395     1.0000 0.56099  0.27060  0.83440  Biso   1.000  C
  H268     1.0000 0.57660  0.30530  0.81940  Biso   1.000  H
  C396     1.0000 0.56529  0.17440  0.84177  Biso   1.000  C
  C397     1.0000 0.54081  0.12410  0.86290  Biso   1.000  C
  H269     1.0000 0.54290  0.05960  0.86750  Biso   1.000  H
  C398     1.0000 0.51365  0.16860  0.87700  Biso   1.000  C
  H270     1.0000 0.49770  0.13440  0.89120  Biso   1.000  H
  C399     1.0000 0.71616  0.29430  0.71091  Biso   1.000  C
  H271     1.0000 0.72730  0.24100  0.73360  Biso   1.000  H
  C400     1.0000 0.67682  0.40220  0.67070  Biso   1.000  C
  H272     1.0000 0.65640  0.43680  0.66010  Biso   1.000  H
  C401     1.0000 0.70474  0.42040  0.65170  Biso   1.000  C
  H273     1.0000 0.70710  0.47180  0.62550  Biso   1.000  H
  C402     1.0000 0.66252  0.27320  0.74234  Biso   1.000  C
  C403     1.0000 0.62733  0.26840  0.70966  Biso   1.000  C
  H274     1.0000 0.61740  0.29530  0.66600  Biso   1.000  H
  C404     1.0000 0.60691  0.22330  0.74210  Biso   1.000  C
  H275     1.0000 0.58300  0.22080  0.72000  Biso   1.000  H
  C405     1.0000 0.62091  0.18120  0.80726  Biso   1.000  C
  C406     1.0000 0.65686  0.18530  0.83820  Biso   1.000  C
  H276     1.0000 0.66710  0.15620  0.88090  Biso   1.000  H
  C407     1.0000 0.67762  0.23220  0.80624  Biso   1.000  C
  H277     1.0000 0.70150  0.23580  0.82800  Biso   1.000  H
  C408     1.0000 0.67762  0.12580  0.18141  Biso   1.000  C
  H278     1.0000 0.67700  0.18930  0.17150  Biso   1.000  H
  C409     1.0000 0.67017  0.97540  0.16790  Biso   1.000  C
  H279     1.0000 0.66350  0.91690  0.14840  Biso   1.000  H
  C410     1.0000 0.68794  0.99380  0.23560  Biso   1.000  C
  H280     1.0000 0.69600  0.94960  0.27080  Biso   1.000  H
  C411     1.0000 0.64763  0.07420  0.06037  Biso   1.000  C
  C412     1.0000 0.63334  0.99980  0.01730  Biso   1.000  C
  H281     1.0000 0.63400  0.94010  0.03570  Biso   1.000  H
  C413     1.0000 0.61800  0.01530  0.94605  Biso   1.000  C
  H282     1.0000 0.60830  0.96500  0.91740  Biso   1.000  H
  C414     1.0000 0.61668  0.10120  0.91692  Biso   1.000  C
  C415     1.0000 0.63024  0.17470  0.96183  Biso   1.000  C
  H283     1.0000 0.62870  0.23480  0.94380  Biso   1.000  H
  C416     1.0000 0.64611  0.16150  0.03291  Biso   1.000  C
  H284     1.0000 0.65570  0.21190  0.06160  Biso   1.000  H
  C417     1.0000 0.77446  0.14450  0.68210  Biso   1.000  C
  C418     1.0000 0.75968  0.06710  0.63280  Biso   1.000  C
  C419     1.0000 0.74896  0.08080  0.56069  Biso   1.000  C
  H285     1.0000 0.75080  0.14020  0.54370  Biso   1.000  H
  C420     1.0000 0.73588  0.01010  0.51398  Biso   1.000  C
  C421     1.0000 0.72662  0.02930  0.43690  Biso   1.000  C
  C422     1.0000 0.73306  0.92160  0.53840  Biso   1.000  C
  H286     1.0000 0.72480  0.87280  0.50720  Biso   1.000  H
  C423     1.0000 0.74273  0.90520  0.61140  Biso   1.000  C
  H287     1.0000 0.74040  0.84610  0.62830  Biso   1.000  H
  C424     1.0000 0.75557  0.97820  0.65700  Biso   1.000  C
  H288     1.0000 0.76160  0.96780  0.70470  Biso   1.000  H
  Co15     1.0000 0.58230  0.53200  0.61790  Biso   1.000  Co
  Co16     1.0000 0.77820  0.34810  0.67230  Biso   1.000  Co
