data_image0
_cell_length_a       54.78
_cell_length_b       16.07
_cell_length_c       12.328
_cell_angle_alpha    90
_cell_angle_beta     96.78
_cell_angle_gamma    90

_symmetry_space_group_name_H-M    "P 1"
_symmetry_int_tables_number       1

loop_
  _symmetry_equiv_pos_as_xyz
  'x, y, z'

loop_
  _atom_site_label
  _atom_site_occupancy
  _atom_site_fract_x
  _atom_site_fract_y
  _atom_site_fract_z
  _atom_site_thermal_displace_type
  _atom_site_B_iso_or_equiv
  _atom_site_type_symbol
  Nd1      1.0000 0.77168  0.02422  0.38384  Biso   1.000  Nd
  Nd2      1.0000 0.90423  0.05331  0.18013  Biso   1.000  Nd
  Nd3      1.0000 0.82821  0.33880  0.21386  Biso   1.000  Nd
  N1       1.0000 0.81638  0.05450  0.48810  Biso   1.000  N
  C1       1.0000 0.81914  0.03340  0.59450  Biso   1.000  C
  C2       1.0000 0.84230  0.01820  0.65120  Biso   1.000  C
  H1       1.0000 0.84370  0.00790  0.72590  Biso   1.000  H
  N2       1.0000 0.86231  0.01820  0.60040  Biso   1.000  N
  C3       1.0000 0.85945  0.03980  0.49510  Biso   1.000  C
  C4       1.0000 0.83672  0.06220  0.44110  Biso   1.000  C
  H2       1.0000 0.83580  0.08300  0.37040  Biso   1.000  H
  C5       1.0000 0.79610  0.01680  0.64660  Biso   1.000  C
  O1       1.0000 0.77610  0.01460  0.58350  Biso   1.000  O
  O2       1.0000 0.79870  0.00200  0.74600  Biso   1.000  O
  C6       1.0000 0.88239  0.03440  0.43690  Biso   1.000  C
  O3       1.0000 0.90126  0.00540  0.49310  Biso   1.000  O
  O4       1.0000 0.88071  0.05510  0.33870  Biso   1.000  O
  N3       1.0000 0.75778  0.17230  0.46770  Biso   1.000  N
  C7       1.0000 0.76572  0.24240  0.42720  Biso   1.000  C
  C8       1.0000 0.75785  0.32070  0.45800  Biso   1.000  C
  H3       1.0000 0.76360  0.36830  0.42630  Biso   1.000  H
  C9       1.0000 0.78463  0.23230  0.34740  Biso   1.000  C
  O5       1.0000 0.78919  0.15760  0.32240  Biso   1.000  O
  O6       1.0000 0.79459  0.29630  0.31470  Biso   1.000  O
  N4       1.0000 0.83320  0.47270  0.08130  Biso   1.000  N
  C10      1.0000 0.81098  0.49930  0.03370  Biso   1.000  C
  C11      1.0000 0.80884  0.53990  0.93340  Biso   1.000  C
  H4       1.0000 0.79340  0.55660  0.90170  Biso   1.000  H
  N5       1.0000 0.82841  0.55540  0.88120  Biso   1.000  N
  C12      1.0000 0.85011  0.52940  0.93030  Biso   1.000  C
  C13      1.0000 0.85265  0.48880  0.03040  Biso   1.000  C
  H5       1.0000 0.86820  0.47260  0.06200  Biso   1.000  H
  C14      1.0000 0.78924  0.47810  0.09170  Biso   1.000  C
  O7       1.0000 0.76914  0.51040  0.05620  Biso   1.000  O
  O8       1.0000 0.79322  0.42990  0.17220  Biso   1.000  O
  C15      1.0000 0.87141  0.54270  0.86580  Biso   1.000  C
  O9       1.0000 0.86732  0.58570  0.78030  Biso   1.000  O
  O10      1.0000 0.89127  0.50690  0.89920  Biso   1.000  O
  N6       1.0000 0.90854  0.17490  0.02650  Biso   1.000  N
  C16      1.0000 0.89392  0.23990  0.03320  Biso   1.000  C
  C17      1.0000 0.89730  0.31480  0.97820  Biso   1.000  C
  H6       1.0000 0.88610  0.35800  0.98130  Biso   1.000  H
  N7       1.0000 0.91634  0.32490  0.92160  Biso   1.000  N
  C18      1.0000 0.93052  0.25830  0.91520  Biso   1.000  C
  C19      1.0000 0.92663  0.18320  0.96290  Biso   1.000  C
  H7       1.0000 0.93660  0.13800  0.95110  Biso   1.000  H
  C20      1.0000 0.87355  0.23110  0.10550  Biso   1.000  C
  O11      1.0000 0.87101  0.15930  0.14570  Biso   1.000  O
  O12      1.0000 0.86119  0.29420  0.11950  Biso   1.000  O
  C21      1.0000 0.95266  0.27140  0.85200  Biso   1.000  C
  O13      1.0000 0.95576  0.34440  0.81840  Biso   1.000  O
  O14      1.0000 0.96608  0.20960  0.84220  Biso   1.000  O
  N8       1.0000 0.99945  0.93640  0.07520  Biso   1.000  N
  C22      1.0000 0.98330  0.99900  0.06970  Biso   1.000  C
  C23      1.0000 0.98430  0.06290  0.99520  Biso   1.000  C
  H8       1.0000 0.97310  0.10650  0.99480  Biso   1.000  H
  C24      1.0000 0.96397  0.99590  0.14700  Biso   1.000  C
  O15      1.0000 0.96806  0.94590  0.22520  Biso   1.000  O
  O16      1.0000 0.94543  0.04120  0.12550  Biso   1.000  O
  O17      1.0000 0.90770  0.90700  0.22690  Biso   1.000  O
  O18      1.0000 0.96380  0.81450  0.09800  Biso   1.000  O
  Nd4      1.0000 0.93094  0.47201  0.84031  Biso   1.000  Nd
  N9       1.0000 0.97701  0.49060  0.94050  Biso   1.000  N
  C25      1.0000 0.97961  0.49450  0.04850  Biso   1.000  C
  C26      1.0000 0.99730  0.49550  0.89350  Biso   1.000  C
  H9       1.0000 0.99610  0.49210  0.81780  Biso   1.000  H
  C27      1.0000 0.95650  0.48820  0.10140  Biso   1.000  C
  O19      1.0000 0.93724  0.46820  0.04080  Biso   1.000  O
  O20      1.0000 0.95796  0.50310  0.20120  Biso   1.000  O
  O21      1.0000 0.94320  0.62040  0.88490  Biso   1.000  O
  O22      1.0000 0.90370  0.40270  0.70130  Biso   1.000  O
  O23      1.0000 0.91190  0.89100  0.16900  Biso   1.000  O
  N10      1.0000 0.90010  0.86600  0.22200  Biso   1.000  N
  O24      1.0000 0.88820  0.91100  0.27100  Biso   1.000  O
  O25      1.0000 0.89870  0.78100  0.23000  Biso   1.000  O
  O26      1.0000 0.88930  0.59500  0.23700  Biso   1.000  O
  N11      1.0000 0.89800  0.61500  0.16800  Biso   1.000  N
  O27      1.0000 0.91820  0.60950  0.15500  Biso   1.000  O
  O28      1.0000 0.88160  0.65100  0.07500  Biso   1.000  O
  O29      1.0000 0.93590  0.38720  0.42630  Biso   1.000  O
  O30      1.0000 0.97690  0.76200  0.10780  Biso   1.000  O
  O31      1.0000 0.00550  0.68310  0.30390  Biso   1.000  O
  Nd5      1.0000 0.27168  0.52422  0.38384  Biso   1.000  Nd
  Nd6      1.0000 0.40423  0.55331  0.18013  Biso   1.000  Nd
  Nd7      1.0000 0.32821  0.83880  0.21386  Biso   1.000  Nd
  N12      1.0000 0.31638  0.55450  0.48810  Biso   1.000  N
  C28      1.0000 0.31914  0.53340  0.59450  Biso   1.000  C
  C29      1.0000 0.34230  0.51820  0.65120  Biso   1.000  C
  H10      1.0000 0.34370  0.50790  0.72590  Biso   1.000  H
  N13      1.0000 0.36231  0.51820  0.60040  Biso   1.000  N
  C30      1.0000 0.35945  0.53980  0.49510  Biso   1.000  C
  C31      1.0000 0.33672  0.56220  0.44110  Biso   1.000  C
  H11      1.0000 0.33580  0.58300  0.37040  Biso   1.000  H
  C32      1.0000 0.29610  0.51680  0.64660  Biso   1.000  C
  O32      1.0000 0.27610  0.51460  0.58350  Biso   1.000  O
  O33      1.0000 0.29870  0.50200  0.74600  Biso   1.000  O
  C33      1.0000 0.38239  0.53440  0.43690  Biso   1.000  C
  O34      1.0000 0.40126  0.50540  0.49310  Biso   1.000  O
  O35      1.0000 0.38071  0.55510  0.33870  Biso   1.000  O
  N14      1.0000 0.25778  0.67230  0.46770  Biso   1.000  N
  C34      1.0000 0.26572  0.74240  0.42720  Biso   1.000  C
  C35      1.0000 0.25785  0.82070  0.45800  Biso   1.000  C
  H12      1.0000 0.26360  0.86830  0.42630  Biso   1.000  H
  C36      1.0000 0.28463  0.73230  0.34740  Biso   1.000  C
  O36      1.0000 0.28919  0.65760  0.32240  Biso   1.000  O
  O37      1.0000 0.29459  0.79630  0.31470  Biso   1.000  O
  N15      1.0000 0.33320  0.97270  0.08130  Biso   1.000  N
  C37      1.0000 0.31098  0.99930  0.03370  Biso   1.000  C
  C38      1.0000 0.30884  0.03990  0.93340  Biso   1.000  C
  H13      1.0000 0.29340  0.05660  0.90170  Biso   1.000  H
  N16      1.0000 0.32841  0.05540  0.88120  Biso   1.000  N
  C39      1.0000 0.35011  0.02940  0.93030  Biso   1.000  C
  C40      1.0000 0.35265  0.98880  0.03040  Biso   1.000  C
  H14      1.0000 0.36820  0.97260  0.06200  Biso   1.000  H
  C41      1.0000 0.28924  0.97810  0.09170  Biso   1.000  C
  O38      1.0000 0.26914  0.01040  0.05620  Biso   1.000  O
  O39      1.0000 0.29322  0.92990  0.17220  Biso   1.000  O
  C42      1.0000 0.37141  0.04270  0.86580  Biso   1.000  C
  O40      1.0000 0.36732  0.08570  0.78030  Biso   1.000  O
  O41      1.0000 0.39127  0.00690  0.89920  Biso   1.000  O
  N17      1.0000 0.40854  0.67490  0.02650  Biso   1.000  N
  C43      1.0000 0.39392  0.73990  0.03320  Biso   1.000  C
  C44      1.0000 0.39730  0.81480  0.97820  Biso   1.000  C
  H15      1.0000 0.38610  0.85800  0.98130  Biso   1.000  H
  N18      1.0000 0.41634  0.82490  0.92160  Biso   1.000  N
  C45      1.0000 0.43052  0.75830  0.91520  Biso   1.000  C
  C46      1.0000 0.42663  0.68320  0.96290  Biso   1.000  C
  H16      1.0000 0.43660  0.63800  0.95110  Biso   1.000  H
  C47      1.0000 0.37355  0.73110  0.10550  Biso   1.000  C
  O42      1.0000 0.37101  0.65930  0.14570  Biso   1.000  O
  O43      1.0000 0.36119  0.79420  0.11950  Biso   1.000  O
  C48      1.0000 0.45266  0.77140  0.85200  Biso   1.000  C
  O44      1.0000 0.45576  0.84440  0.81840  Biso   1.000  O
  O45      1.0000 0.46608  0.70960  0.84220  Biso   1.000  O
  N19      1.0000 0.49945  0.43640  0.07520  Biso   1.000  N
  C49      1.0000 0.48330  0.49900  0.06970  Biso   1.000  C
  C50      1.0000 0.48430  0.56290  0.99520  Biso   1.000  C
  H17      1.0000 0.47310  0.60650  0.99480  Biso   1.000  H
  C51      1.0000 0.46397  0.49590  0.14700  Biso   1.000  C
  O46      1.0000 0.46806  0.44590  0.22520  Biso   1.000  O
  O47      1.0000 0.44543  0.54120  0.12550  Biso   1.000  O
  O48      1.0000 0.40770  0.40700  0.22690  Biso   1.000  O
  O49      1.0000 0.46380  0.31450  0.09800  Biso   1.000  O
  Nd8      1.0000 0.43094  0.97201  0.84031  Biso   1.000  Nd
  N20      1.0000 0.47701  0.99060  0.94050  Biso   1.000  N
  C52      1.0000 0.47961  0.99450  0.04850  Biso   1.000  C
  C53      1.0000 0.49730  0.99550  0.89350  Biso   1.000  C
  H18      1.0000 0.49610  0.99210  0.81780  Biso   1.000  H
  C54      1.0000 0.45650  0.98820  0.10140  Biso   1.000  C
  O50      1.0000 0.43724  0.96820  0.04080  Biso   1.000  O
  O51      1.0000 0.45796  0.00310  0.20120  Biso   1.000  O
  O52      1.0000 0.44320  0.12040  0.88490  Biso   1.000  O
  O53      1.0000 0.40370  0.90270  0.70130  Biso   1.000  O
  O54      1.0000 0.41190  0.39100  0.16900  Biso   1.000  O
  N21      1.0000 0.40010  0.36600  0.22200  Biso   1.000  N
  O55      1.0000 0.38820  0.41100  0.27100  Biso   1.000  O
  O56      1.0000 0.39870  0.28100  0.23000  Biso   1.000  O
  O57      1.0000 0.38930  0.09500  0.23700  Biso   1.000  O
  N22      1.0000 0.39800  0.11500  0.16800  Biso   1.000  N
  O58      1.0000 0.41820  0.10950  0.15500  Biso   1.000  O
  O59      1.0000 0.38160  0.15100  0.07500  Biso   1.000  O
  O60      1.0000 0.43590  0.88720  0.42630  Biso   1.000  O
  O61      1.0000 0.47690  0.26200  0.10780  Biso   1.000  O
  O62      1.0000 0.50550  0.18310  0.30390  Biso   1.000  O
  Nd9      1.0000 0.22832  0.02422  0.11616  Biso   1.000  Nd
  Nd10     1.0000 0.09577  0.05331  0.31987  Biso   1.000  Nd
  Nd11     1.0000 0.17179  0.33880  0.28614  Biso   1.000  Nd
  N23      1.0000 0.18362  0.05450  0.01190  Biso   1.000  N
  C55      1.0000 0.18086  0.03340  0.90550  Biso   1.000  C
  C56      1.0000 0.15770  0.01820  0.84880  Biso   1.000  C
  H19      1.0000 0.15630  0.00790  0.77410  Biso   1.000  H
  N24      1.0000 0.13769  0.01820  0.89960  Biso   1.000  N
  C57      1.0000 0.14055  0.03980  0.00490  Biso   1.000  C
  C58      1.0000 0.16328  0.06220  0.05890  Biso   1.000  C
  H20      1.0000 0.16420  0.08300  0.12960  Biso   1.000  H
  C59      1.0000 0.20390  0.01680  0.85340  Biso   1.000  C
  O63      1.0000 0.22390  0.01460  0.91650  Biso   1.000  O
  O64      1.0000 0.20130  0.00200  0.75400  Biso   1.000  O
  C60      1.0000 0.11761  0.03440  0.06310  Biso   1.000  C
  O65      1.0000 0.09874  0.00540  0.00690  Biso   1.000  O
  O66      1.0000 0.11929  0.05510  0.16130  Biso   1.000  O
  N25      1.0000 0.24222  0.17230  0.03230  Biso   1.000  N
  C61      1.0000 0.23428  0.24240  0.07280  Biso   1.000  C
  C62      1.0000 0.24215  0.32070  0.04200  Biso   1.000  C
  H21      1.0000 0.23640  0.36830  0.07370  Biso   1.000  H
  C63      1.0000 0.21537  0.23230  0.15260  Biso   1.000  C
  O67      1.0000 0.21081  0.15760  0.17760  Biso   1.000  O
  O68      1.0000 0.20541  0.29630  0.18530  Biso   1.000  O
  N26      1.0000 0.16680  0.47270  0.41870  Biso   1.000  N
  C64      1.0000 0.18902  0.49930  0.46630  Biso   1.000  C
  C65      1.0000 0.19116  0.53990  0.56660  Biso   1.000  C
  H22      1.0000 0.20660  0.55660  0.59830  Biso   1.000  H
  N27      1.0000 0.17159  0.55540  0.61880  Biso   1.000  N
  C66      1.0000 0.14989  0.52940  0.56970  Biso   1.000  C
  C67      1.0000 0.14735  0.48880  0.46960  Biso   1.000  C
  H23      1.0000 0.13180  0.47260  0.43800  Biso   1.000  H
  C68      1.0000 0.21076  0.47810  0.40830  Biso   1.000  C
  O69      1.0000 0.23086  0.51040  0.44380  Biso   1.000  O
  O70      1.0000 0.20678  0.42990  0.32780  Biso   1.000  O
  C69      1.0000 0.12859  0.54270  0.63420  Biso   1.000  C
  O71      1.0000 0.13268  0.58570  0.71970  Biso   1.000  O
  O72      1.0000 0.10873  0.50690  0.60080  Biso   1.000  O
  N28      1.0000 0.09146  0.17490  0.47350  Biso   1.000  N
  C70      1.0000 0.10608  0.23990  0.46680  Biso   1.000  C
  C71      1.0000 0.10270  0.31480  0.52180  Biso   1.000  C
  H24      1.0000 0.11390  0.35800  0.51870  Biso   1.000  H
  N29      1.0000 0.08366  0.32490  0.57840  Biso   1.000  N
  C72      1.0000 0.06948  0.25830  0.58480  Biso   1.000  C
  C73      1.0000 0.07337  0.18320  0.53710  Biso   1.000  C
  H25      1.0000 0.06340  0.13800  0.54890  Biso   1.000  H
  C74      1.0000 0.12645  0.23110  0.39450  Biso   1.000  C
  O73      1.0000 0.12899  0.15930  0.35430  Biso   1.000  O
  O74      1.0000 0.13881  0.29420  0.38050  Biso   1.000  O
  C75      1.0000 0.04734  0.27140  0.64800  Biso   1.000  C
  O75      1.0000 0.04424  0.34440  0.68160  Biso   1.000  O
  O76      1.0000 0.03392  0.20960  0.65780  Biso   1.000  O
  N30      1.0000 0.00055  0.93640  0.42480  Biso   1.000  N
  C76      1.0000 0.01670  0.99900  0.43030  Biso   1.000  C
  C77      1.0000 0.01570  0.06290  0.50480  Biso   1.000  C
  H26      1.0000 0.02690  0.10650  0.50520  Biso   1.000  H
  C78      1.0000 0.03603  0.99590  0.35300  Biso   1.000  C
  O77      1.0000 0.03194  0.94590  0.27480  Biso   1.000  O
  O78      1.0000 0.05457  0.04120  0.37450  Biso   1.000  O
  O79      1.0000 0.09230  0.90700  0.27310  Biso   1.000  O
  O80      1.0000 0.03620  0.81450  0.40200  Biso   1.000  O
  Nd12     1.0000 0.06906  0.47201  0.65969  Biso   1.000  Nd
  N31      1.0000 0.02299  0.49060  0.55950  Biso   1.000  N
  C79      1.0000 0.02039  0.49450  0.45150  Biso   1.000  C
  C80      1.0000 0.00270  0.49550  0.60650  Biso   1.000  C
  H27      1.0000 0.00390  0.49210  0.68220  Biso   1.000  H
  C81      1.0000 0.04350  0.48820  0.39860  Biso   1.000  C
  O81      1.0000 0.06276  0.46820  0.45920  Biso   1.000  O
  O82      1.0000 0.04204  0.50310  0.29880  Biso   1.000  O
  O83      1.0000 0.05680  0.62040  0.61510  Biso   1.000  O
  O84      1.0000 0.09630  0.40270  0.79870  Biso   1.000  O
  O85      1.0000 0.08810  0.89100  0.33100  Biso   1.000  O
  N32      1.0000 0.09990  0.86600  0.27800  Biso   1.000  N
  O86      1.0000 0.11180  0.91100  0.22900  Biso   1.000  O
  O87      1.0000 0.10130  0.78100  0.27000  Biso   1.000  O
  O88      1.0000 0.11070  0.59500  0.26300  Biso   1.000  O
  N33      1.0000 0.10200  0.61500  0.33200  Biso   1.000  N
  O89      1.0000 0.08180  0.60950  0.34500  Biso   1.000  O
  O90      1.0000 0.11840  0.65100  0.42500  Biso   1.000  O
  O91      1.0000 0.06410  0.38720  0.07370  Biso   1.000  O
  O92      1.0000 0.02310  0.76200  0.39220  Biso   1.000  O
  O93      1.0000 0.99450  0.68310  0.19610  Biso   1.000  O
  Nd13     1.0000 0.72832  0.52422  0.11616  Biso   1.000  Nd
  Nd14     1.0000 0.59577  0.55331  0.31987  Biso   1.000  Nd
  Nd15     1.0000 0.67179  0.83880  0.28614  Biso   1.000  Nd
  N34      1.0000 0.68362  0.55450  0.01190  Biso   1.000  N
  C82      1.0000 0.68086  0.53340  0.90550  Biso   1.000  C
  C83      1.0000 0.65770  0.51820  0.84880  Biso   1.000  C
  H28      1.0000 0.65630  0.50790  0.77410  Biso   1.000  H
  N35      1.0000 0.63769  0.51820  0.89960  Biso   1.000  N
  C84      1.0000 0.64055  0.53980  0.00490  Biso   1.000  C
  C85      1.0000 0.66328  0.56220  0.05890  Biso   1.000  C
  H29      1.0000 0.66420  0.58300  0.12960  Biso   1.000  H
  C86      1.0000 0.70390  0.51680  0.85340  Biso   1.000  C
  O94      1.0000 0.72390  0.51460  0.91650  Biso   1.000  O
  O95      1.0000 0.70130  0.50200  0.75400  Biso   1.000  O
  C87      1.0000 0.61761  0.53440  0.06310  Biso   1.000  C
  O96      1.0000 0.59874  0.50540  0.00690  Biso   1.000  O
  O97      1.0000 0.61929  0.55510  0.16130  Biso   1.000  O
  N36      1.0000 0.74222  0.67230  0.03230  Biso   1.000  N
  C88      1.0000 0.73428  0.74240  0.07280  Biso   1.000  C
  C89      1.0000 0.74215  0.82070  0.04200  Biso   1.000  C
  H30      1.0000 0.73640  0.86830  0.07370  Biso   1.000  H
  C90      1.0000 0.71537  0.73230  0.15260  Biso   1.000  C
  O98      1.0000 0.71081  0.65760  0.17760  Biso   1.000  O
  O99      1.0000 0.70541  0.79630  0.18530  Biso   1.000  O
  N37      1.0000 0.66680  0.97270  0.41870  Biso   1.000  N
  C91      1.0000 0.68902  0.99930  0.46630  Biso   1.000  C
  C92      1.0000 0.69116  0.03990  0.56660  Biso   1.000  C
  H31      1.0000 0.70660  0.05660  0.59830  Biso   1.000  H
  N38      1.0000 0.67159  0.05540  0.61880  Biso   1.000  N
  C93      1.0000 0.64989  0.02940  0.56970  Biso   1.000  C
  C94      1.0000 0.64735  0.98880  0.46960  Biso   1.000  C
  H32      1.0000 0.63180  0.97260  0.43800  Biso   1.000  H
  C95      1.0000 0.71076  0.97810  0.40830  Biso   1.000  C
  O100     1.0000 0.73086  0.01040  0.44380  Biso   1.000  O
  O101     1.0000 0.70678  0.92990  0.32780  Biso   1.000  O
  C96      1.0000 0.62859  0.04270  0.63420  Biso   1.000  C
  O102     1.0000 0.63268  0.08570  0.71970  Biso   1.000  O
  O103     1.0000 0.60873  0.00690  0.60080  Biso   1.000  O
  N39      1.0000 0.59146  0.67490  0.47350  Biso   1.000  N
  C97      1.0000 0.60608  0.73990  0.46680  Biso   1.000  C
  C98      1.0000 0.60270  0.81480  0.52180  Biso   1.000  C
  H33      1.0000 0.61390  0.85800  0.51870  Biso   1.000  H
  N40      1.0000 0.58366  0.82490  0.57840  Biso   1.000  N
  C99      1.0000 0.56948  0.75830  0.58480  Biso   1.000  C
  C100     1.0000 0.57337  0.68320  0.53710  Biso   1.000  C
  H34      1.0000 0.56340  0.63800  0.54890  Biso   1.000  H
  C101     1.0000 0.62645  0.73110  0.39450  Biso   1.000  C
  O104     1.0000 0.62899  0.65930  0.35430  Biso   1.000  O
  O105     1.0000 0.63881  0.79420  0.38050  Biso   1.000  O
  C102     1.0000 0.54734  0.77140  0.64800  Biso   1.000  C
  O106     1.0000 0.54424  0.84440  0.68160  Biso   1.000  O
  O107     1.0000 0.53392  0.70960  0.65780  Biso   1.000  O
  N41      1.0000 0.50055  0.43640  0.42480  Biso   1.000  N
  C103     1.0000 0.51670  0.49900  0.43030  Biso   1.000  C
  C104     1.0000 0.51570  0.56290  0.50480  Biso   1.000  C
  H35      1.0000 0.52690  0.60650  0.50520  Biso   1.000  H
  C105     1.0000 0.53603  0.49590  0.35300  Biso   1.000  C
  O108     1.0000 0.53194  0.44590  0.27480  Biso   1.000  O
  O109     1.0000 0.55457  0.54120  0.37450  Biso   1.000  O
  O110     1.0000 0.59230  0.40700  0.27310  Biso   1.000  O
  O111     1.0000 0.53620  0.31450  0.40200  Biso   1.000  O
  Nd16     1.0000 0.56906  0.97201  0.65969  Biso   1.000  Nd
  N42      1.0000 0.52299  0.99060  0.55950  Biso   1.000  N
  C106     1.0000 0.52039  0.99450  0.45150  Biso   1.000  C
  C107     1.0000 0.50270  0.99550  0.60650  Biso   1.000  C
  H36      1.0000 0.50390  0.99210  0.68220  Biso   1.000  H
  C108     1.0000 0.54350  0.98820  0.39860  Biso   1.000  C
  O112     1.0000 0.56276  0.96820  0.45920  Biso   1.000  O
  O113     1.0000 0.54204  0.00310  0.29880  Biso   1.000  O
  O114     1.0000 0.55680  0.12040  0.61510  Biso   1.000  O
  O115     1.0000 0.59630  0.90270  0.79870  Biso   1.000  O
  O116     1.0000 0.58810  0.39100  0.33100  Biso   1.000  O
  N43      1.0000 0.59990  0.36600  0.27800  Biso   1.000  N
  O117     1.0000 0.61180  0.41100  0.22900  Biso   1.000  O
  O118     1.0000 0.60130  0.28100  0.27000  Biso   1.000  O
  O119     1.0000 0.61070  0.09500  0.26300  Biso   1.000  O
  N44      1.0000 0.60200  0.11500  0.33200  Biso   1.000  N
  O120     1.0000 0.58180  0.10950  0.34500  Biso   1.000  O
  O121     1.0000 0.61840  0.15100  0.42500  Biso   1.000  O
  O122     1.0000 0.56410  0.88720  0.07370  Biso   1.000  O
  O123     1.0000 0.52310  0.26200  0.39220  Biso   1.000  O
  O124     1.0000 0.49450  0.18310  0.19610  Biso   1.000  O
  Nd17     1.0000 0.22832  0.97578  0.61616  Biso   1.000  Nd
  Nd18     1.0000 0.09577  0.94669  0.81987  Biso   1.000  Nd
  Nd19     1.0000 0.17179  0.66120  0.78614  Biso   1.000  Nd
  N45      1.0000 0.18362  0.94550  0.51190  Biso   1.000  N
  C109     1.0000 0.18086  0.96660  0.40550  Biso   1.000  C
  C110     1.0000 0.15770  0.98180  0.34880  Biso   1.000  C
  H37      1.0000 0.15630  0.99210  0.27410  Biso   1.000  H
  N46      1.0000 0.13769  0.98180  0.39960  Biso   1.000  N
  C111     1.0000 0.14055  0.96020  0.50490  Biso   1.000  C
  C112     1.0000 0.16328  0.93780  0.55890  Biso   1.000  C
  H38      1.0000 0.16420  0.91700  0.62960  Biso   1.000  H
  C113     1.0000 0.20390  0.98320  0.35340  Biso   1.000  C
  O125     1.0000 0.22390  0.98540  0.41650  Biso   1.000  O
  O126     1.0000 0.20130  0.99800  0.25400  Biso   1.000  O
  C114     1.0000 0.11761  0.96560  0.56310  Biso   1.000  C
  O127     1.0000 0.09874  0.99460  0.50690  Biso   1.000  O
  O128     1.0000 0.11929  0.94490  0.66130  Biso   1.000  O
  N47      1.0000 0.24222  0.82770  0.53230  Biso   1.000  N
  C115     1.0000 0.23428  0.75760  0.57280  Biso   1.000  C
  C116     1.0000 0.24215  0.67930  0.54200  Biso   1.000  C
  H39      1.0000 0.23640  0.63170  0.57370  Biso   1.000  H
  C117     1.0000 0.21537  0.76770  0.65260  Biso   1.000  C
  O129     1.0000 0.21081  0.84240  0.67760  Biso   1.000  O
  O130     1.0000 0.20541  0.70370  0.68530  Biso   1.000  O
  N48      1.0000 0.16680  0.52730  0.91870  Biso   1.000  N
  C118     1.0000 0.18902  0.50070  0.96630  Biso   1.000  C
  C119     1.0000 0.19116  0.46010  0.06660  Biso   1.000  C
  H40      1.0000 0.20660  0.44340  0.09830  Biso   1.000  H
  N49      1.0000 0.17159  0.44460  0.11880  Biso   1.000  N
  C120     1.0000 0.14989  0.47060  0.06970  Biso   1.000  C
  C121     1.0000 0.14735  0.51120  0.96960  Biso   1.000  C
  H41      1.0000 0.13180  0.52740  0.93800  Biso   1.000  H
  C122     1.0000 0.21076  0.52190  0.90830  Biso   1.000  C
  O131     1.0000 0.23086  0.48960  0.94380  Biso   1.000  O
  O132     1.0000 0.20678  0.57010  0.82780  Biso   1.000  O
  C123     1.0000 0.12859  0.45730  0.13420  Biso   1.000  C
  O133     1.0000 0.13268  0.41430  0.21970  Biso   1.000  O
  O134     1.0000 0.10873  0.49310  0.10080  Biso   1.000  O
  N50      1.0000 0.09146  0.82510  0.97350  Biso   1.000  N
  C124     1.0000 0.10608  0.76010  0.96680  Biso   1.000  C
  C125     1.0000 0.10270  0.68520  0.02180  Biso   1.000  C
  H42      1.0000 0.11390  0.64200  0.01870  Biso   1.000  H
  N51      1.0000 0.08366  0.67510  0.07840  Biso   1.000  N
  C126     1.0000 0.06948  0.74170  0.08480  Biso   1.000  C
  C127     1.0000 0.07337  0.81680  0.03710  Biso   1.000  C
  H43      1.0000 0.06340  0.86200  0.04890  Biso   1.000  H
  C128     1.0000 0.12645  0.76890  0.89450  Biso   1.000  C
  O135     1.0000 0.12899  0.84070  0.85430  Biso   1.000  O
  O136     1.0000 0.13881  0.70580  0.88050  Biso   1.000  O
  C129     1.0000 0.04734  0.72860  0.14800  Biso   1.000  C
  O137     1.0000 0.04424  0.65560  0.18160  Biso   1.000  O
  O138     1.0000 0.03392  0.79040  0.15780  Biso   1.000  O
  N52      1.0000 0.00055  0.06360  0.92480  Biso   1.000  N
  C130     1.0000 0.01670  0.00100  0.93030  Biso   1.000  C
  C131     1.0000 0.01570  0.93710  0.00480  Biso   1.000  C
  H44      1.0000 0.02690  0.89350  0.00520  Biso   1.000  H
  C132     1.0000 0.03603  0.00410  0.85300  Biso   1.000  C
  O139     1.0000 0.03194  0.05410  0.77480  Biso   1.000  O
  O140     1.0000 0.05457  0.95880  0.87450  Biso   1.000  O
  O141     1.0000 0.09230  0.09300  0.77310  Biso   1.000  O
  O142     1.0000 0.03620  0.18550  0.90200  Biso   1.000  O
  Nd20     1.0000 0.06906  0.52799  0.15969  Biso   1.000  Nd
  N53      1.0000 0.02299  0.50940  0.05950  Biso   1.000  N
  C133     1.0000 0.02039  0.50550  0.95150  Biso   1.000  C
  C134     1.0000 0.00270  0.50450  0.10650  Biso   1.000  C
  H45      1.0000 0.00390  0.50790  0.18220  Biso   1.000  H
  C135     1.0000 0.04350  0.51180  0.89860  Biso   1.000  C
  O143     1.0000 0.06276  0.53180  0.95920  Biso   1.000  O
  O144     1.0000 0.04204  0.49690  0.79880  Biso   1.000  O
  O145     1.0000 0.05680  0.37960  0.11510  Biso   1.000  O
  O146     1.0000 0.09630  0.59730  0.29870  Biso   1.000  O
  O147     1.0000 0.08810  0.10900  0.83100  Biso   1.000  O
  N54      1.0000 0.09990  0.13400  0.77800  Biso   1.000  N
  O148     1.0000 0.11180  0.08900  0.72900  Biso   1.000  O
  O149     1.0000 0.10130  0.21900  0.77000  Biso   1.000  O
  O150     1.0000 0.11070  0.40500  0.76300  Biso   1.000  O
  N55      1.0000 0.10200  0.38500  0.83200  Biso   1.000  N
  O151     1.0000 0.08180  0.39050  0.84500  Biso   1.000  O
  O152     1.0000 0.11840  0.34900  0.92500  Biso   1.000  O
  O153     1.0000 0.06410  0.61280  0.57370  Biso   1.000  O
  O154     1.0000 0.02310  0.23800  0.89220  Biso   1.000  O
  O155     1.0000 0.99450  0.31690  0.69610  Biso   1.000  O
  Nd21     1.0000 0.72832  0.47578  0.61616  Biso   1.000  Nd
  Nd22     1.0000 0.59577  0.44669  0.81987  Biso   1.000  Nd
  Nd23     1.0000 0.67179  0.16120  0.78614  Biso   1.000  Nd
  N56      1.0000 0.68362  0.44550  0.51190  Biso   1.000  N
  C136     1.0000 0.68086  0.46660  0.40550  Biso   1.000  C
  C137     1.0000 0.65770  0.48180  0.34880  Biso   1.000  C
  H46      1.0000 0.65630  0.49210  0.27410  Biso   1.000  H
  N57      1.0000 0.63769  0.48180  0.39960  Biso   1.000  N
  C138     1.0000 0.64055  0.46020  0.50490  Biso   1.000  C
  C139     1.0000 0.66328  0.43780  0.55890  Biso   1.000  C
  H47      1.0000 0.66420  0.41700  0.62960  Biso   1.000  H
  C140     1.0000 0.70390  0.48320  0.35340  Biso   1.000  C
  O156     1.0000 0.72390  0.48540  0.41650  Biso   1.000  O
  O157     1.0000 0.70130  0.49800  0.25400  Biso   1.000  O
  C141     1.0000 0.61761  0.46560  0.56310  Biso   1.000  C
  O158     1.0000 0.59874  0.49460  0.50690  Biso   1.000  O
  O159     1.0000 0.61929  0.44490  0.66130  Biso   1.000  O
  N58      1.0000 0.74222  0.32770  0.53230  Biso   1.000  N
  C142     1.0000 0.73428  0.25760  0.57280  Biso   1.000  C
  C143     1.0000 0.74215  0.17930  0.54200  Biso   1.000  C
  H48      1.0000 0.73640  0.13170  0.57370  Biso   1.000  H
  C144     1.0000 0.71537  0.26770  0.65260  Biso   1.000  C
  O160     1.0000 0.71081  0.34240  0.67760  Biso   1.000  O
  O161     1.0000 0.70541  0.20370  0.68530  Biso   1.000  O
  N59      1.0000 0.66680  0.02730  0.91870  Biso   1.000  N
  C145     1.0000 0.68902  0.00070  0.96630  Biso   1.000  C
  C146     1.0000 0.69116  0.96010  0.06660  Biso   1.000  C
  H49      1.0000 0.70660  0.94340  0.09830  Biso   1.000  H
  N60      1.0000 0.67159  0.94460  0.11880  Biso   1.000  N
  C147     1.0000 0.64989  0.97060  0.06970  Biso   1.000  C
  C148     1.0000 0.64735  0.01120  0.96960  Biso   1.000  C
  H50      1.0000 0.63180  0.02740  0.93800  Biso   1.000  H
  C149     1.0000 0.71076  0.02190  0.90830  Biso   1.000  C
  O162     1.0000 0.73086  0.98960  0.94380  Biso   1.000  O
  O163     1.0000 0.70678  0.07010  0.82780  Biso   1.000  O
  C150     1.0000 0.62859  0.95730  0.13420  Biso   1.000  C
  O164     1.0000 0.63268  0.91430  0.21970  Biso   1.000  O
  O165     1.0000 0.60873  0.99310  0.10080  Biso   1.000  O
  N61      1.0000 0.59146  0.32510  0.97350  Biso   1.000  N
  C151     1.0000 0.60608  0.26010  0.96680  Biso   1.000  C
  C152     1.0000 0.60270  0.18520  0.02180  Biso   1.000  C
  H51      1.0000 0.61390  0.14200  0.01870  Biso   1.000  H
  N62      1.0000 0.58366  0.17510  0.07840  Biso   1.000  N
  C153     1.0000 0.56948  0.24170  0.08480  Biso   1.000  C
  C154     1.0000 0.57337  0.31680  0.03710  Biso   1.000  C
  H52      1.0000 0.56340  0.36200  0.04890  Biso   1.000  H
  C155     1.0000 0.62645  0.26890  0.89450  Biso   1.000  C
  O166     1.0000 0.62899  0.34070  0.85430  Biso   1.000  O
  O167     1.0000 0.63881  0.20580  0.88050  Biso   1.000  O
  C156     1.0000 0.54734  0.22860  0.14800  Biso   1.000  C
  O168     1.0000 0.54424  0.15560  0.18160  Biso   1.000  O
  O169     1.0000 0.53392  0.29040  0.15780  Biso   1.000  O
  N63      1.0000 0.50055  0.56360  0.92480  Biso   1.000  N
  C157     1.0000 0.51670  0.50100  0.93030  Biso   1.000  C
  C158     1.0000 0.51570  0.43710  0.00480  Biso   1.000  C
  H53      1.0000 0.52690  0.39350  0.00520  Biso   1.000  H
  C159     1.0000 0.53603  0.50410  0.85300  Biso   1.000  C
  O170     1.0000 0.53194  0.55410  0.77480  Biso   1.000  O
  O171     1.0000 0.55457  0.45880  0.87450  Biso   1.000  O
  O172     1.0000 0.59230  0.59300  0.77310  Biso   1.000  O
  O173     1.0000 0.53620  0.68550  0.90200  Biso   1.000  O
  Nd24     1.0000 0.56906  0.02799  0.15969  Biso   1.000  Nd
  N64      1.0000 0.52299  0.00940  0.05950  Biso   1.000  N
  C160     1.0000 0.52039  0.00550  0.95150  Biso   1.000  C
  C161     1.0000 0.50270  0.00450  0.10650  Biso   1.000  C
  H54      1.0000 0.50390  0.00790  0.18220  Biso   1.000  H
  C162     1.0000 0.54350  0.01180  0.89860  Biso   1.000  C
  O174     1.0000 0.56276  0.03180  0.95920  Biso   1.000  O
  O175     1.0000 0.54204  0.99690  0.79880  Biso   1.000  O
  O176     1.0000 0.55680  0.87960  0.11510  Biso   1.000  O
  O177     1.0000 0.59630  0.09730  0.29870  Biso   1.000  O
  O178     1.0000 0.58810  0.60900  0.83100  Biso   1.000  O
  N65      1.0000 0.59990  0.63400  0.77800  Biso   1.000  N
  O179     1.0000 0.61180  0.58900  0.72900  Biso   1.000  O
  O180     1.0000 0.60130  0.71900  0.77000  Biso   1.000  O
  O181     1.0000 0.61070  0.90500  0.76300  Biso   1.000  O
  N66      1.0000 0.60200  0.88500  0.83200  Biso   1.000  N
  O182     1.0000 0.58180  0.89050  0.84500  Biso   1.000  O
  O183     1.0000 0.61840  0.84900  0.92500  Biso   1.000  O
  O184     1.0000 0.56410  0.11280  0.57370  Biso   1.000  O
  O185     1.0000 0.52310  0.73800  0.89220  Biso   1.000  O
  O186     1.0000 0.49450  0.81690  0.69610  Biso   1.000  O
  Nd25     1.0000 0.77168  0.97578  0.88384  Biso   1.000  Nd
  Nd26     1.0000 0.90423  0.94669  0.68013  Biso   1.000  Nd
  Nd27     1.0000 0.82821  0.66120  0.71386  Biso   1.000  Nd
  N67      1.0000 0.81638  0.94550  0.98810  Biso   1.000  N
  C163     1.0000 0.81914  0.96660  0.09450  Biso   1.000  C
  C164     1.0000 0.84230  0.98180  0.15120  Biso   1.000  C
  H55      1.0000 0.84370  0.99210  0.22590  Biso   1.000  H
  N68      1.0000 0.86231  0.98180  0.10040  Biso   1.000  N
  C165     1.0000 0.85945  0.96020  0.99510  Biso   1.000  C
  C166     1.0000 0.83672  0.93780  0.94110  Biso   1.000  C
  H56      1.0000 0.83580  0.91700  0.87040  Biso   1.000  H
  C167     1.0000 0.79610  0.98320  0.14660  Biso   1.000  C
  O187     1.0000 0.77610  0.98540  0.08350  Biso   1.000  O
  O188     1.0000 0.79870  0.99800  0.24600  Biso   1.000  O
  C168     1.0000 0.88239  0.96560  0.93690  Biso   1.000  C
  O189     1.0000 0.90126  0.99460  0.99310  Biso   1.000  O
  O190     1.0000 0.88071  0.94490  0.83870  Biso   1.000  O
  N69      1.0000 0.75778  0.82770  0.96770  Biso   1.000  N
  C169     1.0000 0.76572  0.75760  0.92720  Biso   1.000  C
  C170     1.0000 0.75785  0.67930  0.95800  Biso   1.000  C
  H57      1.0000 0.76360  0.63170  0.92630  Biso   1.000  H
  C171     1.0000 0.78463  0.76770  0.84740  Biso   1.000  C
  O191     1.0000 0.78919  0.84240  0.82240  Biso   1.000  O
  O192     1.0000 0.79459  0.70370  0.81470  Biso   1.000  O
  N70      1.0000 0.83320  0.52730  0.58130  Biso   1.000  N
  C172     1.0000 0.81098  0.50070  0.53370  Biso   1.000  C
  C173     1.0000 0.80884  0.46010  0.43340  Biso   1.000  C
  H58      1.0000 0.79340  0.44340  0.40170  Biso   1.000  H
  N71      1.0000 0.82841  0.44460  0.38120  Biso   1.000  N
  C174     1.0000 0.85011  0.47060  0.43030  Biso   1.000  C
  C175     1.0000 0.85265  0.51120  0.53040  Biso   1.000  C
  H59      1.0000 0.86820  0.52740  0.56200  Biso   1.000  H
  C176     1.0000 0.78924  0.52190  0.59170  Biso   1.000  C
  O193     1.0000 0.76914  0.48960  0.55620  Biso   1.000  O
  O194     1.0000 0.79322  0.57010  0.67220  Biso   1.000  O
  C177     1.0000 0.87141  0.45730  0.36580  Biso   1.000  C
  O195     1.0000 0.86732  0.41430  0.28030  Biso   1.000  O
  O196     1.0000 0.89127  0.49310  0.39920  Biso   1.000  O
  N72      1.0000 0.90854  0.82510  0.52650  Biso   1.000  N
  C178     1.0000 0.89392  0.76010  0.53320  Biso   1.000  C
  C179     1.0000 0.89730  0.68520  0.47820  Biso   1.000  C
  H60      1.0000 0.88610  0.64200  0.48130  Biso   1.000  H
  N73      1.0000 0.91634  0.67510  0.42160  Biso   1.000  N
  C180     1.0000 0.93052  0.74170  0.41520  Biso   1.000  C
  C181     1.0000 0.92663  0.81680  0.46290  Biso   1.000  C
  H61      1.0000 0.93660  0.86200  0.45110  Biso   1.000  H
  C182     1.0000 0.87355  0.76890  0.60550  Biso   1.000  C
  O197     1.0000 0.87101  0.84070  0.64570  Biso   1.000  O
  O198     1.0000 0.86119  0.70580  0.61950  Biso   1.000  O
  C183     1.0000 0.95266  0.72860  0.35200  Biso   1.000  C
  O199     1.0000 0.95576  0.65560  0.31840  Biso   1.000  O
  O200     1.0000 0.96608  0.79040  0.34220  Biso   1.000  O
  N74      1.0000 0.99945  0.06360  0.57520  Biso   1.000  N
  C184     1.0000 0.98330  0.00100  0.56970  Biso   1.000  C
  C185     1.0000 0.98430  0.93710  0.49520  Biso   1.000  C
  H62      1.0000 0.97310  0.89350  0.49480  Biso   1.000  H
  C186     1.0000 0.96397  0.00410  0.64700  Biso   1.000  C
  O201     1.0000 0.96806  0.05410  0.72520  Biso   1.000  O
  O202     1.0000 0.94543  0.95880  0.62550  Biso   1.000  O
  O203     1.0000 0.90770  0.09300  0.72690  Biso   1.000  O
  O204     1.0000 0.96380  0.18550  0.59800  Biso   1.000  O
  Nd28     1.0000 0.93094  0.52799  0.34031  Biso   1.000  Nd
  N75      1.0000 0.97701  0.50940  0.44050  Biso   1.000  N
  C187     1.0000 0.97961  0.50550  0.54850  Biso   1.000  C
  C188     1.0000 0.99730  0.50450  0.39350  Biso   1.000  C
  H63      1.0000 0.99610  0.50790  0.31780  Biso   1.000  H
  C189     1.0000 0.95650  0.51180  0.60140  Biso   1.000  C
  O205     1.0000 0.93724  0.53180  0.54080  Biso   1.000  O
  O206     1.0000 0.95796  0.49690  0.70120  Biso   1.000  O
  O207     1.0000 0.94320  0.37960  0.38490  Biso   1.000  O
  O208     1.0000 0.90370  0.59730  0.20130  Biso   1.000  O
  O209     1.0000 0.91190  0.10900  0.66900  Biso   1.000  O
  N76      1.0000 0.90010  0.13400  0.72200  Biso   1.000  N
  O210     1.0000 0.88820  0.08900  0.77100  Biso   1.000  O
  O211     1.0000 0.89870  0.21900  0.73000  Biso   1.000  O
  O212     1.0000 0.88930  0.40500  0.73700  Biso   1.000  O
  N77      1.0000 0.89800  0.38500  0.66800  Biso   1.000  N
  O213     1.0000 0.91820  0.39050  0.65500  Biso   1.000  O
  O214     1.0000 0.88160  0.34900  0.57500  Biso   1.000  O
  O215     1.0000 0.93590  0.61280  0.92630  Biso   1.000  O
  O216     1.0000 0.97690  0.23800  0.60780  Biso   1.000  O
  O217     1.0000 0.00550  0.31690  0.80390  Biso   1.000  O
  Nd29     1.0000 0.27168  0.47578  0.88384  Biso   1.000  Nd
  Nd30     1.0000 0.40423  0.44669  0.68013  Biso   1.000  Nd
  Nd31     1.0000 0.32821  0.16120  0.71386  Biso   1.000  Nd
  N78      1.0000 0.31638  0.44550  0.98810  Biso   1.000  N
  C190     1.0000 0.31914  0.46660  0.09450  Biso   1.000  C
  C191     1.0000 0.34230  0.48180  0.15120  Biso   1.000  C
  H64      1.0000 0.34370  0.49210  0.22590  Biso   1.000  H
  N79      1.0000 0.36231  0.48180  0.10040  Biso   1.000  N
  C192     1.0000 0.35945  0.46020  0.99510  Biso   1.000  C
  C193     1.0000 0.33672  0.43780  0.94110  Biso   1.000  C
  H65      1.0000 0.33580  0.41700  0.87040  Biso   1.000  H
  C194     1.0000 0.29610  0.48320  0.14660  Biso   1.000  C
  O218     1.0000 0.27610  0.48540  0.08350  Biso   1.000  O
  O219     1.0000 0.29870  0.49800  0.24600  Biso   1.000  O
  C195     1.0000 0.38239  0.46560  0.93690  Biso   1.000  C
  O220     1.0000 0.40126  0.49460  0.99310  Biso   1.000  O
  O221     1.0000 0.38071  0.44490  0.83870  Biso   1.000  O
  N80      1.0000 0.25778  0.32770  0.96770  Biso   1.000  N
  C196     1.0000 0.26572  0.25760  0.92720  Biso   1.000  C
  C197     1.0000 0.25785  0.17930  0.95800  Biso   1.000  C
  H66      1.0000 0.26360  0.13170  0.92630  Biso   1.000  H
  C198     1.0000 0.28463  0.26770  0.84740  Biso   1.000  C
  O222     1.0000 0.28919  0.34240  0.82240  Biso   1.000  O
  O223     1.0000 0.29459  0.20370  0.81470  Biso   1.000  O
  N81      1.0000 0.33320  0.02730  0.58130  Biso   1.000  N
  C199     1.0000 0.31098  0.00070  0.53370  Biso   1.000  C
  C200     1.0000 0.30884  0.96010  0.43340  Biso   1.000  C
  H67      1.0000 0.29340  0.94340  0.40170  Biso   1.000  H
  N82      1.0000 0.32841  0.94460  0.38120  Biso   1.000  N
  C201     1.0000 0.35011  0.97060  0.43030  Biso   1.000  C
  C202     1.0000 0.35265  0.01120  0.53040  Biso   1.000  C
  H68      1.0000 0.36820  0.02740  0.56200  Biso   1.000  H
  C203     1.0000 0.28924  0.02190  0.59170  Biso   1.000  C
  O224     1.0000 0.26914  0.98960  0.55620  Biso   1.000  O
  O225     1.0000 0.29322  0.07010  0.67220  Biso   1.000  O
  C204     1.0000 0.37141  0.95730  0.36580  Biso   1.000  C
  O226     1.0000 0.36732  0.91430  0.28030  Biso   1.000  O
  O227     1.0000 0.39127  0.99310  0.39920  Biso   1.000  O
  N83      1.0000 0.40854  0.32510  0.52650  Biso   1.000  N
  C205     1.0000 0.39392  0.26010  0.53320  Biso   1.000  C
  C206     1.0000 0.39730  0.18520  0.47820  Biso   1.000  C
  H69      1.0000 0.38610  0.14200  0.48130  Biso   1.000  H
  N84      1.0000 0.41634  0.17510  0.42160  Biso   1.000  N
  C207     1.0000 0.43052  0.24170  0.41520  Biso   1.000  C
  C208     1.0000 0.42663  0.31680  0.46290  Biso   1.000  C
  H70      1.0000 0.43660  0.36200  0.45110  Biso   1.000  H
  C209     1.0000 0.37355  0.26890  0.60550  Biso   1.000  C
  O228     1.0000 0.37101  0.34070  0.64570  Biso   1.000  O
  O229     1.0000 0.36119  0.20580  0.61950  Biso   1.000  O
  C210     1.0000 0.45266  0.22860  0.35200  Biso   1.000  C
  O230     1.0000 0.45576  0.15560  0.31840  Biso   1.000  O
  O231     1.0000 0.46608  0.29040  0.34220  Biso   1.000  O
  N85      1.0000 0.49945  0.56360  0.57520  Biso   1.000  N
  C211     1.0000 0.48330  0.50100  0.56970  Biso   1.000  C
  C212     1.0000 0.48430  0.43710  0.49520  Biso   1.000  C
  H71      1.0000 0.47310  0.39350  0.49480  Biso   1.000  H
  C213     1.0000 0.46397  0.50410  0.64700  Biso   1.000  C
  O232     1.0000 0.46806  0.55410  0.72520  Biso   1.000  O
  O233     1.0000 0.44543  0.45880  0.62550  Biso   1.000  O
  O234     1.0000 0.40770  0.59300  0.72690  Biso   1.000  O
  O235     1.0000 0.46380  0.68550  0.59800  Biso   1.000  O
  Nd32     1.0000 0.43094  0.02799  0.34031  Biso   1.000  Nd
  N86      1.0000 0.47701  0.00940  0.44050  Biso   1.000  N
  C214     1.0000 0.47961  0.00550  0.54850  Biso   1.000  C
  C215     1.0000 0.49730  0.00450  0.39350  Biso   1.000  C
  H72      1.0000 0.49610  0.00790  0.31780  Biso   1.000  H
  C216     1.0000 0.45650  0.01180  0.60140  Biso   1.000  C
  O236     1.0000 0.43724  0.03180  0.54080  Biso   1.000  O
  O237     1.0000 0.45796  0.99690  0.70120  Biso   1.000  O
  O238     1.0000 0.44320  0.87960  0.38490  Biso   1.000  O
  O239     1.0000 0.40370  0.09730  0.20130  Biso   1.000  O
  O240     1.0000 0.41190  0.60900  0.66900  Biso   1.000  O
  N87      1.0000 0.40010  0.63400  0.72200  Biso   1.000  N
  O241     1.0000 0.38820  0.58900  0.77100  Biso   1.000  O
  O242     1.0000 0.39870  0.71900  0.73000  Biso   1.000  O
  O243     1.0000 0.38930  0.90500  0.73700  Biso   1.000  O
  N88      1.0000 0.39800  0.88500  0.66800  Biso   1.000  N
  O244     1.0000 0.41820  0.89050  0.65500  Biso   1.000  O
  O245     1.0000 0.38160  0.84900  0.57500  Biso   1.000  O
  O246     1.0000 0.43590  0.11280  0.92630  Biso   1.000  O
  O247     1.0000 0.47690  0.73800  0.60780  Biso   1.000  O
  O248     1.0000 0.50550  0.81690  0.80390  Biso   1.000  O
  Nd33     1.0000 0.00000  0.83693  0.25000  Biso   1.000  Nd
  Nd34     1.0000 0.50000  0.33693  0.25000  Biso   1.000  Nd
  Nd35     1.0000 0.00000  0.16307  0.75000  Biso   1.000  Nd
  Nd36     1.0000 0.50000  0.66307  0.75000  Biso   1.000  Nd
