data_image0
_cell_length_a       55.106
_cell_length_b       16.058
_cell_length_c       12.418
_cell_angle_alpha    90
_cell_angle_beta     96.664
_cell_angle_gamma    90

_symmetry_space_group_name_H-M    "P 1"
_symmetry_int_tables_number       1

loop_
  _symmetry_equiv_pos_as_xyz
  'x, y, z'

loop_
  _atom_site_label
  _atom_site_occupancy
  _atom_site_fract_x
  _atom_site_fract_y
  _atom_site_fract_z
  _atom_site_thermal_displace_type
  _atom_site_B_iso_or_equiv
  _atom_site_type_symbol
  Pr1      1.0000 0.22854  0.02357  0.11707  Biso   1.000  Pr
  Pr2      1.0000 0.09596  0.94825  0.82029  Biso   1.000  Pr
  Pr3      1.0000 0.17172  0.33821  0.28588  Biso   1.000  Pr
  Pr4      1.0000 0.06916  0.52820  0.15994  Biso   1.000  Pr
  N1       1.0000 0.18369  0.05450  0.01200  Biso   1.000  N
  C1       1.0000 0.18096  0.03270  0.90720  Biso   1.000  C
  C2       1.0000 0.15810  0.01820  0.85120  Biso   1.000  C
  H1       1.0000 0.15670  0.00810  0.77700  Biso   1.000  H
  N2       1.0000 0.13805  0.01850  0.90150  Biso   1.000  N
  C3       1.0000 0.14073  0.03980  0.00620  Biso   1.000  C
  C4       1.0000 0.16339  0.06170  0.05990  Biso   1.000  C
  H2       1.0000 0.16440  0.08180  0.13050  Biso   1.000  H
  C5       1.0000 0.20414  0.01610  0.85530  Biso   1.000  C
  O1       1.0000 0.22387  0.01420  0.91790  Biso   1.000  O
  O2       1.0000 0.20137  0.00210  0.75550  Biso   1.000  O
  C6       1.0000 0.11798  0.03470  0.06370  Biso   1.000  C
  O3       1.0000 0.09914  0.00650  0.00810  Biso   1.000  O
  O4       1.0000 0.11965  0.05690  0.16150  Biso   1.000  O
  N3       1.0000 0.24236  0.17190  0.03200  Biso   1.000  N
  C7       1.0000 0.23414  0.24240  0.07290  Biso   1.000  C
  C8       1.0000 0.25800  0.18000  0.95820  Biso   1.000  C
  H3       1.0000 0.26380  0.13250  0.92680  Biso   1.000  H
  C9       1.0000 0.21555  0.23170  0.15250  Biso   1.000  C
  O5       1.0000 0.21114  0.15780  0.17810  Biso   1.000  O
  O6       1.0000 0.20582  0.29600  0.18480  Biso   1.000  O
  N4       1.0000 0.17160  0.44330  0.11640  Biso   1.000  N
  C10      1.0000 0.14979  0.47020  0.06870  Biso   1.000  C
  C11      1.0000 0.14757  0.51110  0.96900  Biso   1.000  C
  H4       1.0000 0.13220  0.52770  0.93780  Biso   1.000  H
  N5       1.0000 0.16675  0.52670  0.91800  Biso   1.000  N
  C12      1.0000 0.18860  0.50040  0.96540  Biso   1.000  C
  C13      1.0000 0.19096  0.45930  0.06430  Biso   1.000  C
  H5       1.0000 0.20640  0.44240  0.09500  Biso   1.000  H
  C14      1.0000 0.12846  0.45650  0.13280  Biso   1.000  C
  O7       1.0000 0.13265  0.41320  0.21780  Biso   1.000  O
  O8       1.0000 0.10882  0.49120  0.09860  Biso   1.000  O
  C15      1.0000 0.21050  0.52080  0.90670  Biso   1.000  C
  O9       1.0000 0.20670  0.56960  0.82690  Biso   1.000  O
  O10      1.0000 0.23050  0.48970  0.94340  Biso   1.000  O
  N6       1.0000 0.09122  0.82590  0.97300  Biso   1.000  N
  C16      1.0000 0.10595  0.76010  0.96680  Biso   1.000  C
  C17      1.0000 0.10266  0.68680  0.02130  Biso   1.000  C
  H6       1.0000 0.11400  0.64410  0.01870  Biso   1.000  H
  N7       1.0000 0.08372  0.67510  0.07760  Biso   1.000  N
  C18      1.0000 0.06909  0.74110  0.08430  Biso   1.000  C
  C19      1.0000 0.07309  0.81660  0.03460  Biso   1.000  C
  H7       1.0000 0.06290  0.86150  0.04440  Biso   1.000  H
  C20      1.0000 0.12617  0.77050  0.89570  Biso   1.000  C
  O11      1.0000 0.12900  0.84160  0.85610  Biso   1.000  O
  O12      1.0000 0.13857  0.70690  0.88200  Biso   1.000  O
  C21      1.0000 0.04717  0.72780  0.14500  Biso   1.000  C
  O13      1.0000 0.04391  0.65540  0.17940  Biso   1.000  O
  O14      1.0000 0.03365  0.78980  0.15430  Biso   1.000  O
  N8       1.0000 0.02287  0.50870  0.05900  Biso   1.000  N
  C22      1.0000 0.02037  0.50540  0.95200  Biso   1.000  C
  C23      1.0000 0.00259  0.50330  0.10660  Biso   1.000  C
  H8       1.0000 0.00380  0.50530  0.18190  Biso   1.000  H
  C24      1.0000 0.04348  0.51220  0.89880  Biso   1.000  C
  O15      1.0000 0.06261  0.53210  0.95980  Biso   1.000  O
  O16      1.0000 0.04183  0.49850  0.79930  Biso   1.000  O
  N9       1.0000 0.00076  0.93540  0.42500  Biso   1.000  N
  C25      1.0000 0.01665  0.99940  0.43030  Biso   1.000  C
  C26      1.0000 0.98445  0.93640  0.49600  Biso   1.000  C
  H9       1.0000 0.97340  0.89260  0.49620  Biso   1.000  H
  C27      1.0000 0.03575  0.99580  0.35250  Biso   1.000  C
  O17      1.0000 0.03147  0.94800  0.27310  Biso   1.000  O
  O18      1.0000 0.05437  0.04030  0.37490  Biso   1.000  O
  O19      1.0000 0.09235  0.09530  0.77360  Biso   1.000  O
  O20      1.0000 0.05744  0.37830  0.11700  Biso   1.000  O
  O21      1.0000 0.09570  0.59930  0.30180  Biso   1.000  O
  O22      1.0000 0.97570  0.75980  0.11000  Biso   1.000  O
  O23      1.0000 0.08810  0.11370  0.84210  Biso   1.000  O
  N10      1.0000 0.10110  0.13810  0.77590  Biso   1.000  N
  O24      1.0000 0.11260  0.09190  0.72530  Biso   1.000  O
  O25      1.0000 0.10360  0.21830  0.76440  Biso   1.000  O
  O26      1.0000 0.08210  0.61130  0.34680  Biso   1.000  O
  N11      1.0000 0.10350  0.61880  0.34020  Biso   1.000  N
  O27      1.0000 0.11148  0.59600  0.26030  Biso   1.000  O
  O28      1.0000 0.11790  0.64800  0.42150  Biso   1.000  O
  O29      1.0000 0.06505  0.38690  0.07090  Biso   1.000  O
  O30      1.0000 0.96240  0.81490  0.10270  Biso   1.000  O
  O31      1.0000 0.99415  0.68450  0.19410  Biso   1.000  O
  Pr5      1.0000 0.72854  0.52357  0.11707  Biso   1.000  Pr
  Pr6      1.0000 0.59596  0.44825  0.82029  Biso   1.000  Pr
  Pr7      1.0000 0.67172  0.83821  0.28588  Biso   1.000  Pr
  Pr8      1.0000 0.56916  0.02820  0.15994  Biso   1.000  Pr
  N12      1.0000 0.68369  0.55450  0.01200  Biso   1.000  N
  C28      1.0000 0.68096  0.53270  0.90720  Biso   1.000  C
  C29      1.0000 0.65810  0.51820  0.85120  Biso   1.000  C
  H10      1.0000 0.65670  0.50810  0.77700  Biso   1.000  H
  N13      1.0000 0.63805  0.51850  0.90150  Biso   1.000  N
  C30      1.0000 0.64073  0.53980  0.00620  Biso   1.000  C
  C31      1.0000 0.66339  0.56170  0.05990  Biso   1.000  C
  H11      1.0000 0.66440  0.58180  0.13050  Biso   1.000  H
  C32      1.0000 0.70414  0.51610  0.85530  Biso   1.000  C
  O32      1.0000 0.72387  0.51420  0.91790  Biso   1.000  O
  O33      1.0000 0.70137  0.50210  0.75550  Biso   1.000  O
  C33      1.0000 0.61798  0.53470  0.06370  Biso   1.000  C
  O34      1.0000 0.59914  0.50650  0.00810  Biso   1.000  O
  O35      1.0000 0.61965  0.55690  0.16150  Biso   1.000  O
  N14      1.0000 0.74236  0.67190  0.03200  Biso   1.000  N
  C34      1.0000 0.73414  0.74240  0.07290  Biso   1.000  C
  C35      1.0000 0.75800  0.68000  0.95820  Biso   1.000  C
  H12      1.0000 0.76380  0.63250  0.92680  Biso   1.000  H
  C36      1.0000 0.71555  0.73170  0.15250  Biso   1.000  C
  O36      1.0000 0.71114  0.65780  0.17810  Biso   1.000  O
  O37      1.0000 0.70582  0.79600  0.18480  Biso   1.000  O
  N15      1.0000 0.67160  0.94330  0.11640  Biso   1.000  N
  C37      1.0000 0.64979  0.97020  0.06870  Biso   1.000  C
  C38      1.0000 0.64757  0.01110  0.96900  Biso   1.000  C
  H13      1.0000 0.63220  0.02770  0.93780  Biso   1.000  H
  N16      1.0000 0.66675  0.02670  0.91800  Biso   1.000  N
  C39      1.0000 0.68860  0.00040  0.96540  Biso   1.000  C
  C40      1.0000 0.69096  0.95930  0.06430  Biso   1.000  C
  H14      1.0000 0.70640  0.94240  0.09500  Biso   1.000  H
  C41      1.0000 0.62846  0.95650  0.13280  Biso   1.000  C
  O38      1.0000 0.63265  0.91320  0.21780  Biso   1.000  O
  O39      1.0000 0.60882  0.99120  0.09860  Biso   1.000  O
  C42      1.0000 0.71050  0.02080  0.90670  Biso   1.000  C
  O40      1.0000 0.70670  0.06960  0.82690  Biso   1.000  O
  O41      1.0000 0.73050  0.98970  0.94340  Biso   1.000  O
  N17      1.0000 0.59122  0.32590  0.97300  Biso   1.000  N
  C43      1.0000 0.60595  0.26010  0.96680  Biso   1.000  C
  C44      1.0000 0.60266  0.18680  0.02130  Biso   1.000  C
  H15      1.0000 0.61400  0.14410  0.01870  Biso   1.000  H
  N18      1.0000 0.58372  0.17510  0.07760  Biso   1.000  N
  C45      1.0000 0.56909  0.24110  0.08430  Biso   1.000  C
  C46      1.0000 0.57309  0.31660  0.03460  Biso   1.000  C
  H16      1.0000 0.56290  0.36150  0.04440  Biso   1.000  H
  C47      1.0000 0.62617  0.27050  0.89570  Biso   1.000  C
  O42      1.0000 0.62900  0.34160  0.85610  Biso   1.000  O
  O43      1.0000 0.63857  0.20690  0.88200  Biso   1.000  O
  C48      1.0000 0.54717  0.22780  0.14500  Biso   1.000  C
  O44      1.0000 0.54391  0.15540  0.17940  Biso   1.000  O
  O45      1.0000 0.53365  0.28980  0.15430  Biso   1.000  O
  N19      1.0000 0.52287  0.00870  0.05900  Biso   1.000  N
  C49      1.0000 0.52037  0.00540  0.95200  Biso   1.000  C
  C50      1.0000 0.50259  0.00330  0.10660  Biso   1.000  C
  H17      1.0000 0.50380  0.00530  0.18190  Biso   1.000  H
  C51      1.0000 0.54348  0.01220  0.89880  Biso   1.000  C
  O46      1.0000 0.56261  0.03210  0.95980  Biso   1.000  O
  O47      1.0000 0.54183  0.99850  0.79930  Biso   1.000  O
  N20      1.0000 0.50076  0.43540  0.42500  Biso   1.000  N
  C52      1.0000 0.51665  0.49940  0.43030  Biso   1.000  C
  C53      1.0000 0.48445  0.43640  0.49600  Biso   1.000  C
  H18      1.0000 0.47340  0.39260  0.49620  Biso   1.000  H
  C54      1.0000 0.53575  0.49580  0.35250  Biso   1.000  C
  O48      1.0000 0.53147  0.44800  0.27310  Biso   1.000  O
  O49      1.0000 0.55437  0.54030  0.37490  Biso   1.000  O
  O50      1.0000 0.59235  0.59530  0.77360  Biso   1.000  O
  O51      1.0000 0.55744  0.87830  0.11700  Biso   1.000  O
  O52      1.0000 0.59570  0.09930  0.30180  Biso   1.000  O
  O53      1.0000 0.47570  0.25980  0.11000  Biso   1.000  O
  O54      1.0000 0.58810  0.61370  0.84210  Biso   1.000  O
  N21      1.0000 0.60110  0.63810  0.77590  Biso   1.000  N
  O55      1.0000 0.61260  0.59190  0.72530  Biso   1.000  O
  O56      1.0000 0.60360  0.71830  0.76440  Biso   1.000  O
  O57      1.0000 0.58210  0.11130  0.34680  Biso   1.000  O
  N22      1.0000 0.60350  0.11880  0.34020  Biso   1.000  N
  O58      1.0000 0.61148  0.09600  0.26030  Biso   1.000  O
  O59      1.0000 0.61790  0.14800  0.42150  Biso   1.000  O
  O60      1.0000 0.56505  0.88690  0.07090  Biso   1.000  O
  O61      1.0000 0.46240  0.31490  0.10270  Biso   1.000  O
  O62      1.0000 0.49415  0.18450  0.19410  Biso   1.000  O
  Pr9      1.0000 0.77146  0.02357  0.38293  Biso   1.000  Pr
  Pr10     1.0000 0.90404  0.94825  0.67971  Biso   1.000  Pr
  Pr11     1.0000 0.82828  0.33821  0.21412  Biso   1.000  Pr
  Pr12     1.0000 0.93084  0.52820  0.34006  Biso   1.000  Pr
  N23      1.0000 0.81631  0.05450  0.48800  Biso   1.000  N
  C55      1.0000 0.81904  0.03270  0.59280  Biso   1.000  C
  C56      1.0000 0.84190  0.01820  0.64880  Biso   1.000  C
  H19      1.0000 0.84330  0.00810  0.72300  Biso   1.000  H
  N24      1.0000 0.86195  0.01850  0.59850  Biso   1.000  N
  C57      1.0000 0.85927  0.03980  0.49380  Biso   1.000  C
  C58      1.0000 0.83661  0.06170  0.44010  Biso   1.000  C
  H20      1.0000 0.83560  0.08180  0.36950  Biso   1.000  H
  C59      1.0000 0.79586  0.01610  0.64470  Biso   1.000  C
  O63      1.0000 0.77613  0.01420  0.58210  Biso   1.000  O
  O64      1.0000 0.79863  0.00210  0.74450  Biso   1.000  O
  C60      1.0000 0.88202  0.03470  0.43630  Biso   1.000  C
  O65      1.0000 0.90086  0.00650  0.49190  Biso   1.000  O
  O66      1.0000 0.88035  0.05690  0.33850  Biso   1.000  O
  N25      1.0000 0.75764  0.17190  0.46800  Biso   1.000  N
  C61      1.0000 0.76586  0.24240  0.42710  Biso   1.000  C
  C62      1.0000 0.74200  0.18000  0.54180  Biso   1.000  C
  H21      1.0000 0.73620  0.13250  0.57320  Biso   1.000  H
  C63      1.0000 0.78445  0.23170  0.34750  Biso   1.000  C
  O67      1.0000 0.78886  0.15780  0.32190  Biso   1.000  O
  O68      1.0000 0.79418  0.29600  0.31520  Biso   1.000  O
  N26      1.0000 0.82840  0.44330  0.38360  Biso   1.000  N
  C64      1.0000 0.85021  0.47020  0.43130  Biso   1.000  C
  C65      1.0000 0.85243  0.51110  0.53100  Biso   1.000  C
  H22      1.0000 0.86780  0.52770  0.56220  Biso   1.000  H
  N27      1.0000 0.83325  0.52670  0.58200  Biso   1.000  N
  C66      1.0000 0.81140  0.50040  0.53460  Biso   1.000  C
  C67      1.0000 0.80904  0.45930  0.43570  Biso   1.000  C
  H23      1.0000 0.79360  0.44240  0.40500  Biso   1.000  H
  C68      1.0000 0.87154  0.45650  0.36720  Biso   1.000  C
  O69      1.0000 0.86735  0.41320  0.28220  Biso   1.000  O
  O70      1.0000 0.89118  0.49120  0.40140  Biso   1.000  O
  C69      1.0000 0.78950  0.52080  0.59330  Biso   1.000  C
  O71      1.0000 0.79330  0.56960  0.67310  Biso   1.000  O
  O72      1.0000 0.76950  0.48970  0.55660  Biso   1.000  O
  N28      1.0000 0.90878  0.82590  0.52700  Biso   1.000  N
  C70      1.0000 0.89405  0.76010  0.53320  Biso   1.000  C
  C71      1.0000 0.89734  0.68680  0.47870  Biso   1.000  C
  H24      1.0000 0.88600  0.64410  0.48130  Biso   1.000  H
  N29      1.0000 0.91628  0.67510  0.42240  Biso   1.000  N
  C72      1.0000 0.93091  0.74110  0.41570  Biso   1.000  C
  C73      1.0000 0.92691  0.81660  0.46540  Biso   1.000  C
  H25      1.0000 0.93710  0.86150  0.45560  Biso   1.000  H
  C74      1.0000 0.87383  0.77050  0.60430  Biso   1.000  C
  O73      1.0000 0.87100  0.84160  0.64390  Biso   1.000  O
  O74      1.0000 0.86143  0.70690  0.61800  Biso   1.000  O
  C75      1.0000 0.95283  0.72780  0.35500  Biso   1.000  C
  O75      1.0000 0.95609  0.65540  0.32060  Biso   1.000  O
  O76      1.0000 0.96635  0.78980  0.34570  Biso   1.000  O
  N30      1.0000 0.97713  0.50870  0.44100  Biso   1.000  N
  C76      1.0000 0.97963  0.50540  0.54800  Biso   1.000  C
  C77      1.0000 0.99741  0.50330  0.39340  Biso   1.000  C
  H26      1.0000 0.99620  0.50530  0.31810  Biso   1.000  H
  C78      1.0000 0.95652  0.51220  0.60120  Biso   1.000  C
  O77      1.0000 0.93739  0.53210  0.54020  Biso   1.000  O
  O78      1.0000 0.95817  0.49850  0.70070  Biso   1.000  O
  N31      1.0000 0.99924  0.93540  0.07500  Biso   1.000  N
  C79      1.0000 0.98335  0.99940  0.06970  Biso   1.000  C
  C80      1.0000 0.01555  0.93640  0.00400  Biso   1.000  C
  H27      1.0000 0.02660  0.89260  0.00380  Biso   1.000  H
  C81      1.0000 0.96425  0.99580  0.14750  Biso   1.000  C
  O79      1.0000 0.96853  0.94800  0.22690  Biso   1.000  O
  O80      1.0000 0.94563  0.04030  0.12510  Biso   1.000  O
  O81      1.0000 0.90765  0.09530  0.72640  Biso   1.000  O
  O82      1.0000 0.94256  0.37830  0.38300  Biso   1.000  O
  O83      1.0000 0.90430  0.59930  0.19820  Biso   1.000  O
  O84      1.0000 0.02430  0.75980  0.39000  Biso   1.000  O
  O85      1.0000 0.91190  0.11370  0.65790  Biso   1.000  O
  N32      1.0000 0.89890  0.13810  0.72410  Biso   1.000  N
  O86      1.0000 0.88740  0.09190  0.77470  Biso   1.000  O
  O87      1.0000 0.89640  0.21830  0.73560  Biso   1.000  O
  O88      1.0000 0.91790  0.61130  0.15320  Biso   1.000  O
  N33      1.0000 0.89650  0.61880  0.15980  Biso   1.000  N
  O89      1.0000 0.88852  0.59600  0.23970  Biso   1.000  O
  O90      1.0000 0.88210  0.64800  0.07850  Biso   1.000  O
  O91      1.0000 0.93495  0.38690  0.42910  Biso   1.000  O
  O92      1.0000 0.03760  0.81490  0.39730  Biso   1.000  O
  O93      1.0000 0.00585  0.68450  0.30590  Biso   1.000  O
  Pr13     1.0000 0.27146  0.52357  0.38293  Biso   1.000  Pr
  Pr14     1.0000 0.40404  0.44825  0.67971  Biso   1.000  Pr
  Pr15     1.0000 0.32828  0.83821  0.21412  Biso   1.000  Pr
  Pr16     1.0000 0.43084  0.02820  0.34006  Biso   1.000  Pr
  N34      1.0000 0.31631  0.55450  0.48800  Biso   1.000  N
  C82      1.0000 0.31904  0.53270  0.59280  Biso   1.000  C
  C83      1.0000 0.34190  0.51820  0.64880  Biso   1.000  C
  H28      1.0000 0.34330  0.50810  0.72300  Biso   1.000  H
  N35      1.0000 0.36195  0.51850  0.59850  Biso   1.000  N
  C84      1.0000 0.35927  0.53980  0.49380  Biso   1.000  C
  C85      1.0000 0.33661  0.56170  0.44010  Biso   1.000  C
  H29      1.0000 0.33560  0.58180  0.36950  Biso   1.000  H
  C86      1.0000 0.29586  0.51610  0.64470  Biso   1.000  C
  O94      1.0000 0.27613  0.51420  0.58210  Biso   1.000  O
  O95      1.0000 0.29863  0.50210  0.74450  Biso   1.000  O
  C87      1.0000 0.38202  0.53470  0.43630  Biso   1.000  C
  O96      1.0000 0.40086  0.50650  0.49190  Biso   1.000  O
  O97      1.0000 0.38035  0.55690  0.33850  Biso   1.000  O
  N36      1.0000 0.25764  0.67190  0.46800  Biso   1.000  N
  C88      1.0000 0.26586  0.74240  0.42710  Biso   1.000  C
  C89      1.0000 0.24200  0.68000  0.54180  Biso   1.000  C
  H30      1.0000 0.23620  0.63250  0.57320  Biso   1.000  H
  C90      1.0000 0.28445  0.73170  0.34750  Biso   1.000  C
  O98      1.0000 0.28886  0.65780  0.32190  Biso   1.000  O
  O99      1.0000 0.29418  0.79600  0.31520  Biso   1.000  O
  N37      1.0000 0.32840  0.94330  0.38360  Biso   1.000  N
  C91      1.0000 0.35021  0.97020  0.43130  Biso   1.000  C
  C92      1.0000 0.35243  0.01110  0.53100  Biso   1.000  C
  H31      1.0000 0.36780  0.02770  0.56220  Biso   1.000  H
  N38      1.0000 0.33325  0.02670  0.58200  Biso   1.000  N
  C93      1.0000 0.31140  0.00040  0.53460  Biso   1.000  C
  C94      1.0000 0.30904  0.95930  0.43570  Biso   1.000  C
  H32      1.0000 0.29360  0.94240  0.40500  Biso   1.000  H
  C95      1.0000 0.37154  0.95650  0.36720  Biso   1.000  C
  O100     1.0000 0.36735  0.91320  0.28220  Biso   1.000  O
  O101     1.0000 0.39118  0.99120  0.40140  Biso   1.000  O
  C96      1.0000 0.28950  0.02080  0.59330  Biso   1.000  C
  O102     1.0000 0.29330  0.06960  0.67310  Biso   1.000  O
  O103     1.0000 0.26950  0.98970  0.55660  Biso   1.000  O
  N39      1.0000 0.40878  0.32590  0.52700  Biso   1.000  N
  C97      1.0000 0.39405  0.26010  0.53320  Biso   1.000  C
  C98      1.0000 0.39734  0.18680  0.47870  Biso   1.000  C
  H33      1.0000 0.38600  0.14410  0.48130  Biso   1.000  H
  N40      1.0000 0.41628  0.17510  0.42240  Biso   1.000  N
  C99      1.0000 0.43091  0.24110  0.41570  Biso   1.000  C
  C100     1.0000 0.42691  0.31660  0.46540  Biso   1.000  C
  H34      1.0000 0.43710  0.36150  0.45560  Biso   1.000  H
  C101     1.0000 0.37383  0.27050  0.60430  Biso   1.000  C
  O104     1.0000 0.37100  0.34160  0.64390  Biso   1.000  O
  O105     1.0000 0.36143  0.20690  0.61800  Biso   1.000  O
  C102     1.0000 0.45283  0.22780  0.35500  Biso   1.000  C
  O106     1.0000 0.45609  0.15540  0.32060  Biso   1.000  O
  O107     1.0000 0.46635  0.28980  0.34570  Biso   1.000  O
  N41      1.0000 0.47713  0.00870  0.44100  Biso   1.000  N
  C103     1.0000 0.47963  0.00540  0.54800  Biso   1.000  C
  C104     1.0000 0.49741  0.00330  0.39340  Biso   1.000  C
  H35      1.0000 0.49620  0.00530  0.31810  Biso   1.000  H
  C105     1.0000 0.45652  0.01220  0.60120  Biso   1.000  C
  O108     1.0000 0.43739  0.03210  0.54020  Biso   1.000  O
  O109     1.0000 0.45817  0.99850  0.70070  Biso   1.000  O
  N42      1.0000 0.49924  0.43540  0.07500  Biso   1.000  N
  C106     1.0000 0.48335  0.49940  0.06970  Biso   1.000  C
  C107     1.0000 0.51555  0.43640  0.00400  Biso   1.000  C
  H36      1.0000 0.52660  0.39260  0.00380  Biso   1.000  H
  C108     1.0000 0.46425  0.49580  0.14750  Biso   1.000  C
  O110     1.0000 0.46853  0.44800  0.22690  Biso   1.000  O
  O111     1.0000 0.44563  0.54030  0.12510  Biso   1.000  O
  O112     1.0000 0.40765  0.59530  0.72640  Biso   1.000  O
  O113     1.0000 0.44256  0.87830  0.38300  Biso   1.000  O
  O114     1.0000 0.40430  0.09930  0.19820  Biso   1.000  O
  O115     1.0000 0.52430  0.25980  0.39000  Biso   1.000  O
  O116     1.0000 0.41190  0.61370  0.65790  Biso   1.000  O
  N43      1.0000 0.39890  0.63810  0.72410  Biso   1.000  N
  O117     1.0000 0.38740  0.59190  0.77470  Biso   1.000  O
  O118     1.0000 0.39640  0.71830  0.73560  Biso   1.000  O
  O119     1.0000 0.41790  0.11130  0.15320  Biso   1.000  O
  N44      1.0000 0.39650  0.11880  0.15980  Biso   1.000  N
  O120     1.0000 0.38852  0.09600  0.23970  Biso   1.000  O
  O121     1.0000 0.38210  0.14800  0.07850  Biso   1.000  O
  O122     1.0000 0.43495  0.88690  0.42910  Biso   1.000  O
  O123     1.0000 0.53760  0.31490  0.39730  Biso   1.000  O
  O124     1.0000 0.50585  0.18450  0.30590  Biso   1.000  O
  Pr17     1.0000 0.77146  0.97643  0.88293  Biso   1.000  Pr
  Pr18     1.0000 0.90404  0.05175  0.17971  Biso   1.000  Pr
  Pr19     1.0000 0.82828  0.66179  0.71412  Biso   1.000  Pr
  Pr20     1.0000 0.93084  0.47180  0.84006  Biso   1.000  Pr
  N45      1.0000 0.81631  0.94550  0.98800  Biso   1.000  N
  C109     1.0000 0.81904  0.96730  0.09280  Biso   1.000  C
  C110     1.0000 0.84190  0.98180  0.14880  Biso   1.000  C
  H37      1.0000 0.84330  0.99190  0.22300  Biso   1.000  H
  N46      1.0000 0.86195  0.98150  0.09850  Biso   1.000  N
  C111     1.0000 0.85927  0.96020  0.99380  Biso   1.000  C
  C112     1.0000 0.83661  0.93830  0.94010  Biso   1.000  C
  H38      1.0000 0.83560  0.91820  0.86950  Biso   1.000  H
  C113     1.0000 0.79586  0.98390  0.14470  Biso   1.000  C
  O125     1.0000 0.77613  0.98580  0.08210  Biso   1.000  O
  O126     1.0000 0.79863  0.99790  0.24450  Biso   1.000  O
  C114     1.0000 0.88202  0.96530  0.93630  Biso   1.000  C
  O127     1.0000 0.90086  0.99350  0.99190  Biso   1.000  O
  O128     1.0000 0.88035  0.94310  0.83850  Biso   1.000  O
  N47      1.0000 0.75764  0.82810  0.96800  Biso   1.000  N
  C115     1.0000 0.76586  0.75760  0.92710  Biso   1.000  C
  C116     1.0000 0.74200  0.82000  0.04180  Biso   1.000  C
  H39      1.0000 0.73620  0.86750  0.07320  Biso   1.000  H
  C117     1.0000 0.78445  0.76830  0.84750  Biso   1.000  C
  O129     1.0000 0.78886  0.84220  0.82190  Biso   1.000  O
  O130     1.0000 0.79418  0.70400  0.81520  Biso   1.000  O
  N48      1.0000 0.82840  0.55670  0.88360  Biso   1.000  N
  C118     1.0000 0.85021  0.52980  0.93130  Biso   1.000  C
  C119     1.0000 0.85243  0.48890  0.03100  Biso   1.000  C
  H40      1.0000 0.86780  0.47230  0.06220  Biso   1.000  H
  N49      1.0000 0.83325  0.47330  0.08200  Biso   1.000  N
  C120     1.0000 0.81140  0.49960  0.03460  Biso   1.000  C
  C121     1.0000 0.80904  0.54070  0.93570  Biso   1.000  C
  H41      1.0000 0.79360  0.55760  0.90500  Biso   1.000  H
  C122     1.0000 0.87154  0.54350  0.86720  Biso   1.000  C
  O131     1.0000 0.86735  0.58680  0.78220  Biso   1.000  O
  O132     1.0000 0.89118  0.50880  0.90140  Biso   1.000  O
  C123     1.0000 0.78950  0.47920  0.09330  Biso   1.000  C
  O133     1.0000 0.79330  0.43040  0.17310  Biso   1.000  O
  O134     1.0000 0.76950  0.51030  0.05660  Biso   1.000  O
  N50      1.0000 0.90878  0.17410  0.02700  Biso   1.000  N
  C124     1.0000 0.89405  0.23990  0.03320  Biso   1.000  C
  C125     1.0000 0.89734  0.31320  0.97870  Biso   1.000  C
  H42      1.0000 0.88600  0.35590  0.98130  Biso   1.000  H
  N51      1.0000 0.91628  0.32490  0.92240  Biso   1.000  N
  C126     1.0000 0.93091  0.25890  0.91570  Biso   1.000  C
  C127     1.0000 0.92691  0.18340  0.96540  Biso   1.000  C
  H43      1.0000 0.93710  0.13850  0.95560  Biso   1.000  H
  C128     1.0000 0.87383  0.22950  0.10430  Biso   1.000  C
  O135     1.0000 0.87100  0.15840  0.14390  Biso   1.000  O
  O136     1.0000 0.86143  0.29310  0.11800  Biso   1.000  O
  C129     1.0000 0.95283  0.27220  0.85500  Biso   1.000  C
  O137     1.0000 0.95609  0.34460  0.82060  Biso   1.000  O
  O138     1.0000 0.96635  0.21020  0.84570  Biso   1.000  O
  N52      1.0000 0.97713  0.49130  0.94100  Biso   1.000  N
  C130     1.0000 0.97963  0.49460  0.04800  Biso   1.000  C
  C131     1.0000 0.99741  0.49670  0.89340  Biso   1.000  C
  H44      1.0000 0.99620  0.49470  0.81810  Biso   1.000  H
  C132     1.0000 0.95652  0.48780  0.10120  Biso   1.000  C
  O139     1.0000 0.93739  0.46790  0.04020  Biso   1.000  O
  O140     1.0000 0.95817  0.50150  0.20070  Biso   1.000  O
  N53      1.0000 0.99924  0.06460  0.57500  Biso   1.000  N
  C133     1.0000 0.98335  0.00060  0.56970  Biso   1.000  C
  C134     1.0000 0.01555  0.06360  0.50400  Biso   1.000  C
  H45      1.0000 0.02660  0.10740  0.50380  Biso   1.000  H
  C135     1.0000 0.96425  0.00420  0.64750  Biso   1.000  C
  O141     1.0000 0.96853  0.05200  0.72690  Biso   1.000  O
  O142     1.0000 0.94563  0.95970  0.62510  Biso   1.000  O
  O143     1.0000 0.90765  0.90470  0.22640  Biso   1.000  O
  O144     1.0000 0.94256  0.62170  0.88300  Biso   1.000  O
  O145     1.0000 0.90430  0.40070  0.69820  Biso   1.000  O
  O146     1.0000 0.02430  0.24020  0.89000  Biso   1.000  O
  O147     1.0000 0.91190  0.88630  0.15790  Biso   1.000  O
  N54      1.0000 0.89890  0.86190  0.22410  Biso   1.000  N
  O148     1.0000 0.88740  0.90810  0.27470  Biso   1.000  O
  O149     1.0000 0.89640  0.78170  0.23560  Biso   1.000  O
  O150     1.0000 0.91790  0.38870  0.65320  Biso   1.000  O
  N55      1.0000 0.89650  0.38120  0.65980  Biso   1.000  N
  O151     1.0000 0.88852  0.40400  0.73970  Biso   1.000  O
  O152     1.0000 0.88210  0.35200  0.57850  Biso   1.000  O
  O153     1.0000 0.93495  0.61310  0.92910  Biso   1.000  O
  O154     1.0000 0.03760  0.18510  0.89730  Biso   1.000  O
  O155     1.0000 0.00585  0.31550  0.80590  Biso   1.000  O
  Pr21     1.0000 0.27146  0.47643  0.88293  Biso   1.000  Pr
  Pr22     1.0000 0.40404  0.55175  0.17971  Biso   1.000  Pr
  Pr23     1.0000 0.32828  0.16179  0.71412  Biso   1.000  Pr
  Pr24     1.0000 0.43084  0.97180  0.84006  Biso   1.000  Pr
  N56      1.0000 0.31631  0.44550  0.98800  Biso   1.000  N
  C136     1.0000 0.31904  0.46730  0.09280  Biso   1.000  C
  C137     1.0000 0.34190  0.48180  0.14880  Biso   1.000  C
  H46      1.0000 0.34330  0.49190  0.22300  Biso   1.000  H
  N57      1.0000 0.36195  0.48150  0.09850  Biso   1.000  N
  C138     1.0000 0.35927  0.46020  0.99380  Biso   1.000  C
  C139     1.0000 0.33661  0.43830  0.94010  Biso   1.000  C
  H47      1.0000 0.33560  0.41820  0.86950  Biso   1.000  H
  C140     1.0000 0.29586  0.48390  0.14470  Biso   1.000  C
  O156     1.0000 0.27613  0.48580  0.08210  Biso   1.000  O
  O157     1.0000 0.29863  0.49790  0.24450  Biso   1.000  O
  C141     1.0000 0.38202  0.46530  0.93630  Biso   1.000  C
  O158     1.0000 0.40086  0.49350  0.99190  Biso   1.000  O
  O159     1.0000 0.38035  0.44310  0.83850  Biso   1.000  O
  N58      1.0000 0.25764  0.32810  0.96800  Biso   1.000  N
  C142     1.0000 0.26586  0.25760  0.92710  Biso   1.000  C
  C143     1.0000 0.24200  0.32000  0.04180  Biso   1.000  C
  H48      1.0000 0.23620  0.36750  0.07320  Biso   1.000  H
  C144     1.0000 0.28445  0.26830  0.84750  Biso   1.000  C
  O160     1.0000 0.28886  0.34220  0.82190  Biso   1.000  O
  O161     1.0000 0.29418  0.20400  0.81520  Biso   1.000  O
  N59      1.0000 0.32840  0.05670  0.88360  Biso   1.000  N
  C145     1.0000 0.35021  0.02980  0.93130  Biso   1.000  C
  C146     1.0000 0.35243  0.98890  0.03100  Biso   1.000  C
  H49      1.0000 0.36780  0.97230  0.06220  Biso   1.000  H
  N60      1.0000 0.33325  0.97330  0.08200  Biso   1.000  N
  C147     1.0000 0.31140  0.99960  0.03460  Biso   1.000  C
  C148     1.0000 0.30904  0.04070  0.93570  Biso   1.000  C
  H50      1.0000 0.29360  0.05760  0.90500  Biso   1.000  H
  C149     1.0000 0.37154  0.04350  0.86720  Biso   1.000  C
  O162     1.0000 0.36735  0.08680  0.78220  Biso   1.000  O
  O163     1.0000 0.39118  0.00880  0.90140  Biso   1.000  O
  C150     1.0000 0.28950  0.97920  0.09330  Biso   1.000  C
  O164     1.0000 0.29330  0.93040  0.17310  Biso   1.000  O
  O165     1.0000 0.26950  0.01030  0.05660  Biso   1.000  O
  N61      1.0000 0.40878  0.67410  0.02700  Biso   1.000  N
  C151     1.0000 0.39405  0.73990  0.03320  Biso   1.000  C
  C152     1.0000 0.39734  0.81320  0.97870  Biso   1.000  C
  H51      1.0000 0.38600  0.85590  0.98130  Biso   1.000  H
  N62      1.0000 0.41628  0.82490  0.92240  Biso   1.000  N
  C153     1.0000 0.43091  0.75890  0.91570  Biso   1.000  C
  C154     1.0000 0.42691  0.68340  0.96540  Biso   1.000  C
  H52      1.0000 0.43710  0.63850  0.95560  Biso   1.000  H
  C155     1.0000 0.37383  0.72950  0.10430  Biso   1.000  C
  O166     1.0000 0.37100  0.65840  0.14390  Biso   1.000  O
  O167     1.0000 0.36143  0.79310  0.11800  Biso   1.000  O
  C156     1.0000 0.45283  0.77220  0.85500  Biso   1.000  C
  O168     1.0000 0.45609  0.84460  0.82060  Biso   1.000  O
  O169     1.0000 0.46635  0.71020  0.84570  Biso   1.000  O
  N63      1.0000 0.47713  0.99130  0.94100  Biso   1.000  N
  C157     1.0000 0.47963  0.99460  0.04800  Biso   1.000  C
  C158     1.0000 0.49741  0.99670  0.89340  Biso   1.000  C
  H53      1.0000 0.49620  0.99470  0.81810  Biso   1.000  H
  C159     1.0000 0.45652  0.98780  0.10120  Biso   1.000  C
  O170     1.0000 0.43739  0.96790  0.04020  Biso   1.000  O
  O171     1.0000 0.45817  0.00150  0.20070  Biso   1.000  O
  N64      1.0000 0.49924  0.56460  0.57500  Biso   1.000  N
  C160     1.0000 0.48335  0.50060  0.56970  Biso   1.000  C
  C161     1.0000 0.51555  0.56360  0.50400  Biso   1.000  C
  H54      1.0000 0.52660  0.60740  0.50380  Biso   1.000  H
  C162     1.0000 0.46425  0.50420  0.64750  Biso   1.000  C
  O172     1.0000 0.46853  0.55200  0.72690  Biso   1.000  O
  O173     1.0000 0.44563  0.45970  0.62510  Biso   1.000  O
  O174     1.0000 0.40765  0.40470  0.22640  Biso   1.000  O
  O175     1.0000 0.44256  0.12170  0.88300  Biso   1.000  O
  O176     1.0000 0.40430  0.90070  0.69820  Biso   1.000  O
  O177     1.0000 0.52430  0.74020  0.89000  Biso   1.000  O
  O178     1.0000 0.41190  0.38630  0.15790  Biso   1.000  O
  N65      1.0000 0.39890  0.36190  0.22410  Biso   1.000  N
  O179     1.0000 0.38740  0.40810  0.27470  Biso   1.000  O
  O180     1.0000 0.39640  0.28170  0.23560  Biso   1.000  O
  O181     1.0000 0.41790  0.88870  0.65320  Biso   1.000  O
  N66      1.0000 0.39650  0.88120  0.65980  Biso   1.000  N
  O182     1.0000 0.38852  0.90400  0.73970  Biso   1.000  O
  O183     1.0000 0.38210  0.85200  0.57850  Biso   1.000  O
  O184     1.0000 0.43495  0.11310  0.92910  Biso   1.000  O
  O185     1.0000 0.53760  0.68510  0.89730  Biso   1.000  O
  O186     1.0000 0.50585  0.81550  0.80590  Biso   1.000  O
  Pr25     1.0000 0.22854  0.97643  0.61707  Biso   1.000  Pr
  Pr26     1.0000 0.09596  0.05175  0.32029  Biso   1.000  Pr
  Pr27     1.0000 0.17172  0.66179  0.78588  Biso   1.000  Pr
  Pr28     1.0000 0.06916  0.47180  0.65994  Biso   1.000  Pr
  N67      1.0000 0.18369  0.94550  0.51200  Biso   1.000  N
  C163     1.0000 0.18096  0.96730  0.40720  Biso   1.000  C
  C164     1.0000 0.15810  0.98180  0.35120  Biso   1.000  C
  H55      1.0000 0.15670  0.99190  0.27700  Biso   1.000  H
  N68      1.0000 0.13805  0.98150  0.40150  Biso   1.000  N
  C165     1.0000 0.14073  0.96020  0.50620  Biso   1.000  C
  C166     1.0000 0.16339  0.93830  0.55990  Biso   1.000  C
  H56      1.0000 0.16440  0.91820  0.63050  Biso   1.000  H
  C167     1.0000 0.20414  0.98390  0.35530  Biso   1.000  C
  O187     1.0000 0.22387  0.98580  0.41790  Biso   1.000  O
  O188     1.0000 0.20137  0.99790  0.25550  Biso   1.000  O
  C168     1.0000 0.11798  0.96530  0.56370  Biso   1.000  C
  O189     1.0000 0.09914  0.99350  0.50810  Biso   1.000  O
  O190     1.0000 0.11965  0.94310  0.66150  Biso   1.000  O
  N69      1.0000 0.24236  0.82810  0.53200  Biso   1.000  N
  C169     1.0000 0.23414  0.75760  0.57290  Biso   1.000  C
  C170     1.0000 0.25800  0.82000  0.45820  Biso   1.000  C
  H57      1.0000 0.26380  0.86750  0.42680  Biso   1.000  H
  C171     1.0000 0.21555  0.76830  0.65250  Biso   1.000  C
  O191     1.0000 0.21114  0.84220  0.67810  Biso   1.000  O
  O192     1.0000 0.20582  0.70400  0.68480  Biso   1.000  O
  N70      1.0000 0.17160  0.55670  0.61640  Biso   1.000  N
  C172     1.0000 0.14979  0.52980  0.56870  Biso   1.000  C
  C173     1.0000 0.14757  0.48890  0.46900  Biso   1.000  C
  H58      1.0000 0.13220  0.47230  0.43780  Biso   1.000  H
  N71      1.0000 0.16675  0.47330  0.41800  Biso   1.000  N
  C174     1.0000 0.18860  0.49960  0.46540  Biso   1.000  C
  C175     1.0000 0.19096  0.54070  0.56430  Biso   1.000  C
  H59      1.0000 0.20640  0.55760  0.59500  Biso   1.000  H
  C176     1.0000 0.12846  0.54350  0.63280  Biso   1.000  C
  O193     1.0000 0.13265  0.58680  0.71780  Biso   1.000  O
  O194     1.0000 0.10882  0.50880  0.59860  Biso   1.000  O
  C177     1.0000 0.21050  0.47920  0.40670  Biso   1.000  C
  O195     1.0000 0.20670  0.43040  0.32690  Biso   1.000  O
  O196     1.0000 0.23050  0.51030  0.44340  Biso   1.000  O
  N72      1.0000 0.09122  0.17410  0.47300  Biso   1.000  N
  C178     1.0000 0.10595  0.23990  0.46680  Biso   1.000  C
  C179     1.0000 0.10266  0.31320  0.52130  Biso   1.000  C
  H60      1.0000 0.11400  0.35590  0.51870  Biso   1.000  H
  N73      1.0000 0.08372  0.32490  0.57760  Biso   1.000  N
  C180     1.0000 0.06909  0.25890  0.58430  Biso   1.000  C
  C181     1.0000 0.07309  0.18340  0.53460  Biso   1.000  C
  H61      1.0000 0.06290  0.13850  0.54440  Biso   1.000  H
  C182     1.0000 0.12617  0.22950  0.39570  Biso   1.000  C
  O197     1.0000 0.12900  0.15840  0.35610  Biso   1.000  O
  O198     1.0000 0.13857  0.29310  0.38200  Biso   1.000  O
  C183     1.0000 0.04717  0.27220  0.64500  Biso   1.000  C
  O199     1.0000 0.04391  0.34460  0.67940  Biso   1.000  O
  O200     1.0000 0.03365  0.21020  0.65430  Biso   1.000  O
  N74      1.0000 0.02287  0.49130  0.55900  Biso   1.000  N
  C184     1.0000 0.02037  0.49460  0.45200  Biso   1.000  C
  C185     1.0000 0.00259  0.49670  0.60660  Biso   1.000  C
  H62      1.0000 0.00380  0.49470  0.68190  Biso   1.000  H
  C186     1.0000 0.04348  0.48780  0.39880  Biso   1.000  C
  O201     1.0000 0.06261  0.46790  0.45980  Biso   1.000  O
  O202     1.0000 0.04183  0.50150  0.29930  Biso   1.000  O
  N75      1.0000 0.00076  0.06460  0.92500  Biso   1.000  N
  C187     1.0000 0.01665  0.00060  0.93030  Biso   1.000  C
  C188     1.0000 0.98445  0.06360  0.99600  Biso   1.000  C
  H63      1.0000 0.97340  0.10740  0.99620  Biso   1.000  H
  C189     1.0000 0.03575  0.00420  0.85250  Biso   1.000  C
  O203     1.0000 0.03147  0.05200  0.77310  Biso   1.000  O
  O204     1.0000 0.05437  0.95970  0.87490  Biso   1.000  O
  O205     1.0000 0.09235  0.90470  0.27360  Biso   1.000  O
  O206     1.0000 0.05744  0.62170  0.61700  Biso   1.000  O
  O207     1.0000 0.09570  0.40070  0.80180  Biso   1.000  O
  O208     1.0000 0.97570  0.24020  0.61000  Biso   1.000  O
  O209     1.0000 0.08810  0.88630  0.34210  Biso   1.000  O
  N76      1.0000 0.10110  0.86190  0.27590  Biso   1.000  N
  O210     1.0000 0.11260  0.90810  0.22530  Biso   1.000  O
  O211     1.0000 0.10360  0.78170  0.26440  Biso   1.000  O
  O212     1.0000 0.08210  0.38870  0.84680  Biso   1.000  O
  N77      1.0000 0.10350  0.38120  0.84020  Biso   1.000  N
  O213     1.0000 0.11148  0.40400  0.76030  Biso   1.000  O
  O214     1.0000 0.11790  0.35200  0.92150  Biso   1.000  O
  O215     1.0000 0.06505  0.61310  0.57090  Biso   1.000  O
  O216     1.0000 0.96240  0.18510  0.60270  Biso   1.000  O
  O217     1.0000 0.99415  0.31550  0.69410  Biso   1.000  O
  Pr29     1.0000 0.72854  0.47643  0.61707  Biso   1.000  Pr
  Pr30     1.0000 0.59596  0.55175  0.32029  Biso   1.000  Pr
  Pr31     1.0000 0.67172  0.16179  0.78588  Biso   1.000  Pr
  Pr32     1.0000 0.56916  0.97180  0.65994  Biso   1.000  Pr
  N78      1.0000 0.68369  0.44550  0.51200  Biso   1.000  N
  C190     1.0000 0.68096  0.46730  0.40720  Biso   1.000  C
  C191     1.0000 0.65810  0.48180  0.35120  Biso   1.000  C
  H64      1.0000 0.65670  0.49190  0.27700  Biso   1.000  H
  N79      1.0000 0.63805  0.48150  0.40150  Biso   1.000  N
  C192     1.0000 0.64073  0.46020  0.50620  Biso   1.000  C
  C193     1.0000 0.66339  0.43830  0.55990  Biso   1.000  C
  H65      1.0000 0.66440  0.41820  0.63050  Biso   1.000  H
  C194     1.0000 0.70414  0.48390  0.35530  Biso   1.000  C
  O218     1.0000 0.72387  0.48580  0.41790  Biso   1.000  O
  O219     1.0000 0.70137  0.49790  0.25550  Biso   1.000  O
  C195     1.0000 0.61798  0.46530  0.56370  Biso   1.000  C
  O220     1.0000 0.59914  0.49350  0.50810  Biso   1.000  O
  O221     1.0000 0.61965  0.44310  0.66150  Biso   1.000  O
  N80      1.0000 0.74236  0.32810  0.53200  Biso   1.000  N
  C196     1.0000 0.73414  0.25760  0.57290  Biso   1.000  C
  C197     1.0000 0.75800  0.32000  0.45820  Biso   1.000  C
  H66      1.0000 0.76380  0.36750  0.42680  Biso   1.000  H
  C198     1.0000 0.71555  0.26830  0.65250  Biso   1.000  C
  O222     1.0000 0.71114  0.34220  0.67810  Biso   1.000  O
  O223     1.0000 0.70582  0.20400  0.68480  Biso   1.000  O
  N81      1.0000 0.67160  0.05670  0.61640  Biso   1.000  N
  C199     1.0000 0.64979  0.02980  0.56870  Biso   1.000  C
  C200     1.0000 0.64757  0.98890  0.46900  Biso   1.000  C
  H67      1.0000 0.63220  0.97230  0.43780  Biso   1.000  H
  N82      1.0000 0.66675  0.97330  0.41800  Biso   1.000  N
  C201     1.0000 0.68860  0.99960  0.46540  Biso   1.000  C
  C202     1.0000 0.69096  0.04070  0.56430  Biso   1.000  C
  H68      1.0000 0.70640  0.05760  0.59500  Biso   1.000  H
  C203     1.0000 0.62846  0.04350  0.63280  Biso   1.000  C
  O224     1.0000 0.63265  0.08680  0.71780  Biso   1.000  O
  O225     1.0000 0.60882  0.00880  0.59860  Biso   1.000  O
  C204     1.0000 0.71050  0.97920  0.40670  Biso   1.000  C
  O226     1.0000 0.70670  0.93040  0.32690  Biso   1.000  O
  O227     1.0000 0.73050  0.01030  0.44340  Biso   1.000  O
  N83      1.0000 0.59122  0.67410  0.47300  Biso   1.000  N
  C205     1.0000 0.60595  0.73990  0.46680  Biso   1.000  C
  C206     1.0000 0.60266  0.81320  0.52130  Biso   1.000  C
  H69      1.0000 0.61400  0.85590  0.51870  Biso   1.000  H
  N84      1.0000 0.58372  0.82490  0.57760  Biso   1.000  N
  C207     1.0000 0.56909  0.75890  0.58430  Biso   1.000  C
  C208     1.0000 0.57309  0.68340  0.53460  Biso   1.000  C
  H70      1.0000 0.56290  0.63850  0.54440  Biso   1.000  H
  C209     1.0000 0.62617  0.72950  0.39570  Biso   1.000  C
  O228     1.0000 0.62900  0.65840  0.35610  Biso   1.000  O
  O229     1.0000 0.63857  0.79310  0.38200  Biso   1.000  O
  C210     1.0000 0.54717  0.77220  0.64500  Biso   1.000  C
  O230     1.0000 0.54391  0.84460  0.67940  Biso   1.000  O
  O231     1.0000 0.53365  0.71020  0.65430  Biso   1.000  O
  N85      1.0000 0.52287  0.99130  0.55900  Biso   1.000  N
  C211     1.0000 0.52037  0.99460  0.45200  Biso   1.000  C
  C212     1.0000 0.50259  0.99670  0.60660  Biso   1.000  C
  H71      1.0000 0.50380  0.99470  0.68190  Biso   1.000  H
  C213     1.0000 0.54348  0.98780  0.39880  Biso   1.000  C
  O232     1.0000 0.56261  0.96790  0.45980  Biso   1.000  O
  O233     1.0000 0.54183  0.00150  0.29930  Biso   1.000  O
  N86      1.0000 0.50076  0.56460  0.92500  Biso   1.000  N
  C214     1.0000 0.51665  0.50060  0.93030  Biso   1.000  C
  C215     1.0000 0.48445  0.56360  0.99600  Biso   1.000  C
  H72      1.0000 0.47340  0.60740  0.99620  Biso   1.000  H
  C216     1.0000 0.53575  0.50420  0.85250  Biso   1.000  C
  O234     1.0000 0.53147  0.55200  0.77310  Biso   1.000  O
  O235     1.0000 0.55437  0.45970  0.87490  Biso   1.000  O
  O236     1.0000 0.59235  0.40470  0.27360  Biso   1.000  O
  O237     1.0000 0.55744  0.12170  0.61700  Biso   1.000  O
  O238     1.0000 0.59570  0.90070  0.80180  Biso   1.000  O
  O239     1.0000 0.47570  0.74020  0.61000  Biso   1.000  O
  O240     1.0000 0.58810  0.38630  0.34210  Biso   1.000  O
  N87      1.0000 0.60110  0.36190  0.27590  Biso   1.000  N
  O241     1.0000 0.61260  0.40810  0.22530  Biso   1.000  O
  O242     1.0000 0.60360  0.28170  0.26440  Biso   1.000  O
  O243     1.0000 0.58210  0.88870  0.84680  Biso   1.000  O
  N88      1.0000 0.60350  0.88120  0.84020  Biso   1.000  N
  O244     1.0000 0.61148  0.90400  0.76030  Biso   1.000  O
  O245     1.0000 0.61790  0.85200  0.92150  Biso   1.000  O
  O246     1.0000 0.56505  0.11310  0.57090  Biso   1.000  O
  O247     1.0000 0.46240  0.68510  0.60270  Biso   1.000  O
  O248     1.0000 0.49415  0.81550  0.69410  Biso   1.000  O
  Pr33     1.0000 0.00000  0.83694  0.25000  Biso   1.000  Pr
  Pr34     1.0000 0.50000  0.33694  0.25000  Biso   1.000  Pr
  Pr35     1.0000 0.00000  0.16306  0.75000  Biso   1.000  Pr
  Pr36     1.0000 0.50000  0.66306  0.75000  Biso   1.000  Pr
