data_image0
_cell_length_a       15.5149
_cell_length_b       29.726
_cell_length_c       22.6206
_cell_angle_alpha    90
_cell_angle_beta     97.549
_cell_angle_gamma    90

_symmetry_space_group_name_H-M    "P 1"
_symmetry_int_tables_number       1

loop_
  _symmetry_equiv_pos_as_xyz
  'x, y, z'

loop_
  _atom_site_label
  _atom_site_occupancy
  _atom_site_fract_x
  _atom_site_fract_y
  _atom_site_fract_z
  _atom_site_thermal_displace_type
  _atom_site_B_iso_or_equiv
  _atom_site_type_symbol
  N1       1.0000 0.43570  0.09690  0.29140  Biso   1.000  N
  O1       1.0000 0.38760  0.05737  0.18670  Biso   1.000  O
  O2       1.0000 0.42160  0.00645  0.32970  Biso   1.000  O
  O3       1.0000 0.07790  0.46400  0.29410  Biso   1.000  O
  C1       1.0000 0.37500  0.11780  0.25340  Biso   1.000  C
  C2       1.0000 0.45240  0.11380  0.34670  Biso   1.000  C
  C3       1.0000 0.35400  0.09640  0.19180  Biso   1.000  C
  C4       1.0000 0.36390  0.01570  0.36060  Biso   1.000  C
  C5       1.0000 0.33080  0.15560  0.26900  Biso   1.000  C
  C6       1.0000 0.41080  0.15050  0.36690  Biso   1.000  C
  H1       1.0000 0.49490  0.09970  0.37320  Biso   1.000  H
  O4       1.0000 0.30750  0.11660  0.15220  Biso   1.000  O
  C7       1.0000 0.36610  0.99220  0.42040  Biso   1.000  C
  O5       1.0000 0.30110  0.04270  0.34670  Biso   1.000  O
  C8       1.0000 0.34720  0.17190  0.32670  Biso   1.000  C
  H2       1.0000 0.29060  0.16990  0.24100  Biso   1.000  H
  H3       1.0000 0.42430  0.16070  0.40590  Biso   1.000  H
  C9       1.0000 0.42810  0.96120  0.44010  Biso   1.000  C
  N2       1.0000 0.30010  0.00410  0.45120  Biso   1.000  N
  Dy1      1.0000 0.19033  0.05769  0.40334  Biso   1.000  Dy
  C10      1.0000 0.29720  0.21090  0.34600  Biso   1.000  C
  H4       1.0000 0.47140  0.95300  0.41740  Biso   1.000  H
  C11      1.0000 0.42330  0.94250  0.49570  Biso   1.000  C
  C12      1.0000 0.29520  0.98560  0.50460  Biso   1.000  C
  N3       1.0000 0.16350  0.02740  0.50410  Biso   1.000  N
  N4       1.0000 0.06570  0.08980  0.44700  Biso   1.000  N
  O6       1.0000 0.14270  0.12632  0.36330  Biso   1.000  O
  O7       1.0000 0.27650  0.10390  0.46630  Biso   1.000  O
  N5       1.0000 0.12770  0.95450  0.79530  Biso   1.000  N
  O8       1.0000 0.11970  0.00944  0.88530  Biso   1.000  O
  C13      1.0000 0.25330  0.20730  0.39540  Biso   1.000  C
  C14      1.0000 0.28900  0.25060  0.31310  Biso   1.000  C
  H5       1.0000 0.46430  0.92120  0.51070  Biso   1.000  H
  C15      1.0000 0.35990  0.95450  0.52860  Biso   1.000  C
  C16      1.0000 0.22220  0.99950  0.53450  Biso   1.000  C
  C17      1.0000 0.09440  0.04080  0.52950  Biso   1.000  C
  C18      1.0000 0.03530  0.07230  0.49420  Biso   1.000  C
  C19      1.0000 0.01900  0.12300  0.41610  Biso   1.000  C
  C20      1.0000 0.06970  0.14360  0.36820  Biso   1.000  C
  C21      1.0000 0.32690  0.10940  0.51140  Biso   1.000  C
  C22      1.0000 0.19800  0.24090  0.40810  Biso   1.000  C
  H6       1.0000 0.26120  0.18210  0.41980  Biso   1.000  H
  H7       1.0000 0.31910  0.25470  0.28060  Biso   1.000  H
  C23      1.0000 0.23440  0.28410  0.33010  Biso   1.000  C
  H8       1.0000 0.35900  0.94260  0.56650  Biso   1.000  H
  C24      1.0000 0.21190  0.98490  0.59130  Biso   1.000  C
  C25      1.0000 0.08290  0.02800  0.58640  Biso   1.000  C
  C26      1.0000 0.95410  0.08550  0.50850  Biso   1.000  C
  C27      1.0000 0.94190  0.13770  0.42880  Biso   1.000  C
  O9       1.0000 0.03470  0.17520  0.33840  Biso   1.000  O
  H9       1.0000 0.36780  0.08660  0.51970  Biso   1.000  H
  O10      1.0000 0.33230  0.13870  0.54620  Biso   1.000  O
  C28      1.0000 0.14300  0.23710  0.45660  Biso   1.000  C
  N6       1.0000 0.18720  0.27860  0.37470  Biso   1.000  N
  C29      1.0000 0.22830  0.32850  0.30090  Biso   1.000  C
  H10      1.0000 0.25230  0.96540  0.61160  Biso   1.000  H
  C30      1.0000 0.14130  0.99960  0.61760  Biso   1.000  C
  H11      1.0000 0.03560  0.03870  0.60360  Biso   1.000  H
  H12      1.0000 0.93180  0.07230  0.54050  Biso   1.000  H
  C31      1.0000 0.90790  0.11770  0.47560  Biso   1.000  C
  H13      1.0000 0.91220  0.16060  0.40680  Biso   1.000  H
  Dy2      1.0000 0.44230  0.16927  0.61824  Biso   1.000  Dy
  C32      1.0000 0.14870  0.20230  0.49700  Biso   1.000  C
  N7       1.0000 0.08470  0.26970  0.45760  Biso   1.000  N
  C33      1.0000 0.27990  0.34210  0.25880  Biso   1.000  C
  N8       1.0000 0.16890  0.35640  0.31740  Biso   1.000  N
  C34      1.0000 0.13080  0.98390  0.67810  Biso   1.000  C
  H14      1.0000 0.85340  0.12620  0.48460  Biso   1.000  H
  C35      1.0000 0.09420  0.20160  0.54090  Biso   1.000  C
  H15      1.0000 0.18890  0.17930  0.49490  Biso   1.000  H
  C36      1.0000 0.03050  0.26830  0.49990  Biso   1.000  C
  O11      1.0000 0.97780  0.33790  0.46090  Biso   1.000  O
  O12      1.0000 0.04640  0.40700  0.35280  Biso   1.000  O
  H16      1.0000 0.32290  0.32290  0.24840  Biso   1.000  H
  C37      1.0000 0.26830  0.38390  0.23210  Biso   1.000  C
  C38      1.0000 0.15910  0.39720  0.29300  Biso   1.000  C
  C39      1.0000 0.14380  0.93890  0.69330  Biso   1.000  C
  C40      1.0000 0.11240  0.01370  0.72330  Biso   1.000  C
  C41      1.0000 0.03450  0.23440  0.54080  Biso   1.000  C
  H17      1.0000 0.09880  0.17910  0.56970  Biso   1.000  H
  C42      1.0000 0.96730  0.30740  0.49650  Biso   1.000  C
  C43      1.0000 0.08820  0.42540  0.31550  Biso   1.000  C
  H18      1.0000 0.30020  0.39250  0.20200  Biso   1.000  H
  C44      1.0000 0.20750  0.41230  0.25170  Biso   1.000  C
  H19      1.0000 0.15400  0.91800  0.66450  Biso   1.000  H
  C45      1.0000 0.14150  0.92520  0.75230  Biso   1.000  C
  H20      1.0000 0.10080  0.04380  0.71500  Biso   1.000  H
  C46      1.0000 0.11200  0.99700  0.78050  Biso   1.000  C
  H21      1.0000 0.99560  0.23390  0.56870  Biso   1.000  H
  O13      1.0000 0.91350  0.30810  0.52990  Biso   1.000  O
  H22      1.0000 0.20010  0.44140  0.23670  Biso   1.000  H
  H23      1.0000 0.14980  0.89500  0.76200  Biso   1.000  H
  C47      1.0000 0.10030  0.02780  0.83280  Biso   1.000  C
  O14      1.0000 0.07230  0.06600  0.82360  Biso   1.000  O
  O15      1.0000 0.48890  0.19340  0.72690  Biso   1.000  O
  O16      1.0000 0.59510  0.15840  0.64460  Biso   1.000  O
  Dy3      1.0000 0.08210  0.34210  0.39430  Biso   1.000  Dy
  O17      1.0000 0.01510  0.28960  0.30770  Biso   1.000  O
  H24      1.0000 0.10480  0.08390  0.84320  Biso   1.000  H
  N9       1.0000 0.93570  0.59690  0.29140  Biso   1.000  N
  O18      1.0000 0.88760  0.55737  0.18670  Biso   1.000  O
  O19      1.0000 0.92160  0.50645  0.32970  Biso   1.000  O
  O20      1.0000 0.57790  0.96400  0.29410  Biso   1.000  O
  C48      1.0000 0.87500  0.61780  0.25340  Biso   1.000  C
  C49      1.0000 0.95240  0.61380  0.34670  Biso   1.000  C
  C50      1.0000 0.85400  0.59640  0.19180  Biso   1.000  C
  C51      1.0000 0.86390  0.51570  0.36060  Biso   1.000  C
  C52      1.0000 0.83080  0.65560  0.26900  Biso   1.000  C
  C53      1.0000 0.91080  0.65050  0.36690  Biso   1.000  C
  H25      1.0000 0.99490  0.59970  0.37320  Biso   1.000  H
  O21      1.0000 0.80750  0.61660  0.15220  Biso   1.000  O
  C54      1.0000 0.86610  0.49220  0.42040  Biso   1.000  C
  O22      1.0000 0.80110  0.54270  0.34670  Biso   1.000  O
  C55      1.0000 0.84720  0.67190  0.32670  Biso   1.000  C
  H26      1.0000 0.79060  0.66990  0.24100  Biso   1.000  H
  H27      1.0000 0.92430  0.66070  0.40590  Biso   1.000  H
  C56      1.0000 0.92810  0.46120  0.44010  Biso   1.000  C
  N10      1.0000 0.80010  0.50410  0.45120  Biso   1.000  N
  Dy4      1.0000 0.69033  0.55769  0.40334  Biso   1.000  Dy
  C57      1.0000 0.79720  0.71090  0.34600  Biso   1.000  C
  H28      1.0000 0.97140  0.45300  0.41740  Biso   1.000  H
  C58      1.0000 0.92330  0.44250  0.49570  Biso   1.000  C
  C59      1.0000 0.79520  0.48560  0.50460  Biso   1.000  C
  N11      1.0000 0.66350  0.52740  0.50410  Biso   1.000  N
  N12      1.0000 0.56570  0.58980  0.44700  Biso   1.000  N
  O23      1.0000 0.64270  0.62632  0.36330  Biso   1.000  O
  O24      1.0000 0.77650  0.60390  0.46630  Biso   1.000  O
  N13      1.0000 0.62770  0.45450  0.79530  Biso   1.000  N
  O25      1.0000 0.61970  0.50944  0.88530  Biso   1.000  O
  C60      1.0000 0.75330  0.70730  0.39540  Biso   1.000  C
  C61      1.0000 0.78900  0.75060  0.31310  Biso   1.000  C
  H29      1.0000 0.96430  0.42120  0.51070  Biso   1.000  H
  C62      1.0000 0.85990  0.45450  0.52860  Biso   1.000  C
  C63      1.0000 0.72220  0.49950  0.53450  Biso   1.000  C
  C64      1.0000 0.59440  0.54080  0.52950  Biso   1.000  C
  C65      1.0000 0.53530  0.57230  0.49420  Biso   1.000  C
  C66      1.0000 0.51900  0.62300  0.41610  Biso   1.000  C
  C67      1.0000 0.56970  0.64360  0.36820  Biso   1.000  C
  C68      1.0000 0.82690  0.60940  0.51140  Biso   1.000  C
  C69      1.0000 0.69800  0.74090  0.40810  Biso   1.000  C
  H30      1.0000 0.76120  0.68210  0.41980  Biso   1.000  H
  H31      1.0000 0.81910  0.75470  0.28060  Biso   1.000  H
  C70      1.0000 0.73440  0.78410  0.33010  Biso   1.000  C
  H32      1.0000 0.85900  0.44260  0.56650  Biso   1.000  H
  C71      1.0000 0.71190  0.48490  0.59130  Biso   1.000  C
  C72      1.0000 0.58290  0.52800  0.58640  Biso   1.000  C
  C73      1.0000 0.45410  0.58550  0.50850  Biso   1.000  C
  C74      1.0000 0.44190  0.63770  0.42880  Biso   1.000  C
  O26      1.0000 0.53470  0.67520  0.33840  Biso   1.000  O
  H33      1.0000 0.86780  0.58660  0.51970  Biso   1.000  H
  O27      1.0000 0.83230  0.63870  0.54620  Biso   1.000  O
  C75      1.0000 0.64300  0.73710  0.45660  Biso   1.000  C
  N14      1.0000 0.68720  0.77860  0.37470  Biso   1.000  N
  C76      1.0000 0.72830  0.82850  0.30090  Biso   1.000  C
  H34      1.0000 0.75230  0.46540  0.61160  Biso   1.000  H
  C77      1.0000 0.64130  0.49960  0.61760  Biso   1.000  C
  H35      1.0000 0.53560  0.53870  0.60360  Biso   1.000  H
  H36      1.0000 0.43180  0.57230  0.54050  Biso   1.000  H
  C78      1.0000 0.40790  0.61770  0.47560  Biso   1.000  C
  H37      1.0000 0.41220  0.66060  0.40680  Biso   1.000  H
  Dy5      1.0000 0.94230  0.66927  0.61824  Biso   1.000  Dy
  C79      1.0000 0.64870  0.70230  0.49700  Biso   1.000  C
  N15      1.0000 0.58470  0.76970  0.45760  Biso   1.000  N
  C80      1.0000 0.77990  0.84210  0.25880  Biso   1.000  C
  N16      1.0000 0.66890  0.85640  0.31740  Biso   1.000  N
  C81      1.0000 0.63080  0.48390  0.67810  Biso   1.000  C
  H38      1.0000 0.35340  0.62620  0.48460  Biso   1.000  H
  C82      1.0000 0.59420  0.70160  0.54090  Biso   1.000  C
  H39      1.0000 0.68890  0.67930  0.49490  Biso   1.000  H
  C83      1.0000 0.53050  0.76830  0.49990  Biso   1.000  C
  O28      1.0000 0.47780  0.83790  0.46090  Biso   1.000  O
  O29      1.0000 0.54640  0.90700  0.35280  Biso   1.000  O
  H40      1.0000 0.82290  0.82290  0.24840  Biso   1.000  H
  C84      1.0000 0.76830  0.88390  0.23210  Biso   1.000  C
  C85      1.0000 0.65910  0.89720  0.29300  Biso   1.000  C
  C86      1.0000 0.64380  0.43890  0.69330  Biso   1.000  C
  C87      1.0000 0.61240  0.51370  0.72330  Biso   1.000  C
  C88      1.0000 0.53450  0.73440  0.54080  Biso   1.000  C
  H41      1.0000 0.59880  0.67910  0.56970  Biso   1.000  H
  C89      1.0000 0.46730  0.80740  0.49650  Biso   1.000  C
  C90      1.0000 0.58820  0.92540  0.31550  Biso   1.000  C
  H42      1.0000 0.80020  0.89250  0.20200  Biso   1.000  H
  C91      1.0000 0.70750  0.91230  0.25170  Biso   1.000  C
  H43      1.0000 0.65400  0.41800  0.66450  Biso   1.000  H
  C92      1.0000 0.64150  0.42520  0.75230  Biso   1.000  C
  H44      1.0000 0.60080  0.54380  0.71500  Biso   1.000  H
  C93      1.0000 0.61200  0.49700  0.78050  Biso   1.000  C
  H45      1.0000 0.49560  0.73390  0.56870  Biso   1.000  H
  O30      1.0000 0.41350  0.80810  0.52990  Biso   1.000  O
  H46      1.0000 0.70010  0.94140  0.23670  Biso   1.000  H
  H47      1.0000 0.64980  0.39500  0.76200  Biso   1.000  H
  C94      1.0000 0.60030  0.52780  0.83280  Biso   1.000  C
  O31      1.0000 0.57230  0.56600  0.82360  Biso   1.000  O
  O32      1.0000 0.98890  0.69340  0.72690  Biso   1.000  O
  O33      1.0000 0.09510  0.65840  0.64460  Biso   1.000  O
  Dy6      1.0000 0.58210  0.84210  0.39430  Biso   1.000  Dy
  O34      1.0000 0.51510  0.78960  0.30770  Biso   1.000  O
  H48      1.0000 0.60480  0.58390  0.84320  Biso   1.000  H
  N17      1.0000 0.56430  0.09690  0.20860  Biso   1.000  N
  O35      1.0000 0.61240  0.05737  0.31330  Biso   1.000  O
  O36      1.0000 0.57840  0.00645  0.17030  Biso   1.000  O
  O37      1.0000 0.92210  0.46400  0.20590  Biso   1.000  O
  C95      1.0000 0.62500  0.11780  0.24660  Biso   1.000  C
  C96      1.0000 0.54760  0.11380  0.15330  Biso   1.000  C
  C97      1.0000 0.64600  0.09640  0.30820  Biso   1.000  C
  C98      1.0000 0.63610  0.01570  0.13940  Biso   1.000  C
  C99      1.0000 0.66920  0.15560  0.23100  Biso   1.000  C
  C100     1.0000 0.58920  0.15050  0.13310  Biso   1.000  C
  H49      1.0000 0.50510  0.09970  0.12680  Biso   1.000  H
  O38      1.0000 0.69250  0.11660  0.34780  Biso   1.000  O
  C101     1.0000 0.63390  0.99220  0.07960  Biso   1.000  C
  O39      1.0000 0.69890  0.04270  0.15330  Biso   1.000  O
  C102     1.0000 0.65280  0.17190  0.17330  Biso   1.000  C
  H50      1.0000 0.70940  0.16990  0.25900  Biso   1.000  H
  H51      1.0000 0.57570  0.16070  0.09410  Biso   1.000  H
  C103     1.0000 0.57190  0.96120  0.05990  Biso   1.000  C
  N18      1.0000 0.69990  0.00410  0.04880  Biso   1.000  N
  Dy7      1.0000 0.80967  0.05769  0.09666  Biso   1.000  Dy
  C104     1.0000 0.70280  0.21090  0.15400  Biso   1.000  C
  H52      1.0000 0.52860  0.95300  0.08260  Biso   1.000  H
  C105     1.0000 0.57670  0.94250  0.00430  Biso   1.000  C
  C106     1.0000 0.70480  0.98560  0.99540  Biso   1.000  C
  N19      1.0000 0.83650  0.02740  0.99590  Biso   1.000  N
  N20      1.0000 0.93430  0.08980  0.05300  Biso   1.000  N
  O40      1.0000 0.85730  0.12632  0.13670  Biso   1.000  O
  O41      1.0000 0.72350  0.10390  0.03370  Biso   1.000  O
  N21      1.0000 0.87230  0.95450  0.70470  Biso   1.000  N
  O42      1.0000 0.88030  0.00944  0.61470  Biso   1.000  O
  C107     1.0000 0.74670  0.20730  0.10460  Biso   1.000  C
  C108     1.0000 0.71100  0.25060  0.18690  Biso   1.000  C
  H53      1.0000 0.53570  0.92120  0.98930  Biso   1.000  H
  C109     1.0000 0.64010  0.95450  0.97140  Biso   1.000  C
  C110     1.0000 0.77780  0.99950  0.96550  Biso   1.000  C
  C111     1.0000 0.90560  0.04080  0.97050  Biso   1.000  C
  C112     1.0000 0.96470  0.07230  0.00580  Biso   1.000  C
  C113     1.0000 0.98100  0.12300  0.08390  Biso   1.000  C
  C114     1.0000 0.93030  0.14360  0.13180  Biso   1.000  C
  C115     1.0000 0.67310  0.10940  0.98860  Biso   1.000  C
  C116     1.0000 0.80200  0.24090  0.09190  Biso   1.000  C
  H54      1.0000 0.73880  0.18210  0.08020  Biso   1.000  H
  H55      1.0000 0.68090  0.25470  0.21940  Biso   1.000  H
  C117     1.0000 0.76560  0.28410  0.16990  Biso   1.000  C
  H56      1.0000 0.64100  0.94260  0.93350  Biso   1.000  H
  C118     1.0000 0.78810  0.98490  0.90870  Biso   1.000  C
  C119     1.0000 0.91710  0.02800  0.91360  Biso   1.000  C
  C120     1.0000 0.04590  0.08550  0.99150  Biso   1.000  C
  C121     1.0000 0.05810  0.13770  0.07120  Biso   1.000  C
  O43      1.0000 0.96530  0.17520  0.16160  Biso   1.000  O
  H57      1.0000 0.63220  0.08660  0.98030  Biso   1.000  H
  O44      1.0000 0.66770  0.13870  0.95380  Biso   1.000  O
  C122     1.0000 0.85700  0.23710  0.04340  Biso   1.000  C
  N22      1.0000 0.81280  0.27860  0.12530  Biso   1.000  N
  C123     1.0000 0.77170  0.32850  0.19910  Biso   1.000  C
  H58      1.0000 0.74770  0.96540  0.88840  Biso   1.000  H
  C124     1.0000 0.85870  0.99960  0.88240  Biso   1.000  C
  H59      1.0000 0.96440  0.03870  0.89640  Biso   1.000  H
  H60      1.0000 0.06820  0.07230  0.95950  Biso   1.000  H
  C125     1.0000 0.09210  0.11770  0.02440  Biso   1.000  C
  H61      1.0000 0.08780  0.16060  0.09320  Biso   1.000  H
  Dy8      1.0000 0.55770  0.16927  0.88176  Biso   1.000  Dy
  C126     1.0000 0.85130  0.20230  0.00300  Biso   1.000  C
  N23      1.0000 0.91530  0.26970  0.04240  Biso   1.000  N
  C127     1.0000 0.72010  0.34210  0.24120  Biso   1.000  C
  N24      1.0000 0.83110  0.35640  0.18260  Biso   1.000  N
  C128     1.0000 0.86920  0.98390  0.82190  Biso   1.000  C
  H62      1.0000 0.14660  0.12620  0.01540  Biso   1.000  H
  C129     1.0000 0.90580  0.20160  0.95910  Biso   1.000  C
  H63      1.0000 0.81110  0.17930  0.00510  Biso   1.000  H
  C130     1.0000 0.96950  0.26830  0.00010  Biso   1.000  C
  O45      1.0000 0.02220  0.33790  0.03910  Biso   1.000  O
  O46      1.0000 0.95360  0.40700  0.14720  Biso   1.000  O
  H64      1.0000 0.67710  0.32290  0.25160  Biso   1.000  H
  C131     1.0000 0.73170  0.38390  0.26790  Biso   1.000  C
  C132     1.0000 0.84090  0.39720  0.20700  Biso   1.000  C
  C133     1.0000 0.85620  0.93890  0.80670  Biso   1.000  C
  C134     1.0000 0.88760  0.01370  0.77670  Biso   1.000  C
  C135     1.0000 0.96550  0.23440  0.95920  Biso   1.000  C
  H65      1.0000 0.90120  0.17910  0.93030  Biso   1.000  H
  C136     1.0000 0.03270  0.30740  0.00350  Biso   1.000  C
  C137     1.0000 0.91180  0.42540  0.18450  Biso   1.000  C
  H66      1.0000 0.69980  0.39250  0.29800  Biso   1.000  H
  C138     1.0000 0.79250  0.41230  0.24830  Biso   1.000  C
  H67      1.0000 0.84600  0.91800  0.83550  Biso   1.000  H
  C139     1.0000 0.85850  0.92520  0.74770  Biso   1.000  C
  H68      1.0000 0.89920  0.04380  0.78500  Biso   1.000  H
  C140     1.0000 0.88800  0.99700  0.71950  Biso   1.000  C
  H69      1.0000 0.00440  0.23390  0.93130  Biso   1.000  H
  O47      1.0000 0.08650  0.30810  0.97010  Biso   1.000  O
  H70      1.0000 0.79990  0.44140  0.26330  Biso   1.000  H
  H71      1.0000 0.85020  0.89500  0.73800  Biso   1.000  H
  C141     1.0000 0.89970  0.02780  0.66720  Biso   1.000  C
  O48      1.0000 0.92770  0.06600  0.67640  Biso   1.000  O
  O49      1.0000 0.51110  0.19340  0.77310  Biso   1.000  O
  O50      1.0000 0.40490  0.15840  0.85540  Biso   1.000  O
  Dy9      1.0000 0.91790  0.34210  0.10570  Biso   1.000  Dy
  O51      1.0000 0.98490  0.28960  0.19230  Biso   1.000  O
  H72      1.0000 0.89520  0.08390  0.65680  Biso   1.000  H
  N25      1.0000 0.06430  0.59690  0.20860  Biso   1.000  N
  O52      1.0000 0.11240  0.55737  0.31330  Biso   1.000  O
  O53      1.0000 0.07840  0.50645  0.17030  Biso   1.000  O
  O54      1.0000 0.42210  0.96400  0.20590  Biso   1.000  O
  C142     1.0000 0.12500  0.61780  0.24660  Biso   1.000  C
  C143     1.0000 0.04760  0.61380  0.15330  Biso   1.000  C
  C144     1.0000 0.14600  0.59640  0.30820  Biso   1.000  C
  C145     1.0000 0.13610  0.51570  0.13940  Biso   1.000  C
  C146     1.0000 0.16920  0.65560  0.23100  Biso   1.000  C
  C147     1.0000 0.08920  0.65050  0.13310  Biso   1.000  C
  H73      1.0000 0.00510  0.59970  0.12680  Biso   1.000  H
  O55      1.0000 0.19250  0.61660  0.34780  Biso   1.000  O
  C148     1.0000 0.13390  0.49220  0.07960  Biso   1.000  C
  O56      1.0000 0.19890  0.54270  0.15330  Biso   1.000  O
  C149     1.0000 0.15280  0.67190  0.17330  Biso   1.000  C
  H74      1.0000 0.20940  0.66990  0.25900  Biso   1.000  H
  H75      1.0000 0.07570  0.66070  0.09410  Biso   1.000  H
  C150     1.0000 0.07190  0.46120  0.05990  Biso   1.000  C
  N26      1.0000 0.19990  0.50410  0.04880  Biso   1.000  N
  Dy10     1.0000 0.30967  0.55769  0.09666  Biso   1.000  Dy
  C151     1.0000 0.20280  0.71090  0.15400  Biso   1.000  C
  H76      1.0000 0.02860  0.45300  0.08260  Biso   1.000  H
  C152     1.0000 0.07670  0.44250  0.00430  Biso   1.000  C
  C153     1.0000 0.20480  0.48560  0.99540  Biso   1.000  C
  N27      1.0000 0.33650  0.52740  0.99590  Biso   1.000  N
  N28      1.0000 0.43430  0.58980  0.05300  Biso   1.000  N
  O57      1.0000 0.35730  0.62632  0.13670  Biso   1.000  O
  O58      1.0000 0.22350  0.60390  0.03370  Biso   1.000  O
  N29      1.0000 0.37230  0.45450  0.70470  Biso   1.000  N
  O59      1.0000 0.38030  0.50944  0.61470  Biso   1.000  O
  C154     1.0000 0.24670  0.70730  0.10460  Biso   1.000  C
  C155     1.0000 0.21100  0.75060  0.18690  Biso   1.000  C
  H77      1.0000 0.03570  0.42120  0.98930  Biso   1.000  H
  C156     1.0000 0.14010  0.45450  0.97140  Biso   1.000  C
  C157     1.0000 0.27780  0.49950  0.96550  Biso   1.000  C
  C158     1.0000 0.40560  0.54080  0.97050  Biso   1.000  C
  C159     1.0000 0.46470  0.57230  0.00580  Biso   1.000  C
  C160     1.0000 0.48100  0.62300  0.08390  Biso   1.000  C
  C161     1.0000 0.43030  0.64360  0.13180  Biso   1.000  C
  C162     1.0000 0.17310  0.60940  0.98860  Biso   1.000  C
  C163     1.0000 0.30200  0.74090  0.09190  Biso   1.000  C
  H78      1.0000 0.23880  0.68210  0.08020  Biso   1.000  H
  H79      1.0000 0.18090  0.75470  0.21940  Biso   1.000  H
  C164     1.0000 0.26560  0.78410  0.16990  Biso   1.000  C
  H80      1.0000 0.14100  0.44260  0.93350  Biso   1.000  H
  C165     1.0000 0.28810  0.48490  0.90870  Biso   1.000  C
  C166     1.0000 0.41710  0.52800  0.91360  Biso   1.000  C
  C167     1.0000 0.54590  0.58550  0.99150  Biso   1.000  C
  C168     1.0000 0.55810  0.63770  0.07120  Biso   1.000  C
  O60      1.0000 0.46530  0.67520  0.16160  Biso   1.000  O
  H81      1.0000 0.13220  0.58660  0.98030  Biso   1.000  H
  O61      1.0000 0.16770  0.63870  0.95380  Biso   1.000  O
  C169     1.0000 0.35700  0.73710  0.04340  Biso   1.000  C
  N30      1.0000 0.31280  0.77860  0.12530  Biso   1.000  N
  C170     1.0000 0.27170  0.82850  0.19910  Biso   1.000  C
  H82      1.0000 0.24770  0.46540  0.88840  Biso   1.000  H
  C171     1.0000 0.35870  0.49960  0.88240  Biso   1.000  C
  H83      1.0000 0.46440  0.53870  0.89640  Biso   1.000  H
  H84      1.0000 0.56820  0.57230  0.95950  Biso   1.000  H
  C172     1.0000 0.59210  0.61770  0.02440  Biso   1.000  C
  H85      1.0000 0.58780  0.66060  0.09320  Biso   1.000  H
  Dy11     1.0000 0.05770  0.66927  0.88176  Biso   1.000  Dy
  C173     1.0000 0.35130  0.70230  0.00300  Biso   1.000  C
  N31      1.0000 0.41530  0.76970  0.04240  Biso   1.000  N
  C174     1.0000 0.22010  0.84210  0.24120  Biso   1.000  C
  N32      1.0000 0.33110  0.85640  0.18260  Biso   1.000  N
  C175     1.0000 0.36920  0.48390  0.82190  Biso   1.000  C
  H86      1.0000 0.64660  0.62620  0.01540  Biso   1.000  H
  C176     1.0000 0.40580  0.70160  0.95910  Biso   1.000  C
  H87      1.0000 0.31110  0.67930  0.00510  Biso   1.000  H
  C177     1.0000 0.46950  0.76830  0.00010  Biso   1.000  C
  O62      1.0000 0.52220  0.83790  0.03910  Biso   1.000  O
  O63      1.0000 0.45360  0.90700  0.14720  Biso   1.000  O
  H88      1.0000 0.17710  0.82290  0.25160  Biso   1.000  H
  C178     1.0000 0.23170  0.88390  0.26790  Biso   1.000  C
  C179     1.0000 0.34090  0.89720  0.20700  Biso   1.000  C
  C180     1.0000 0.35620  0.43890  0.80670  Biso   1.000  C
  C181     1.0000 0.38760  0.51370  0.77670  Biso   1.000  C
  C182     1.0000 0.46550  0.73440  0.95920  Biso   1.000  C
  H89      1.0000 0.40120  0.67910  0.93030  Biso   1.000  H
  C183     1.0000 0.53270  0.80740  0.00350  Biso   1.000  C
  C184     1.0000 0.41180  0.92540  0.18450  Biso   1.000  C
  H90      1.0000 0.19980  0.89250  0.29800  Biso   1.000  H
  C185     1.0000 0.29250  0.91230  0.24830  Biso   1.000  C
  H91      1.0000 0.34600  0.41800  0.83550  Biso   1.000  H
  C186     1.0000 0.35850  0.42520  0.74770  Biso   1.000  C
  H92      1.0000 0.39920  0.54380  0.78500  Biso   1.000  H
  C187     1.0000 0.38800  0.49700  0.71950  Biso   1.000  C
  H93      1.0000 0.50440  0.73390  0.93130  Biso   1.000  H
  O64      1.0000 0.58650  0.80810  0.97010  Biso   1.000  O
  H94      1.0000 0.29990  0.94140  0.26330  Biso   1.000  H
  H95      1.0000 0.35020  0.39500  0.73800  Biso   1.000  H
  C188     1.0000 0.39970  0.52780  0.66720  Biso   1.000  C
  O65      1.0000 0.42770  0.56600  0.67640  Biso   1.000  O
  O66      1.0000 0.01110  0.69340  0.77310  Biso   1.000  O
  O67      1.0000 0.90490  0.65840  0.85540  Biso   1.000  O
  Dy12     1.0000 0.41790  0.84210  0.10570  Biso   1.000  Dy
  O68      1.0000 0.48490  0.78960  0.19230  Biso   1.000  O
  H96      1.0000 0.39520  0.58390  0.65680  Biso   1.000  H
  N33      1.0000 0.56430  0.90310  0.70860  Biso   1.000  N
  O69      1.0000 0.61240  0.94263  0.81330  Biso   1.000  O
  O70      1.0000 0.57840  0.99355  0.67030  Biso   1.000  O
  O71      1.0000 0.92210  0.53600  0.70590  Biso   1.000  O
  C189     1.0000 0.62500  0.88220  0.74660  Biso   1.000  C
  C190     1.0000 0.54760  0.88620  0.65330  Biso   1.000  C
  C191     1.0000 0.64600  0.90360  0.80820  Biso   1.000  C
  C192     1.0000 0.63610  0.98430  0.63940  Biso   1.000  C
  C193     1.0000 0.66920  0.84440  0.73100  Biso   1.000  C
  C194     1.0000 0.58920  0.84950  0.63310  Biso   1.000  C
  H97      1.0000 0.50510  0.90030  0.62680  Biso   1.000  H
  O72      1.0000 0.69250  0.88340  0.84780  Biso   1.000  O
  C195     1.0000 0.63390  0.00780  0.57960  Biso   1.000  C
  O73      1.0000 0.69890  0.95730  0.65330  Biso   1.000  O
  C196     1.0000 0.65280  0.82810  0.67330  Biso   1.000  C
  H98      1.0000 0.70940  0.83010  0.75900  Biso   1.000  H
  H99      1.0000 0.57570  0.83930  0.59410  Biso   1.000  H
  C197     1.0000 0.57190  0.03880  0.55990  Biso   1.000  C
  N34      1.0000 0.69990  0.99590  0.54880  Biso   1.000  N
  Dy13     1.0000 0.80967  0.94231  0.59666  Biso   1.000  Dy
  C198     1.0000 0.70280  0.78910  0.65400  Biso   1.000  C
  H100     1.0000 0.52860  0.04700  0.58260  Biso   1.000  H
  C199     1.0000 0.57670  0.05750  0.50430  Biso   1.000  C
  C200     1.0000 0.70480  0.01440  0.49540  Biso   1.000  C
  N35      1.0000 0.83650  0.97260  0.49590  Biso   1.000  N
  N36      1.0000 0.93430  0.91020  0.55300  Biso   1.000  N
  O74      1.0000 0.85730  0.87368  0.63670  Biso   1.000  O
  O75      1.0000 0.72350  0.89610  0.53370  Biso   1.000  O
  N37      1.0000 0.87230  0.04550  0.20470  Biso   1.000  N
  O76      1.0000 0.88030  0.99056  0.11470  Biso   1.000  O
  C201     1.0000 0.74670  0.79270  0.60460  Biso   1.000  C
  C202     1.0000 0.71100  0.74940  0.68690  Biso   1.000  C
  H101     1.0000 0.53570  0.07880  0.48930  Biso   1.000  H
  C203     1.0000 0.64010  0.04550  0.47140  Biso   1.000  C
  C204     1.0000 0.77780  0.00050  0.46550  Biso   1.000  C
  C205     1.0000 0.90560  0.95920  0.47050  Biso   1.000  C
  C206     1.0000 0.96470  0.92770  0.50580  Biso   1.000  C
  C207     1.0000 0.98100  0.87700  0.58390  Biso   1.000  C
  C208     1.0000 0.93030  0.85640  0.63180  Biso   1.000  C
  C209     1.0000 0.67310  0.89060  0.48860  Biso   1.000  C
  C210     1.0000 0.80200  0.75910  0.59190  Biso   1.000  C
  H102     1.0000 0.73880  0.81790  0.58020  Biso   1.000  H
  H103     1.0000 0.68090  0.74530  0.71940  Biso   1.000  H
  C211     1.0000 0.76560  0.71590  0.66990  Biso   1.000  C
  H104     1.0000 0.64100  0.05740  0.43350  Biso   1.000  H
  C212     1.0000 0.78810  0.01510  0.40870  Biso   1.000  C
  C213     1.0000 0.91710  0.97200  0.41360  Biso   1.000  C
  C214     1.0000 0.04590  0.91450  0.49150  Biso   1.000  C
  C215     1.0000 0.05810  0.86230  0.57120  Biso   1.000  C
  O77      1.0000 0.96530  0.82480  0.66160  Biso   1.000  O
  H105     1.0000 0.63220  0.91340  0.48030  Biso   1.000  H
  O78      1.0000 0.66770  0.86130  0.45380  Biso   1.000  O
  C216     1.0000 0.85700  0.76290  0.54340  Biso   1.000  C
  N38      1.0000 0.81280  0.72140  0.62530  Biso   1.000  N
  C217     1.0000 0.77170  0.67150  0.69910  Biso   1.000  C
  H106     1.0000 0.74770  0.03460  0.38840  Biso   1.000  H
  C218     1.0000 0.85870  0.00040  0.38240  Biso   1.000  C
  H107     1.0000 0.96440  0.96130  0.39640  Biso   1.000  H
  H108     1.0000 0.06820  0.92770  0.45950  Biso   1.000  H
  C219     1.0000 0.09210  0.88230  0.52440  Biso   1.000  C
  H109     1.0000 0.08780  0.83940  0.59320  Biso   1.000  H
  Dy14     1.0000 0.55770  0.83073  0.38176  Biso   1.000  Dy
  C220     1.0000 0.85130  0.79770  0.50300  Biso   1.000  C
  N39      1.0000 0.91530  0.73030  0.54240  Biso   1.000  N
  C221     1.0000 0.72010  0.65790  0.74120  Biso   1.000  C
  N40      1.0000 0.83110  0.64360  0.68260  Biso   1.000  N
  C222     1.0000 0.86920  0.01610  0.32190  Biso   1.000  C
  H110     1.0000 0.14660  0.87380  0.51540  Biso   1.000  H
  C223     1.0000 0.90580  0.79840  0.45910  Biso   1.000  C
  H111     1.0000 0.81110  0.82070  0.50510  Biso   1.000  H
  C224     1.0000 0.96950  0.73170  0.50010  Biso   1.000  C
  O79      1.0000 0.02220  0.66210  0.53910  Biso   1.000  O
  O80      1.0000 0.95360  0.59300  0.64720  Biso   1.000  O
  H112     1.0000 0.67710  0.67710  0.75160  Biso   1.000  H
  C225     1.0000 0.73170  0.61610  0.76790  Biso   1.000  C
  C226     1.0000 0.84090  0.60280  0.70700  Biso   1.000  C
  C227     1.0000 0.85620  0.06110  0.30670  Biso   1.000  C
  C228     1.0000 0.88760  0.98630  0.27670  Biso   1.000  C
  C229     1.0000 0.96550  0.76560  0.45920  Biso   1.000  C
  H113     1.0000 0.90120  0.82090  0.43030  Biso   1.000  H
  C230     1.0000 0.03270  0.69260  0.50350  Biso   1.000  C
  C231     1.0000 0.91180  0.57460  0.68450  Biso   1.000  C
  H114     1.0000 0.69980  0.60750  0.79800  Biso   1.000  H
  C232     1.0000 0.79250  0.58770  0.74830  Biso   1.000  C
  H115     1.0000 0.84600  0.08200  0.33550  Biso   1.000  H
  C233     1.0000 0.85850  0.07480  0.24770  Biso   1.000  C
  H116     1.0000 0.89920  0.95620  0.28500  Biso   1.000  H
  C234     1.0000 0.88800  0.00300  0.21950  Biso   1.000  C
  H117     1.0000 0.00440  0.76610  0.43130  Biso   1.000  H
  O81      1.0000 0.08650  0.69190  0.47010  Biso   1.000  O
  H118     1.0000 0.79990  0.55860  0.76330  Biso   1.000  H
  H119     1.0000 0.85020  0.10500  0.23800  Biso   1.000  H
  C235     1.0000 0.89970  0.97220  0.16720  Biso   1.000  C
  O82      1.0000 0.92770  0.93400  0.17640  Biso   1.000  O
  O83      1.0000 0.51110  0.80660  0.27310  Biso   1.000  O
  O84      1.0000 0.40490  0.84160  0.35540  Biso   1.000  O
  Dy15     1.0000 0.91790  0.65790  0.60570  Biso   1.000  Dy
  O85      1.0000 0.98490  0.71040  0.69230  Biso   1.000  O
  H120     1.0000 0.89520  0.91610  0.15680  Biso   1.000  H
  N41      1.0000 0.06430  0.40310  0.70860  Biso   1.000  N
  O86      1.0000 0.11240  0.44263  0.81330  Biso   1.000  O
  O87      1.0000 0.07840  0.49355  0.67030  Biso   1.000  O
  O88      1.0000 0.42210  0.03600  0.70590  Biso   1.000  O
  C236     1.0000 0.12500  0.38220  0.74660  Biso   1.000  C
  C237     1.0000 0.04760  0.38620  0.65330  Biso   1.000  C
  C238     1.0000 0.14600  0.40360  0.80820  Biso   1.000  C
  C239     1.0000 0.13610  0.48430  0.63940  Biso   1.000  C
  C240     1.0000 0.16920  0.34440  0.73100  Biso   1.000  C
  C241     1.0000 0.08920  0.34950  0.63310  Biso   1.000  C
  H121     1.0000 0.00510  0.40030  0.62680  Biso   1.000  H
  O89      1.0000 0.19250  0.38340  0.84780  Biso   1.000  O
  C242     1.0000 0.13390  0.50780  0.57960  Biso   1.000  C
  O90      1.0000 0.19890  0.45730  0.65330  Biso   1.000  O
  C243     1.0000 0.15280  0.32810  0.67330  Biso   1.000  C
  H122     1.0000 0.20940  0.33010  0.75900  Biso   1.000  H
  H123     1.0000 0.07570  0.33930  0.59410  Biso   1.000  H
  C244     1.0000 0.07190  0.53880  0.55990  Biso   1.000  C
  N42      1.0000 0.19990  0.49590  0.54880  Biso   1.000  N
  Dy16     1.0000 0.30967  0.44231  0.59666  Biso   1.000  Dy
  C245     1.0000 0.20280  0.28910  0.65400  Biso   1.000  C
  H124     1.0000 0.02860  0.54700  0.58260  Biso   1.000  H
  C246     1.0000 0.07670  0.55750  0.50430  Biso   1.000  C
  C247     1.0000 0.20480  0.51440  0.49540  Biso   1.000  C
  N43      1.0000 0.33650  0.47260  0.49590  Biso   1.000  N
  N44      1.0000 0.43430  0.41020  0.55300  Biso   1.000  N
  O91      1.0000 0.35730  0.37368  0.63670  Biso   1.000  O
  O92      1.0000 0.22350  0.39610  0.53370  Biso   1.000  O
  N45      1.0000 0.37230  0.54550  0.20470  Biso   1.000  N
  O93      1.0000 0.38030  0.49056  0.11470  Biso   1.000  O
  C248     1.0000 0.24670  0.29270  0.60460  Biso   1.000  C
  C249     1.0000 0.21100  0.24940  0.68690  Biso   1.000  C
  H125     1.0000 0.03570  0.57880  0.48930  Biso   1.000  H
  C250     1.0000 0.14010  0.54550  0.47140  Biso   1.000  C
  C251     1.0000 0.27780  0.50050  0.46550  Biso   1.000  C
  C252     1.0000 0.40560  0.45920  0.47050  Biso   1.000  C
  C253     1.0000 0.46470  0.42770  0.50580  Biso   1.000  C
  C254     1.0000 0.48100  0.37700  0.58390  Biso   1.000  C
  C255     1.0000 0.43030  0.35640  0.63180  Biso   1.000  C
  C256     1.0000 0.17310  0.39060  0.48860  Biso   1.000  C
  C257     1.0000 0.30200  0.25910  0.59190  Biso   1.000  C
  H126     1.0000 0.23880  0.31790  0.58020  Biso   1.000  H
  H127     1.0000 0.18090  0.24530  0.71940  Biso   1.000  H
  C258     1.0000 0.26560  0.21590  0.66990  Biso   1.000  C
  H128     1.0000 0.14100  0.55740  0.43350  Biso   1.000  H
  C259     1.0000 0.28810  0.51510  0.40870  Biso   1.000  C
  C260     1.0000 0.41710  0.47200  0.41360  Biso   1.000  C
  C261     1.0000 0.54590  0.41450  0.49150  Biso   1.000  C
  C262     1.0000 0.55810  0.36230  0.57120  Biso   1.000  C
  O94      1.0000 0.46530  0.32480  0.66160  Biso   1.000  O
  H129     1.0000 0.13220  0.41340  0.48030  Biso   1.000  H
  O95      1.0000 0.16770  0.36130  0.45380  Biso   1.000  O
  C263     1.0000 0.35700  0.26290  0.54340  Biso   1.000  C
  N46      1.0000 0.31280  0.22140  0.62530  Biso   1.000  N
  C264     1.0000 0.27170  0.17150  0.69910  Biso   1.000  C
  H130     1.0000 0.24770  0.53460  0.38840  Biso   1.000  H
  C265     1.0000 0.35870  0.50040  0.38240  Biso   1.000  C
  H131     1.0000 0.46440  0.46130  0.39640  Biso   1.000  H
  H132     1.0000 0.56820  0.42770  0.45950  Biso   1.000  H
  C266     1.0000 0.59210  0.38230  0.52440  Biso   1.000  C
  H133     1.0000 0.58780  0.33940  0.59320  Biso   1.000  H
  Dy17     1.0000 0.05770  0.33073  0.38176  Biso   1.000  Dy
  C267     1.0000 0.35130  0.29770  0.50300  Biso   1.000  C
  N47      1.0000 0.41530  0.23030  0.54240  Biso   1.000  N
  C268     1.0000 0.22010  0.15790  0.74120  Biso   1.000  C
  N48      1.0000 0.33110  0.14360  0.68260  Biso   1.000  N
  C269     1.0000 0.36920  0.51610  0.32190  Biso   1.000  C
  H134     1.0000 0.64660  0.37380  0.51540  Biso   1.000  H
  C270     1.0000 0.40580  0.29840  0.45910  Biso   1.000  C
  H135     1.0000 0.31110  0.32070  0.50510  Biso   1.000  H
  C271     1.0000 0.46950  0.23170  0.50010  Biso   1.000  C
  O96      1.0000 0.52220  0.16210  0.53910  Biso   1.000  O
  O97      1.0000 0.45360  0.09300  0.64720  Biso   1.000  O
  H136     1.0000 0.17710  0.17710  0.75160  Biso   1.000  H
  C272     1.0000 0.23170  0.11610  0.76790  Biso   1.000  C
  C273     1.0000 0.34090  0.10280  0.70700  Biso   1.000  C
  C274     1.0000 0.35620  0.56110  0.30670  Biso   1.000  C
  C275     1.0000 0.38760  0.48630  0.27670  Biso   1.000  C
  C276     1.0000 0.46550  0.26560  0.45920  Biso   1.000  C
  H137     1.0000 0.40120  0.32090  0.43030  Biso   1.000  H
  C277     1.0000 0.53270  0.19260  0.50350  Biso   1.000  C
  C278     1.0000 0.41180  0.07460  0.68450  Biso   1.000  C
  H138     1.0000 0.19980  0.10750  0.79800  Biso   1.000  H
  C279     1.0000 0.29250  0.08770  0.74830  Biso   1.000  C
  H139     1.0000 0.34600  0.58200  0.33550  Biso   1.000  H
  C280     1.0000 0.35850  0.57480  0.24770  Biso   1.000  C
  H140     1.0000 0.39920  0.45620  0.28500  Biso   1.000  H
  C281     1.0000 0.38800  0.50300  0.21950  Biso   1.000  C
  H141     1.0000 0.50440  0.26610  0.43130  Biso   1.000  H
  O98      1.0000 0.58650  0.19190  0.47010  Biso   1.000  O
  H142     1.0000 0.29990  0.05860  0.76330  Biso   1.000  H
  H143     1.0000 0.35020  0.60500  0.23800  Biso   1.000  H
  C282     1.0000 0.39970  0.47220  0.16720  Biso   1.000  C
  O99      1.0000 0.42770  0.43400  0.17640  Biso   1.000  O
  O100     1.0000 0.01110  0.30660  0.27310  Biso   1.000  O
  O101     1.0000 0.90490  0.34160  0.35540  Biso   1.000  O
  Dy18     1.0000 0.41790  0.15790  0.60570  Biso   1.000  Dy
  O102     1.0000 0.48490  0.21040  0.69230  Biso   1.000  O
  H144     1.0000 0.39520  0.41610  0.15680  Biso   1.000  H
  N49      1.0000 0.43570  0.90310  0.79140  Biso   1.000  N
  O103     1.0000 0.38760  0.94263  0.68670  Biso   1.000  O
  O104     1.0000 0.42160  0.99355  0.82970  Biso   1.000  O
  O105     1.0000 0.07790  0.53600  0.79410  Biso   1.000  O
  C283     1.0000 0.37500  0.88220  0.75340  Biso   1.000  C
  C284     1.0000 0.45240  0.88620  0.84670  Biso   1.000  C
  C285     1.0000 0.35400  0.90360  0.69180  Biso   1.000  C
  C286     1.0000 0.36390  0.98430  0.86060  Biso   1.000  C
  C287     1.0000 0.33080  0.84440  0.76900  Biso   1.000  C
  C288     1.0000 0.41080  0.84950  0.86690  Biso   1.000  C
  H145     1.0000 0.49490  0.90030  0.87320  Biso   1.000  H
  O106     1.0000 0.30750  0.88340  0.65220  Biso   1.000  O
  C289     1.0000 0.36610  0.00780  0.92040  Biso   1.000  C
  O107     1.0000 0.30110  0.95730  0.84670  Biso   1.000  O
  C290     1.0000 0.34720  0.82810  0.82670  Biso   1.000  C
  H146     1.0000 0.29060  0.83010  0.74100  Biso   1.000  H
  H147     1.0000 0.42430  0.83930  0.90590  Biso   1.000  H
  C291     1.0000 0.42810  0.03880  0.94010  Biso   1.000  C
  N50      1.0000 0.30010  0.99590  0.95120  Biso   1.000  N
  Dy19     1.0000 0.19033  0.94231  0.90334  Biso   1.000  Dy
  C292     1.0000 0.29720  0.78910  0.84600  Biso   1.000  C
  H148     1.0000 0.47140  0.04700  0.91740  Biso   1.000  H
  C293     1.0000 0.42330  0.05750  0.99570  Biso   1.000  C
  C294     1.0000 0.29520  0.01440  0.00460  Biso   1.000  C
  N51      1.0000 0.16350  0.97260  0.00410  Biso   1.000  N
  N52      1.0000 0.06570  0.91020  0.94700  Biso   1.000  N
  O108     1.0000 0.14270  0.87368  0.86330  Biso   1.000  O
  O109     1.0000 0.27650  0.89610  0.96630  Biso   1.000  O
  N53      1.0000 0.12770  0.04550  0.29530  Biso   1.000  N
  O110     1.0000 0.11970  0.99056  0.38530  Biso   1.000  O
  C295     1.0000 0.25330  0.79270  0.89540  Biso   1.000  C
  C296     1.0000 0.28900  0.74940  0.81310  Biso   1.000  C
  H149     1.0000 0.46430  0.07880  0.01070  Biso   1.000  H
  C297     1.0000 0.35990  0.04550  0.02860  Biso   1.000  C
  C298     1.0000 0.22220  0.00050  0.03450  Biso   1.000  C
  C299     1.0000 0.09440  0.95920  0.02950  Biso   1.000  C
  C300     1.0000 0.03530  0.92770  0.99420  Biso   1.000  C
  C301     1.0000 0.01900  0.87700  0.91610  Biso   1.000  C
  C302     1.0000 0.06970  0.85640  0.86820  Biso   1.000  C
  C303     1.0000 0.32690  0.89060  0.01140  Biso   1.000  C
  C304     1.0000 0.19800  0.75910  0.90810  Biso   1.000  C
  H150     1.0000 0.26120  0.81790  0.91980  Biso   1.000  H
  H151     1.0000 0.31910  0.74530  0.78060  Biso   1.000  H
  C305     1.0000 0.23440  0.71590  0.83010  Biso   1.000  C
  H152     1.0000 0.35900  0.05740  0.06650  Biso   1.000  H
  C306     1.0000 0.21190  0.01510  0.09130  Biso   1.000  C
  C307     1.0000 0.08290  0.97200  0.08640  Biso   1.000  C
  C308     1.0000 0.95410  0.91450  0.00850  Biso   1.000  C
  C309     1.0000 0.94190  0.86230  0.92880  Biso   1.000  C
  O111     1.0000 0.03470  0.82480  0.83840  Biso   1.000  O
  H153     1.0000 0.36780  0.91340  0.01970  Biso   1.000  H
  O112     1.0000 0.33230  0.86130  0.04620  Biso   1.000  O
  C310     1.0000 0.14300  0.76290  0.95660  Biso   1.000  C
  N54      1.0000 0.18720  0.72140  0.87470  Biso   1.000  N
  C311     1.0000 0.22830  0.67150  0.80090  Biso   1.000  C
  H154     1.0000 0.25230  0.03460  0.11160  Biso   1.000  H
  C312     1.0000 0.14130  0.00040  0.11760  Biso   1.000  C
  H155     1.0000 0.03560  0.96130  0.10360  Biso   1.000  H
  H156     1.0000 0.93180  0.92770  0.04050  Biso   1.000  H
  C313     1.0000 0.90790  0.88230  0.97560  Biso   1.000  C
  H157     1.0000 0.91220  0.83940  0.90680  Biso   1.000  H
  Dy20     1.0000 0.44230  0.83073  0.11824  Biso   1.000  Dy
  C314     1.0000 0.14870  0.79770  0.99700  Biso   1.000  C
  N55      1.0000 0.08470  0.73030  0.95760  Biso   1.000  N
  C315     1.0000 0.27990  0.65790  0.75880  Biso   1.000  C
  N56      1.0000 0.16890  0.64360  0.81740  Biso   1.000  N
  C316     1.0000 0.13080  0.01610  0.17810  Biso   1.000  C
  H158     1.0000 0.85340  0.87380  0.98460  Biso   1.000  H
  C317     1.0000 0.09420  0.79840  0.04090  Biso   1.000  C
  H159     1.0000 0.18890  0.82070  0.99490  Biso   1.000  H
  C318     1.0000 0.03050  0.73170  0.99990  Biso   1.000  C
  O113     1.0000 0.97780  0.66210  0.96090  Biso   1.000  O
  O114     1.0000 0.04640  0.59300  0.85280  Biso   1.000  O
  H160     1.0000 0.32290  0.67710  0.74840  Biso   1.000  H
  C319     1.0000 0.26830  0.61610  0.73210  Biso   1.000  C
  C320     1.0000 0.15910  0.60280  0.79300  Biso   1.000  C
  C321     1.0000 0.14380  0.06110  0.19330  Biso   1.000  C
  C322     1.0000 0.11240  0.98630  0.22330  Biso   1.000  C
  C323     1.0000 0.03450  0.76560  0.04080  Biso   1.000  C
  H161     1.0000 0.09880  0.82090  0.06970  Biso   1.000  H
  C324     1.0000 0.96730  0.69260  0.99650  Biso   1.000  C
  C325     1.0000 0.08820  0.57460  0.81550  Biso   1.000  C
  H162     1.0000 0.30020  0.60750  0.70200  Biso   1.000  H
  C326     1.0000 0.20750  0.58770  0.75170  Biso   1.000  C
  H163     1.0000 0.15400  0.08200  0.16450  Biso   1.000  H
  C327     1.0000 0.14150  0.07480  0.25230  Biso   1.000  C
  H164     1.0000 0.10080  0.95620  0.21500  Biso   1.000  H
  C328     1.0000 0.11200  0.00300  0.28050  Biso   1.000  C
  H165     1.0000 0.99560  0.76610  0.06870  Biso   1.000  H
  O115     1.0000 0.91350  0.69190  0.02990  Biso   1.000  O
  H166     1.0000 0.20010  0.55860  0.73670  Biso   1.000  H
  H167     1.0000 0.14980  0.10500  0.26200  Biso   1.000  H
  C329     1.0000 0.10030  0.97220  0.33280  Biso   1.000  C
  O116     1.0000 0.07230  0.93400  0.32360  Biso   1.000  O
  O117     1.0000 0.48890  0.80660  0.22690  Biso   1.000  O
  O118     1.0000 0.59510  0.84160  0.14460  Biso   1.000  O
  Dy21     1.0000 0.08210  0.65790  0.89430  Biso   1.000  Dy
  O119     1.0000 0.01510  0.71040  0.80770  Biso   1.000  O
  H168     1.0000 0.10480  0.91610  0.34320  Biso   1.000  H
  N57      1.0000 0.93570  0.40310  0.79140  Biso   1.000  N
  O120     1.0000 0.88760  0.44263  0.68670  Biso   1.000  O
  O121     1.0000 0.92160  0.49355  0.82970  Biso   1.000  O
  O122     1.0000 0.57790  0.03600  0.79410  Biso   1.000  O
  C330     1.0000 0.87500  0.38220  0.75340  Biso   1.000  C
  C331     1.0000 0.95240  0.38620  0.84670  Biso   1.000  C
  C332     1.0000 0.85400  0.40360  0.69180  Biso   1.000  C
  C333     1.0000 0.86390  0.48430  0.86060  Biso   1.000  C
  C334     1.0000 0.83080  0.34440  0.76900  Biso   1.000  C
  C335     1.0000 0.91080  0.34950  0.86690  Biso   1.000  C
  H169     1.0000 0.99490  0.40030  0.87320  Biso   1.000  H
  O123     1.0000 0.80750  0.38340  0.65220  Biso   1.000  O
  C336     1.0000 0.86610  0.50780  0.92040  Biso   1.000  C
  O124     1.0000 0.80110  0.45730  0.84670  Biso   1.000  O
  C337     1.0000 0.84720  0.32810  0.82670  Biso   1.000  C
  H170     1.0000 0.79060  0.33010  0.74100  Biso   1.000  H
  H171     1.0000 0.92430  0.33930  0.90590  Biso   1.000  H
  C338     1.0000 0.92810  0.53880  0.94010  Biso   1.000  C
  N58      1.0000 0.80010  0.49590  0.95120  Biso   1.000  N
  Dy22     1.0000 0.69033  0.44231  0.90334  Biso   1.000  Dy
  C339     1.0000 0.79720  0.28910  0.84600  Biso   1.000  C
  H172     1.0000 0.97140  0.54700  0.91740  Biso   1.000  H
  C340     1.0000 0.92330  0.55750  0.99570  Biso   1.000  C
  C341     1.0000 0.79520  0.51440  0.00460  Biso   1.000  C
  N59      1.0000 0.66350  0.47260  0.00410  Biso   1.000  N
  N60      1.0000 0.56570  0.41020  0.94700  Biso   1.000  N
  O125     1.0000 0.64270  0.37368  0.86330  Biso   1.000  O
  O126     1.0000 0.77650  0.39610  0.96630  Biso   1.000  O
  N61      1.0000 0.62770  0.54550  0.29530  Biso   1.000  N
  O127     1.0000 0.61970  0.49056  0.38530  Biso   1.000  O
  C342     1.0000 0.75330  0.29270  0.89540  Biso   1.000  C
  C343     1.0000 0.78900  0.24940  0.81310  Biso   1.000  C
  H173     1.0000 0.96430  0.57880  0.01070  Biso   1.000  H
  C344     1.0000 0.85990  0.54550  0.02860  Biso   1.000  C
  C345     1.0000 0.72220  0.50050  0.03450  Biso   1.000  C
  C346     1.0000 0.59440  0.45920  0.02950  Biso   1.000  C
  C347     1.0000 0.53530  0.42770  0.99420  Biso   1.000  C
  C348     1.0000 0.51900  0.37700  0.91610  Biso   1.000  C
  C349     1.0000 0.56970  0.35640  0.86820  Biso   1.000  C
  C350     1.0000 0.82690  0.39060  0.01140  Biso   1.000  C
  C351     1.0000 0.69800  0.25910  0.90810  Biso   1.000  C
  H174     1.0000 0.76120  0.31790  0.91980  Biso   1.000  H
  H175     1.0000 0.81910  0.24530  0.78060  Biso   1.000  H
  C352     1.0000 0.73440  0.21590  0.83010  Biso   1.000  C
  H176     1.0000 0.85900  0.55740  0.06650  Biso   1.000  H
  C353     1.0000 0.71190  0.51510  0.09130  Biso   1.000  C
  C354     1.0000 0.58290  0.47200  0.08640  Biso   1.000  C
  C355     1.0000 0.45410  0.41450  0.00850  Biso   1.000  C
  C356     1.0000 0.44190  0.36230  0.92880  Biso   1.000  C
  O128     1.0000 0.53470  0.32480  0.83840  Biso   1.000  O
  H177     1.0000 0.86780  0.41340  0.01970  Biso   1.000  H
  O129     1.0000 0.83230  0.36130  0.04620  Biso   1.000  O
  C357     1.0000 0.64300  0.26290  0.95660  Biso   1.000  C
  N62      1.0000 0.68720  0.22140  0.87470  Biso   1.000  N
  C358     1.0000 0.72830  0.17150  0.80090  Biso   1.000  C
  H178     1.0000 0.75230  0.53460  0.11160  Biso   1.000  H
  C359     1.0000 0.64130  0.50040  0.11760  Biso   1.000  C
  H179     1.0000 0.53560  0.46130  0.10360  Biso   1.000  H
  H180     1.0000 0.43180  0.42770  0.04050  Biso   1.000  H
  C360     1.0000 0.40790  0.38230  0.97560  Biso   1.000  C
  H181     1.0000 0.41220  0.33940  0.90680  Biso   1.000  H
  Dy23     1.0000 0.94230  0.33073  0.11824  Biso   1.000  Dy
  C361     1.0000 0.64870  0.29770  0.99700  Biso   1.000  C
  N63      1.0000 0.58470  0.23030  0.95760  Biso   1.000  N
  C362     1.0000 0.77990  0.15790  0.75880  Biso   1.000  C
  N64      1.0000 0.66890  0.14360  0.81740  Biso   1.000  N
  C363     1.0000 0.63080  0.51610  0.17810  Biso   1.000  C
  H182     1.0000 0.35340  0.37380  0.98460  Biso   1.000  H
  C364     1.0000 0.59420  0.29840  0.04090  Biso   1.000  C
  H183     1.0000 0.68890  0.32070  0.99490  Biso   1.000  H
  C365     1.0000 0.53050  0.23170  0.99990  Biso   1.000  C
  O130     1.0000 0.47780  0.16210  0.96090  Biso   1.000  O
  O131     1.0000 0.54640  0.09300  0.85280  Biso   1.000  O
  H184     1.0000 0.82290  0.17710  0.74840  Biso   1.000  H
  C366     1.0000 0.76830  0.11610  0.73210  Biso   1.000  C
  C367     1.0000 0.65910  0.10280  0.79300  Biso   1.000  C
  C368     1.0000 0.64380  0.56110  0.19330  Biso   1.000  C
  C369     1.0000 0.61240  0.48630  0.22330  Biso   1.000  C
  C370     1.0000 0.53450  0.26560  0.04080  Biso   1.000  C
  H185     1.0000 0.59880  0.32090  0.06970  Biso   1.000  H
  C371     1.0000 0.46730  0.19260  0.99650  Biso   1.000  C
  C372     1.0000 0.58820  0.07460  0.81550  Biso   1.000  C
  H186     1.0000 0.80020  0.10750  0.70200  Biso   1.000  H
  C373     1.0000 0.70750  0.08770  0.75170  Biso   1.000  C
  H187     1.0000 0.65400  0.58200  0.16450  Biso   1.000  H
  C374     1.0000 0.64150  0.57480  0.25230  Biso   1.000  C
  H188     1.0000 0.60080  0.45620  0.21500  Biso   1.000  H
  C375     1.0000 0.61200  0.50300  0.28050  Biso   1.000  C
  H189     1.0000 0.49560  0.26610  0.06870  Biso   1.000  H
  O132     1.0000 0.41350  0.19190  0.02990  Biso   1.000  O
  H190     1.0000 0.70010  0.05860  0.73670  Biso   1.000  H
  H191     1.0000 0.64980  0.60500  0.26200  Biso   1.000  H
  C376     1.0000 0.60030  0.47220  0.33280  Biso   1.000  C
  O133     1.0000 0.57230  0.43400  0.32360  Biso   1.000  O
  O134     1.0000 0.98890  0.30660  0.22690  Biso   1.000  O
  O135     1.0000 0.09510  0.34160  0.14460  Biso   1.000  O
  Dy24     1.0000 0.58210  0.15790  0.89430  Biso   1.000  Dy
  O136     1.0000 0.51510  0.21040  0.80770  Biso   1.000  O
  H192     1.0000 0.60480  0.41610  0.34320  Biso   1.000  H
  Dy25     1.0000 0.50000  0.02512  0.25000  Biso   1.000  Dy
  Dy26     1.0000 0.00000  0.52512  0.25000  Biso   1.000  Dy
  Dy27     1.0000 0.50000  0.97488  0.75000  Biso   1.000  Dy
  Dy28     1.0000 0.00000  0.47488  0.75000  Biso   1.000  Dy
