data_image0
_cell_length_a       15.5659
_cell_length_b       29.759
_cell_length_c       22.7134
_cell_angle_alpha    90
_cell_angle_beta     97.155
_cell_angle_gamma    90

_symmetry_space_group_name_H-M    "P 1"
_symmetry_int_tables_number       1

loop_
  _symmetry_equiv_pos_as_xyz
  'x, y, z'

loop_
  _atom_site_label
  _atom_site_occupancy
  _atom_site_fract_x
  _atom_site_fract_y
  _atom_site_fract_z
  _atom_site_thermal_displace_type
  _atom_site_B_iso_or_equiv
  _atom_site_type_symbol
  Tb1      1.0000 0.55681  0.17071  0.38488  Biso   1.000  Tb
  Tb2      1.0000 0.81151  0.05686  0.59681  Biso   1.000  Tb
  N1       1.0000 0.58750  0.23172  0.46170  Biso   1.000  N
  N2       1.0000 0.68760  0.22306  0.37710  Biso   1.000  N
  N3       1.0000 0.66870  0.14545  0.32009  Biso   1.000  N
  N4       1.0000 0.93570  0.40465  0.29112  Biso   1.000  N
  N5       1.0000 0.93560  0.08985  0.55183  Biso   1.000  N
  N6       1.0000 0.83770  0.02635  0.49592  Biso   1.000  N
  N7       1.0000 0.70170  0.00241  0.54986  Biso   1.000  N
  N8       1.0000 0.87430  0.95464  0.20488  Biso   1.000  N
  O1       1.0000 0.48260  0.16368  0.46860  Biso   1.000  O
  O2       1.0000 0.41860  0.19560  0.53870  Biso   1.000  O
  O3       1.0000 0.54490  0.09457  0.35429  Biso   1.000  O
  O4       1.0000 0.57630  0.03817  0.29550  Biso   1.000  O
  O5       1.0000 0.80770  0.38518  0.15410  Biso   1.000  O
  O6       1.0000 0.88840  0.44397  0.18698  Biso   1.000  O
  O7       1.0000 0.86030  0.12605  0.63638  Biso   1.000  O
  O8       1.0000 0.96640  0.17570  0.65945  Biso   1.000  O
  O9       1.0000 0.69950  0.04180  0.65319  Biso   1.000  O
  O10      1.0000 0.58160  0.00424  0.67140  Biso   1.000  O
  O11      1.0000 0.92810  0.06609  0.17807  Biso   1.000  O
  O12      1.0000 0.88270  0.01031  0.11664  Biso   1.000  O
  O13      1.0000 0.66240  0.13871  0.45555  Biso   1.000  O
  O14      1.0000 0.72430  0.10291  0.53351  Biso   1.000  O
  O15      1.0000 0.51420  0.18350  0.28140  Biso   1.000  O
  C1       1.0000 0.47290  0.19440  0.50420  Biso   1.000  C
  C2       1.0000 0.53610  0.23360  0.50500  Biso   1.000  C
  C3       1.0000 0.54040  0.26770  0.54670  Biso   1.000  C
  H1       1.0000 0.50370  0.26780  0.57600  Biso   1.000  H
  C4       1.0000 0.59980  0.30130  0.54400  Biso   1.000  C
  H2       1.0000 0.60380  0.32470  0.57130  Biso   1.000  H
  C5       1.0000 0.65430  0.29996  0.49980  Biso   1.000  C
  H3       1.0000 0.69590  0.32210  0.49770  Biso   1.000  H
  C6       1.0000 0.64550  0.26504  0.45910  Biso   1.000  C
  C7       1.0000 0.69870  0.26095  0.40950  Biso   1.000  C
  C8       1.0000 0.75530  0.29470  0.39670  Biso   1.000  C
  H4       1.0000 0.76480  0.31960  0.42140  Biso   1.000  H
  C9       1.0000 0.79740  0.29076  0.34680  Biso   1.000  C
  C10      1.0000 0.78860  0.25140  0.31470  Biso   1.000  C
  H5       1.0000 0.81750  0.24750  0.28170  Biso   1.000  H
  C11      1.0000 0.73610  0.21757  0.33240  Biso   1.000  C
  C12      1.0000 0.72880  0.17294  0.30270  Biso   1.000  C
  C13      1.0000 0.78180  0.15950  0.26170  Biso   1.000  C
  H6       1.0000 0.82430  0.17870  0.25080  Biso   1.000  H
  C14      1.0000 0.77100  0.11750  0.23730  Biso   1.000  C
  H7       1.0000 0.80580  0.10820  0.20920  Biso   1.000  H
  C15      1.0000 0.70900  0.08899  0.25440  Biso   1.000  C
  H8       1.0000 0.70110  0.06030  0.23830  Biso   1.000  H
  C16      1.0000 0.65900  0.10433  0.29590  Biso   1.000  C
  C17      1.0000 0.58720  0.07643  0.31710  Biso   1.000  C
  C18      1.0000 0.95200  0.38788  0.34630  Biso   1.000  C
  H9       1.0000 0.99460  0.40170  0.37250  Biso   1.000  H
  C19      1.0000 0.90990  0.35181  0.36630  Biso   1.000  C
  H10      1.0000 0.92270  0.34190  0.40520  Biso   1.000  H
  C20      1.0000 0.84750  0.33008  0.32720  Biso   1.000  C
  C21      1.0000 0.83070  0.34653  0.26980  Biso   1.000  C
  H11      1.0000 0.79020  0.33250  0.24220  Biso   1.000  H
  C22      1.0000 0.87490  0.38407  0.25410  Biso   1.000  C
  C23      1.0000 0.85450  0.40543  0.19330  Biso   1.000  C
  C24      1.0000 0.93350  0.14337  0.63040  Biso   1.000  C
  C25      1.0000 0.97980  0.12273  0.58260  Biso   1.000  C
  C26      1.0000 0.05910  0.13800  0.56820  Biso   1.000  C
  H12      1.0000 0.08880  0.16090  0.58980  Biso   1.000  H
  C27      1.0000 0.09240  0.11810  0.52100  Biso   1.000  C
  H13      1.0000 0.14640  0.12680  0.51140  Biso   1.000  H
  C28      1.0000 0.04530  0.08520  0.48800  Biso   1.000  C
  H14      1.0000 0.06650  0.07190  0.45570  Biso   1.000  H
  C29      1.0000 0.96620  0.07253  0.50430  Biso   1.000  C
  C30      1.0000 0.90590  0.04036  0.47020  Biso   1.000  C
  C31      1.0000 0.91850  0.02767  0.41270  Biso   1.000  C
  H15      1.0000 0.96560  0.03840  0.39550  Biso   1.000  H
  C32      1.0000 0.85940  0.99873  0.38180  Biso   1.000  C
  C33      1.0000 0.79000  0.98370  0.40870  Biso   1.000  C
  H16      1.0000 0.75000  0.96400  0.38890  Biso   1.000  H
  C34      1.0000 0.78020  0.99826  0.46600  Biso   1.000  C
  C35      1.0000 0.70580  0.98385  0.49640  Biso   1.000  C
  C36      1.0000 0.64430  0.95320  0.47210  Biso   1.000  C
  H17      1.0000 0.64680  0.94110  0.43460  Biso   1.000  H
  C37      1.0000 0.57900  0.94110  0.50530  Biso   1.000  C
  H18      1.0000 0.53740  0.92020  0.49040  Biso   1.000  H
  C38      1.0000 0.57550  0.95980  0.56020  Biso   1.000  C
  H19      1.0000 0.53240  0.95170  0.58300  Biso   1.000  H
  C39      1.0000 0.63670  0.99057  0.58040  Biso   1.000  C
  C40      1.0000 0.63950  0.01409  0.64030  Biso   1.000  C
  C41      1.0000 0.86040  0.92497  0.24760  Biso   1.000  C
  H20      1.0000 0.85320  0.89470  0.23790  Biso   1.000  H
  C42      1.0000 0.85670  0.93852  0.30560  Biso   1.000  C
  H21      1.0000 0.84550  0.91770  0.33410  Biso   1.000  H
  C43      1.0000 0.86990  0.98320  0.32070  Biso   1.000  C
  C44      1.0000 0.88870  0.01335  0.27680  Biso   1.000  C
  H22      1.0000 0.90090  0.04330  0.28580  Biso   1.000  H
  C45      1.0000 0.88880  0.99746  0.21980  Biso   1.000  C
  C46      1.0000 0.90140  0.02812  0.16840  Biso   1.000  C
  C47      1.0000 0.67350  0.10662  0.48800  Biso   1.000  C
  H23      1.0000 0.63940  0.08160  0.47720  Biso   1.000  H
  O16      1.0000 0.47220  0.21420  0.19720  Biso   1.000  O
  Tb3      1.0000 0.05681  0.67071  0.38488  Biso   1.000  Tb
  Tb4      1.0000 0.31151  0.55686  0.59681  Biso   1.000  Tb
  N9       1.0000 0.08750  0.73172  0.46170  Biso   1.000  N
  N10      1.0000 0.18760  0.72306  0.37710  Biso   1.000  N
  N11      1.0000 0.16870  0.64545  0.32009  Biso   1.000  N
  N12      1.0000 0.43570  0.90465  0.29112  Biso   1.000  N
  N13      1.0000 0.43560  0.58985  0.55183  Biso   1.000  N
  N14      1.0000 0.33770  0.52635  0.49592  Biso   1.000  N
  N15      1.0000 0.20170  0.50241  0.54986  Biso   1.000  N
  N16      1.0000 0.37430  0.45464  0.20488  Biso   1.000  N
  O17      1.0000 0.98260  0.66368  0.46860  Biso   1.000  O
  O18      1.0000 0.91860  0.69560  0.53870  Biso   1.000  O
  O19      1.0000 0.04490  0.59457  0.35429  Biso   1.000  O
  O20      1.0000 0.07630  0.53817  0.29550  Biso   1.000  O
  O21      1.0000 0.30770  0.88518  0.15410  Biso   1.000  O
  O22      1.0000 0.38840  0.94397  0.18698  Biso   1.000  O
  O23      1.0000 0.36030  0.62605  0.63638  Biso   1.000  O
  O24      1.0000 0.46640  0.67570  0.65945  Biso   1.000  O
  O25      1.0000 0.19950  0.54180  0.65319  Biso   1.000  O
  O26      1.0000 0.08160  0.50424  0.67140  Biso   1.000  O
  O27      1.0000 0.42810  0.56609  0.17807  Biso   1.000  O
  O28      1.0000 0.38270  0.51031  0.11664  Biso   1.000  O
  O29      1.0000 0.16240  0.63871  0.45555  Biso   1.000  O
  O30      1.0000 0.22430  0.60291  0.53351  Biso   1.000  O
  O31      1.0000 0.01420  0.68350  0.28140  Biso   1.000  O
  C48      1.0000 0.97290  0.69440  0.50420  Biso   1.000  C
  C49      1.0000 0.03610  0.73360  0.50500  Biso   1.000  C
  C50      1.0000 0.04040  0.76770  0.54670  Biso   1.000  C
  H24      1.0000 0.00370  0.76780  0.57600  Biso   1.000  H
  C51      1.0000 0.09980  0.80130  0.54400  Biso   1.000  C
  H25      1.0000 0.10380  0.82470  0.57130  Biso   1.000  H
  C52      1.0000 0.15430  0.79996  0.49980  Biso   1.000  C
  H26      1.0000 0.19590  0.82210  0.49770  Biso   1.000  H
  C53      1.0000 0.14550  0.76504  0.45910  Biso   1.000  C
  C54      1.0000 0.19870  0.76095  0.40950  Biso   1.000  C
  C55      1.0000 0.25530  0.79470  0.39670  Biso   1.000  C
  H27      1.0000 0.26480  0.81960  0.42140  Biso   1.000  H
  C56      1.0000 0.29740  0.79076  0.34680  Biso   1.000  C
  C57      1.0000 0.28860  0.75140  0.31470  Biso   1.000  C
  H28      1.0000 0.31750  0.74750  0.28170  Biso   1.000  H
  C58      1.0000 0.23610  0.71757  0.33240  Biso   1.000  C
  C59      1.0000 0.22880  0.67294  0.30270  Biso   1.000  C
  C60      1.0000 0.28180  0.65950  0.26170  Biso   1.000  C
  H29      1.0000 0.32430  0.67870  0.25080  Biso   1.000  H
  C61      1.0000 0.27100  0.61750  0.23730  Biso   1.000  C
  H30      1.0000 0.30580  0.60820  0.20920  Biso   1.000  H
  C62      1.0000 0.20900  0.58899  0.25440  Biso   1.000  C
  H31      1.0000 0.20110  0.56030  0.23830  Biso   1.000  H
  C63      1.0000 0.15900  0.60433  0.29590  Biso   1.000  C
  C64      1.0000 0.08720  0.57643  0.31710  Biso   1.000  C
  C65      1.0000 0.45200  0.88788  0.34630  Biso   1.000  C
  H32      1.0000 0.49460  0.90170  0.37250  Biso   1.000  H
  C66      1.0000 0.40990  0.85181  0.36630  Biso   1.000  C
  H33      1.0000 0.42270  0.84190  0.40520  Biso   1.000  H
  C67      1.0000 0.34750  0.83008  0.32720  Biso   1.000  C
  C68      1.0000 0.33070  0.84653  0.26980  Biso   1.000  C
  H34      1.0000 0.29020  0.83250  0.24220  Biso   1.000  H
  C69      1.0000 0.37490  0.88407  0.25410  Biso   1.000  C
  C70      1.0000 0.35450  0.90543  0.19330  Biso   1.000  C
  C71      1.0000 0.43350  0.64337  0.63040  Biso   1.000  C
  C72      1.0000 0.47980  0.62273  0.58260  Biso   1.000  C
  C73      1.0000 0.55910  0.63800  0.56820  Biso   1.000  C
  H35      1.0000 0.58880  0.66090  0.58980  Biso   1.000  H
  C74      1.0000 0.59240  0.61810  0.52100  Biso   1.000  C
  H36      1.0000 0.64640  0.62680  0.51140  Biso   1.000  H
  C75      1.0000 0.54530  0.58520  0.48800  Biso   1.000  C
  H37      1.0000 0.56650  0.57190  0.45570  Biso   1.000  H
  C76      1.0000 0.46620  0.57253  0.50430  Biso   1.000  C
  C77      1.0000 0.40590  0.54036  0.47020  Biso   1.000  C
  C78      1.0000 0.41850  0.52767  0.41270  Biso   1.000  C
  H38      1.0000 0.46560  0.53840  0.39550  Biso   1.000  H
  C79      1.0000 0.35940  0.49873  0.38180  Biso   1.000  C
  C80      1.0000 0.29000  0.48370  0.40870  Biso   1.000  C
  H39      1.0000 0.25000  0.46400  0.38890  Biso   1.000  H
  C81      1.0000 0.28020  0.49826  0.46600  Biso   1.000  C
  C82      1.0000 0.20580  0.48385  0.49640  Biso   1.000  C
  C83      1.0000 0.14430  0.45320  0.47210  Biso   1.000  C
  H40      1.0000 0.14680  0.44110  0.43460  Biso   1.000  H
  C84      1.0000 0.07900  0.44110  0.50530  Biso   1.000  C
  H41      1.0000 0.03740  0.42020  0.49040  Biso   1.000  H
  C85      1.0000 0.07550  0.45980  0.56020  Biso   1.000  C
  H42      1.0000 0.03240  0.45170  0.58300  Biso   1.000  H
  C86      1.0000 0.13670  0.49057  0.58040  Biso   1.000  C
  C87      1.0000 0.13950  0.51409  0.64030  Biso   1.000  C
  C88      1.0000 0.36040  0.42497  0.24760  Biso   1.000  C
  H43      1.0000 0.35320  0.39470  0.23790  Biso   1.000  H
  C89      1.0000 0.35670  0.43852  0.30560  Biso   1.000  C
  H44      1.0000 0.34550  0.41770  0.33410  Biso   1.000  H
  C90      1.0000 0.36990  0.48320  0.32070  Biso   1.000  C
  C91      1.0000 0.38870  0.51335  0.27680  Biso   1.000  C
  H45      1.0000 0.40090  0.54330  0.28580  Biso   1.000  H
  C92      1.0000 0.38880  0.49746  0.21980  Biso   1.000  C
  C93      1.0000 0.40140  0.52812  0.16840  Biso   1.000  C
  C94      1.0000 0.17350  0.60662  0.48800  Biso   1.000  C
  H46      1.0000 0.13940  0.58160  0.47720  Biso   1.000  H
  O32      1.0000 0.97220  0.71420  0.19720  Biso   1.000  O
  Tb5      1.0000 0.44319  0.17071  0.11512  Biso   1.000  Tb
  Tb6      1.0000 0.18849  0.05686  0.90319  Biso   1.000  Tb
  N17      1.0000 0.41250  0.23172  0.03830  Biso   1.000  N
  N18      1.0000 0.31240  0.22306  0.12290  Biso   1.000  N
  N19      1.0000 0.33130  0.14545  0.17991  Biso   1.000  N
  N20      1.0000 0.06430  0.40465  0.20888  Biso   1.000  N
  N21      1.0000 0.06440  0.08985  0.94817  Biso   1.000  N
  N22      1.0000 0.16230  0.02635  0.00408  Biso   1.000  N
  N23      1.0000 0.29830  0.00241  0.95014  Biso   1.000  N
  N24      1.0000 0.12570  0.95464  0.29512  Biso   1.000  N
  O33      1.0000 0.51740  0.16368  0.03140  Biso   1.000  O
  O34      1.0000 0.58140  0.19560  0.96130  Biso   1.000  O
  O35      1.0000 0.45510  0.09457  0.14571  Biso   1.000  O
  O36      1.0000 0.42370  0.03817  0.20450  Biso   1.000  O
  O37      1.0000 0.19230  0.38518  0.34590  Biso   1.000  O
  O38      1.0000 0.11160  0.44397  0.31302  Biso   1.000  O
  O39      1.0000 0.13970  0.12605  0.86362  Biso   1.000  O
  O40      1.0000 0.03360  0.17570  0.84055  Biso   1.000  O
  O41      1.0000 0.30050  0.04180  0.84681  Biso   1.000  O
  O42      1.0000 0.41840  0.00424  0.82860  Biso   1.000  O
  O43      1.0000 0.07190  0.06609  0.32193  Biso   1.000  O
  O44      1.0000 0.11730  0.01031  0.38336  Biso   1.000  O
  O45      1.0000 0.33760  0.13871  0.04445  Biso   1.000  O
  O46      1.0000 0.27570  0.10291  0.96649  Biso   1.000  O
  O47      1.0000 0.48580  0.18350  0.21860  Biso   1.000  O
  C95      1.0000 0.52710  0.19440  0.99580  Biso   1.000  C
  C96      1.0000 0.46390  0.23360  0.99500  Biso   1.000  C
  C97      1.0000 0.45960  0.26770  0.95330  Biso   1.000  C
  H47      1.0000 0.49630  0.26780  0.92400  Biso   1.000  H
  C98      1.0000 0.40020  0.30130  0.95600  Biso   1.000  C
  H48      1.0000 0.39620  0.32470  0.92870  Biso   1.000  H
  C99      1.0000 0.34570  0.29996  0.00020  Biso   1.000  C
  H49      1.0000 0.30410  0.32210  0.00230  Biso   1.000  H
  C100     1.0000 0.35450  0.26504  0.04090  Biso   1.000  C
  C101     1.0000 0.30130  0.26095  0.09050  Biso   1.000  C
  C102     1.0000 0.24470  0.29470  0.10330  Biso   1.000  C
  H50      1.0000 0.23520  0.31960  0.07860  Biso   1.000  H
  C103     1.0000 0.20260  0.29076  0.15320  Biso   1.000  C
  C104     1.0000 0.21140  0.25140  0.18530  Biso   1.000  C
  H51      1.0000 0.18250  0.24750  0.21830  Biso   1.000  H
  C105     1.0000 0.26390  0.21757  0.16760  Biso   1.000  C
  C106     1.0000 0.27120  0.17294  0.19730  Biso   1.000  C
  C107     1.0000 0.21820  0.15950  0.23830  Biso   1.000  C
  H52      1.0000 0.17570  0.17870  0.24920  Biso   1.000  H
  C108     1.0000 0.22900  0.11750  0.26270  Biso   1.000  C
  H53      1.0000 0.19420  0.10820  0.29080  Biso   1.000  H
  C109     1.0000 0.29100  0.08899  0.24560  Biso   1.000  C
  H54      1.0000 0.29890  0.06030  0.26170  Biso   1.000  H
  C110     1.0000 0.34100  0.10433  0.20410  Biso   1.000  C
  C111     1.0000 0.41280  0.07643  0.18290  Biso   1.000  C
  C112     1.0000 0.04800  0.38788  0.15370  Biso   1.000  C
  H55      1.0000 0.00540  0.40170  0.12750  Biso   1.000  H
  C113     1.0000 0.09010  0.35181  0.13370  Biso   1.000  C
  H56      1.0000 0.07730  0.34190  0.09480  Biso   1.000  H
  C114     1.0000 0.15250  0.33008  0.17280  Biso   1.000  C
  C115     1.0000 0.16930  0.34653  0.23020  Biso   1.000  C
  H57      1.0000 0.20980  0.33250  0.25780  Biso   1.000  H
  C116     1.0000 0.12510  0.38407  0.24590  Biso   1.000  C
  C117     1.0000 0.14550  0.40543  0.30670  Biso   1.000  C
  C118     1.0000 0.06650  0.14337  0.86960  Biso   1.000  C
  C119     1.0000 0.02020  0.12273  0.91740  Biso   1.000  C
  C120     1.0000 0.94090  0.13800  0.93180  Biso   1.000  C
  H58      1.0000 0.91120  0.16090  0.91020  Biso   1.000  H
  C121     1.0000 0.90760  0.11810  0.97900  Biso   1.000  C
  H59      1.0000 0.85360  0.12680  0.98860  Biso   1.000  H
  C122     1.0000 0.95470  0.08520  0.01200  Biso   1.000  C
  H60      1.0000 0.93350  0.07190  0.04430  Biso   1.000  H
  C123     1.0000 0.03380  0.07253  0.99570  Biso   1.000  C
  C124     1.0000 0.09410  0.04036  0.02980  Biso   1.000  C
  C125     1.0000 0.08150  0.02767  0.08730  Biso   1.000  C
  H61      1.0000 0.03440  0.03840  0.10450  Biso   1.000  H
  C126     1.0000 0.14060  0.99873  0.11820  Biso   1.000  C
  C127     1.0000 0.21000  0.98370  0.09130  Biso   1.000  C
  H62      1.0000 0.25000  0.96400  0.11110  Biso   1.000  H
  C128     1.0000 0.21980  0.99826  0.03400  Biso   1.000  C
  C129     1.0000 0.29420  0.98385  0.00360  Biso   1.000  C
  C130     1.0000 0.35570  0.95320  0.02790  Biso   1.000  C
  H63      1.0000 0.35320  0.94110  0.06540  Biso   1.000  H
  C131     1.0000 0.42100  0.94110  0.99470  Biso   1.000  C
  H64      1.0000 0.46260  0.92020  0.00960  Biso   1.000  H
  C132     1.0000 0.42450  0.95980  0.93980  Biso   1.000  C
  H65      1.0000 0.46760  0.95170  0.91700  Biso   1.000  H
  C133     1.0000 0.36330  0.99057  0.91960  Biso   1.000  C
  C134     1.0000 0.36050  0.01409  0.85970  Biso   1.000  C
  C135     1.0000 0.13960  0.92497  0.25240  Biso   1.000  C
  H66      1.0000 0.14680  0.89470  0.26210  Biso   1.000  H
  C136     1.0000 0.14330  0.93852  0.19440  Biso   1.000  C
  H67      1.0000 0.15450  0.91770  0.16590  Biso   1.000  H
  C137     1.0000 0.13010  0.98320  0.17930  Biso   1.000  C
  C138     1.0000 0.11130  0.01335  0.22320  Biso   1.000  C
  H68      1.0000 0.09910  0.04330  0.21420  Biso   1.000  H
  C139     1.0000 0.11120  0.99746  0.28020  Biso   1.000  C
  C140     1.0000 0.09860  0.02812  0.33160  Biso   1.000  C
  C141     1.0000 0.32650  0.10662  0.01200  Biso   1.000  C
  H69      1.0000 0.36060  0.08160  0.02280  Biso   1.000  H
  O48      1.0000 0.52780  0.21420  0.30280  Biso   1.000  O
  Tb7      1.0000 0.94319  0.67071  0.11512  Biso   1.000  Tb
  Tb8      1.0000 0.68849  0.55686  0.90319  Biso   1.000  Tb
  N25      1.0000 0.91250  0.73172  0.03830  Biso   1.000  N
  N26      1.0000 0.81240  0.72306  0.12290  Biso   1.000  N
  N27      1.0000 0.83130  0.64545  0.17991  Biso   1.000  N
  N28      1.0000 0.56430  0.90465  0.20888  Biso   1.000  N
  N29      1.0000 0.56440  0.58985  0.94817  Biso   1.000  N
  N30      1.0000 0.66230  0.52635  0.00408  Biso   1.000  N
  N31      1.0000 0.79830  0.50241  0.95014  Biso   1.000  N
  N32      1.0000 0.62570  0.45464  0.29512  Biso   1.000  N
  O49      1.0000 0.01740  0.66368  0.03140  Biso   1.000  O
  O50      1.0000 0.08140  0.69560  0.96130  Biso   1.000  O
  O51      1.0000 0.95510  0.59457  0.14571  Biso   1.000  O
  O52      1.0000 0.92370  0.53817  0.20450  Biso   1.000  O
  O53      1.0000 0.69230  0.88518  0.34590  Biso   1.000  O
  O54      1.0000 0.61160  0.94397  0.31302  Biso   1.000  O
  O55      1.0000 0.63970  0.62605  0.86362  Biso   1.000  O
  O56      1.0000 0.53360  0.67570  0.84055  Biso   1.000  O
  O57      1.0000 0.80050  0.54180  0.84681  Biso   1.000  O
  O58      1.0000 0.91840  0.50424  0.82860  Biso   1.000  O
  O59      1.0000 0.57190  0.56609  0.32193  Biso   1.000  O
  O60      1.0000 0.61730  0.51031  0.38336  Biso   1.000  O
  O61      1.0000 0.83760  0.63871  0.04445  Biso   1.000  O
  O62      1.0000 0.77570  0.60291  0.96649  Biso   1.000  O
  O63      1.0000 0.98580  0.68350  0.21860  Biso   1.000  O
  C142     1.0000 0.02710  0.69440  0.99580  Biso   1.000  C
  C143     1.0000 0.96390  0.73360  0.99500  Biso   1.000  C
  C144     1.0000 0.95960  0.76770  0.95330  Biso   1.000  C
  H70      1.0000 0.99630  0.76780  0.92400  Biso   1.000  H
  C145     1.0000 0.90020  0.80130  0.95600  Biso   1.000  C
  H71      1.0000 0.89620  0.82470  0.92870  Biso   1.000  H
  C146     1.0000 0.84570  0.79996  0.00020  Biso   1.000  C
  H72      1.0000 0.80410  0.82210  0.00230  Biso   1.000  H
  C147     1.0000 0.85450  0.76504  0.04090  Biso   1.000  C
  C148     1.0000 0.80130  0.76095  0.09050  Biso   1.000  C
  C149     1.0000 0.74470  0.79470  0.10330  Biso   1.000  C
  H73      1.0000 0.73520  0.81960  0.07860  Biso   1.000  H
  C150     1.0000 0.70260  0.79076  0.15320  Biso   1.000  C
  C151     1.0000 0.71140  0.75140  0.18530  Biso   1.000  C
  H74      1.0000 0.68250  0.74750  0.21830  Biso   1.000  H
  C152     1.0000 0.76390  0.71757  0.16760  Biso   1.000  C
  C153     1.0000 0.77120  0.67294  0.19730  Biso   1.000  C
  C154     1.0000 0.71820  0.65950  0.23830  Biso   1.000  C
  H75      1.0000 0.67570  0.67870  0.24920  Biso   1.000  H
  C155     1.0000 0.72900  0.61750  0.26270  Biso   1.000  C
  H76      1.0000 0.69420  0.60820  0.29080  Biso   1.000  H
  C156     1.0000 0.79100  0.58899  0.24560  Biso   1.000  C
  H77      1.0000 0.79890  0.56030  0.26170  Biso   1.000  H
  C157     1.0000 0.84100  0.60433  0.20410  Biso   1.000  C
  C158     1.0000 0.91280  0.57643  0.18290  Biso   1.000  C
  C159     1.0000 0.54800  0.88788  0.15370  Biso   1.000  C
  H78      1.0000 0.50540  0.90170  0.12750  Biso   1.000  H
  C160     1.0000 0.59010  0.85181  0.13370  Biso   1.000  C
  H79      1.0000 0.57730  0.84190  0.09480  Biso   1.000  H
  C161     1.0000 0.65250  0.83008  0.17280  Biso   1.000  C
  C162     1.0000 0.66930  0.84653  0.23020  Biso   1.000  C
  H80      1.0000 0.70980  0.83250  0.25780  Biso   1.000  H
  C163     1.0000 0.62510  0.88407  0.24590  Biso   1.000  C
  C164     1.0000 0.64550  0.90543  0.30670  Biso   1.000  C
  C165     1.0000 0.56650  0.64337  0.86960  Biso   1.000  C
  C166     1.0000 0.52020  0.62273  0.91740  Biso   1.000  C
  C167     1.0000 0.44090  0.63800  0.93180  Biso   1.000  C
  H81      1.0000 0.41120  0.66090  0.91020  Biso   1.000  H
  C168     1.0000 0.40760  0.61810  0.97900  Biso   1.000  C
  H82      1.0000 0.35360  0.62680  0.98860  Biso   1.000  H
  C169     1.0000 0.45470  0.58520  0.01200  Biso   1.000  C
  H83      1.0000 0.43350  0.57190  0.04430  Biso   1.000  H
  C170     1.0000 0.53380  0.57253  0.99570  Biso   1.000  C
  C171     1.0000 0.59410  0.54036  0.02980  Biso   1.000  C
  C172     1.0000 0.58150  0.52767  0.08730  Biso   1.000  C
  H84      1.0000 0.53440  0.53840  0.10450  Biso   1.000  H
  C173     1.0000 0.64060  0.49873  0.11820  Biso   1.000  C
  C174     1.0000 0.71000  0.48370  0.09130  Biso   1.000  C
  H85      1.0000 0.75000  0.46400  0.11110  Biso   1.000  H
  C175     1.0000 0.71980  0.49826  0.03400  Biso   1.000  C
  C176     1.0000 0.79420  0.48385  0.00360  Biso   1.000  C
  C177     1.0000 0.85570  0.45320  0.02790  Biso   1.000  C
  H86      1.0000 0.85320  0.44110  0.06540  Biso   1.000  H
  C178     1.0000 0.92100  0.44110  0.99470  Biso   1.000  C
  H87      1.0000 0.96260  0.42020  0.00960  Biso   1.000  H
  C179     1.0000 0.92450  0.45980  0.93980  Biso   1.000  C
  H88      1.0000 0.96760  0.45170  0.91700  Biso   1.000  H
  C180     1.0000 0.86330  0.49057  0.91960  Biso   1.000  C
  C181     1.0000 0.86050  0.51409  0.85970  Biso   1.000  C
  C182     1.0000 0.63960  0.42497  0.25240  Biso   1.000  C
  H89      1.0000 0.64680  0.39470  0.26210  Biso   1.000  H
  C183     1.0000 0.64330  0.43852  0.19440  Biso   1.000  C
  H90      1.0000 0.65450  0.41770  0.16590  Biso   1.000  H
  C184     1.0000 0.63010  0.48320  0.17930  Biso   1.000  C
  C185     1.0000 0.61130  0.51335  0.22320  Biso   1.000  C
  H91      1.0000 0.59910  0.54330  0.21420  Biso   1.000  H
  C186     1.0000 0.61120  0.49746  0.28020  Biso   1.000  C
  C187     1.0000 0.59860  0.52812  0.33160  Biso   1.000  C
  C188     1.0000 0.82650  0.60662  0.01200  Biso   1.000  C
  H92      1.0000 0.86060  0.58160  0.02280  Biso   1.000  H
  O64      1.0000 0.02780  0.71420  0.30280  Biso   1.000  O
  Tb9      1.0000 0.44319  0.82930  0.61512  Biso   1.000  Tb
  Tb10     1.0000 0.18849  0.94314  0.40319  Biso   1.000  Tb
  N33      1.0000 0.41250  0.76828  0.53830  Biso   1.000  N
  N34      1.0000 0.31240  0.77694  0.62290  Biso   1.000  N
  N35      1.0000 0.33130  0.85455  0.67991  Biso   1.000  N
  N36      1.0000 0.06430  0.59535  0.70888  Biso   1.000  N
  N37      1.0000 0.06440  0.91015  0.44817  Biso   1.000  N
  N38      1.0000 0.16230  0.97365  0.50408  Biso   1.000  N
  N39      1.0000 0.29830  0.99759  0.45014  Biso   1.000  N
  N40      1.0000 0.12570  0.04536  0.79512  Biso   1.000  N
  O65      1.0000 0.51740  0.83632  0.53140  Biso   1.000  O
  O66      1.0000 0.58140  0.80440  0.46130  Biso   1.000  O
  O67      1.0000 0.45510  0.90543  0.64571  Biso   1.000  O
  O68      1.0000 0.42370  0.96183  0.70450  Biso   1.000  O
  O69      1.0000 0.19230  0.61482  0.84590  Biso   1.000  O
  O70      1.0000 0.11160  0.55603  0.81302  Biso   1.000  O
  O71      1.0000 0.13970  0.87395  0.36362  Biso   1.000  O
  O72      1.0000 0.03360  0.82430  0.34055  Biso   1.000  O
  O73      1.0000 0.30050  0.95820  0.34681  Biso   1.000  O
  O74      1.0000 0.41840  0.99576  0.32860  Biso   1.000  O
  O75      1.0000 0.07190  0.93391  0.82193  Biso   1.000  O
  O76      1.0000 0.11730  0.98969  0.88336  Biso   1.000  O
  O77      1.0000 0.33760  0.86129  0.54445  Biso   1.000  O
  O78      1.0000 0.27570  0.89709  0.46649  Biso   1.000  O
  O79      1.0000 0.48580  0.81650  0.71860  Biso   1.000  O
  C189     1.0000 0.52710  0.80560  0.49580  Biso   1.000  C
  C190     1.0000 0.46390  0.76640  0.49500  Biso   1.000  C
  C191     1.0000 0.45960  0.73230  0.45330  Biso   1.000  C
  H93      1.0000 0.49630  0.73220  0.42400  Biso   1.000  H
  C192     1.0000 0.40020  0.69870  0.45600  Biso   1.000  C
  H94      1.0000 0.39620  0.67530  0.42870  Biso   1.000  H
  C193     1.0000 0.34570  0.70004  0.50020  Biso   1.000  C
  H95      1.0000 0.30410  0.67790  0.50230  Biso   1.000  H
  C194     1.0000 0.35450  0.73496  0.54090  Biso   1.000  C
  C195     1.0000 0.30130  0.73905  0.59050  Biso   1.000  C
  C196     1.0000 0.24470  0.70530  0.60330  Biso   1.000  C
  H96      1.0000 0.23520  0.68040  0.57860  Biso   1.000  H
  C197     1.0000 0.20260  0.70924  0.65320  Biso   1.000  C
  C198     1.0000 0.21140  0.74860  0.68530  Biso   1.000  C
  H97      1.0000 0.18250  0.75250  0.71830  Biso   1.000  H
  C199     1.0000 0.26390  0.78243  0.66760  Biso   1.000  C
  C200     1.0000 0.27120  0.82706  0.69730  Biso   1.000  C
  C201     1.0000 0.21820  0.84050  0.73830  Biso   1.000  C
  H98      1.0000 0.17570  0.82130  0.74920  Biso   1.000  H
  C202     1.0000 0.22900  0.88250  0.76270  Biso   1.000  C
  H99      1.0000 0.19420  0.89180  0.79080  Biso   1.000  H
  C203     1.0000 0.29100  0.91101  0.74560  Biso   1.000  C
  H100     1.0000 0.29890  0.93970  0.76170  Biso   1.000  H
  C204     1.0000 0.34100  0.89567  0.70410  Biso   1.000  C
  C205     1.0000 0.41280  0.92357  0.68290  Biso   1.000  C
  C206     1.0000 0.04800  0.61212  0.65370  Biso   1.000  C
  H101     1.0000 0.00540  0.59830  0.62750  Biso   1.000  H
  C207     1.0000 0.09010  0.64819  0.63370  Biso   1.000  C
  H102     1.0000 0.07730  0.65810  0.59480  Biso   1.000  H
  C208     1.0000 0.15250  0.66992  0.67280  Biso   1.000  C
  C209     1.0000 0.16930  0.65347  0.73020  Biso   1.000  C
  H103     1.0000 0.20980  0.66750  0.75780  Biso   1.000  H
  C210     1.0000 0.12510  0.61593  0.74590  Biso   1.000  C
  C211     1.0000 0.14550  0.59457  0.80670  Biso   1.000  C
  C212     1.0000 0.06650  0.85663  0.36960  Biso   1.000  C
  C213     1.0000 0.02020  0.87727  0.41740  Biso   1.000  C
  C214     1.0000 0.94090  0.86200  0.43180  Biso   1.000  C
  H104     1.0000 0.91120  0.83910  0.41020  Biso   1.000  H
  C215     1.0000 0.90760  0.88190  0.47900  Biso   1.000  C
  H105     1.0000 0.85360  0.87320  0.48860  Biso   1.000  H
  C216     1.0000 0.95470  0.91480  0.51200  Biso   1.000  C
  H106     1.0000 0.93350  0.92810  0.54430  Biso   1.000  H
  C217     1.0000 0.03380  0.92747  0.49570  Biso   1.000  C
  C218     1.0000 0.09410  0.95964  0.52980  Biso   1.000  C
  C219     1.0000 0.08150  0.97233  0.58730  Biso   1.000  C
  H107     1.0000 0.03440  0.96160  0.60450  Biso   1.000  H
  C220     1.0000 0.14060  0.00127  0.61820  Biso   1.000  C
  C221     1.0000 0.21000  0.01630  0.59130  Biso   1.000  C
  H108     1.0000 0.25000  0.03600  0.61110  Biso   1.000  H
  C222     1.0000 0.21980  0.00174  0.53400  Biso   1.000  C
  C223     1.0000 0.29420  0.01615  0.50360  Biso   1.000  C
  C224     1.0000 0.35570  0.04680  0.52790  Biso   1.000  C
  H109     1.0000 0.35320  0.05890  0.56540  Biso   1.000  H
  C225     1.0000 0.42100  0.05890  0.49470  Biso   1.000  C
  H110     1.0000 0.46260  0.07980  0.50960  Biso   1.000  H
  C226     1.0000 0.42450  0.04020  0.43980  Biso   1.000  C
  H111     1.0000 0.46760  0.04830  0.41700  Biso   1.000  H
  C227     1.0000 0.36330  0.00943  0.41960  Biso   1.000  C
  C228     1.0000 0.36050  0.98591  0.35970  Biso   1.000  C
  C229     1.0000 0.13960  0.07503  0.75240  Biso   1.000  C
  H112     1.0000 0.14680  0.10530  0.76210  Biso   1.000  H
  C230     1.0000 0.14330  0.06148  0.69440  Biso   1.000  C
  H113     1.0000 0.15450  0.08230  0.66590  Biso   1.000  H
  C231     1.0000 0.13010  0.01680  0.67930  Biso   1.000  C
  C232     1.0000 0.11130  0.98665  0.72320  Biso   1.000  C
  H114     1.0000 0.09910  0.95670  0.71420  Biso   1.000  H
  C233     1.0000 0.11120  0.00254  0.78020  Biso   1.000  C
  C234     1.0000 0.09860  0.97188  0.83160  Biso   1.000  C
  C235     1.0000 0.32650  0.89338  0.51200  Biso   1.000  C
  H115     1.0000 0.36060  0.91840  0.52280  Biso   1.000  H
  O80      1.0000 0.52780  0.78580  0.80280  Biso   1.000  O
  Tb11     1.0000 0.94319  0.32929  0.61512  Biso   1.000  Tb
  Tb12     1.0000 0.68849  0.44314  0.40319  Biso   1.000  Tb
  N41      1.0000 0.91250  0.26828  0.53830  Biso   1.000  N
  N42      1.0000 0.81240  0.27694  0.62290  Biso   1.000  N
  N43      1.0000 0.83130  0.35455  0.67991  Biso   1.000  N
  N44      1.0000 0.56430  0.09535  0.70888  Biso   1.000  N
  N45      1.0000 0.56440  0.41015  0.44817  Biso   1.000  N
  N46      1.0000 0.66230  0.47365  0.50408  Biso   1.000  N
  N47      1.0000 0.79830  0.49759  0.45014  Biso   1.000  N
  N48      1.0000 0.62570  0.54536  0.79512  Biso   1.000  N
  O81      1.0000 0.01740  0.33632  0.53140  Biso   1.000  O
  O82      1.0000 0.08140  0.30440  0.46130  Biso   1.000  O
  O83      1.0000 0.95510  0.40543  0.64571  Biso   1.000  O
  O84      1.0000 0.92370  0.46183  0.70450  Biso   1.000  O
  O85      1.0000 0.69230  0.11482  0.84590  Biso   1.000  O
  O86      1.0000 0.61160  0.05603  0.81302  Biso   1.000  O
  O87      1.0000 0.63970  0.37395  0.36362  Biso   1.000  O
  O88      1.0000 0.53360  0.32430  0.34055  Biso   1.000  O
  O89      1.0000 0.80050  0.45820  0.34681  Biso   1.000  O
  O90      1.0000 0.91840  0.49576  0.32860  Biso   1.000  O
  O91      1.0000 0.57190  0.43391  0.82193  Biso   1.000  O
  O92      1.0000 0.61730  0.48969  0.88336  Biso   1.000  O
  O93      1.0000 0.83760  0.36129  0.54445  Biso   1.000  O
  O94      1.0000 0.77570  0.39709  0.46649  Biso   1.000  O
  O95      1.0000 0.98580  0.31650  0.71860  Biso   1.000  O
  C236     1.0000 0.02710  0.30560  0.49580  Biso   1.000  C
  C237     1.0000 0.96390  0.26640  0.49500  Biso   1.000  C
  C238     1.0000 0.95960  0.23230  0.45330  Biso   1.000  C
  H116     1.0000 0.99630  0.23220  0.42400  Biso   1.000  H
  C239     1.0000 0.90020  0.19870  0.45600  Biso   1.000  C
  H117     1.0000 0.89620  0.17530  0.42870  Biso   1.000  H
  C240     1.0000 0.84570  0.20004  0.50020  Biso   1.000  C
  H118     1.0000 0.80410  0.17790  0.50230  Biso   1.000  H
  C241     1.0000 0.85450  0.23496  0.54090  Biso   1.000  C
  C242     1.0000 0.80130  0.23905  0.59050  Biso   1.000  C
  C243     1.0000 0.74470  0.20530  0.60330  Biso   1.000  C
  H119     1.0000 0.73520  0.18040  0.57860  Biso   1.000  H
  C244     1.0000 0.70260  0.20924  0.65320  Biso   1.000  C
  C245     1.0000 0.71140  0.24860  0.68530  Biso   1.000  C
  H120     1.0000 0.68250  0.25250  0.71830  Biso   1.000  H
  C246     1.0000 0.76390  0.28243  0.66760  Biso   1.000  C
  C247     1.0000 0.77120  0.32706  0.69730  Biso   1.000  C
  C248     1.0000 0.71820  0.34050  0.73830  Biso   1.000  C
  H121     1.0000 0.67570  0.32130  0.74920  Biso   1.000  H
  C249     1.0000 0.72900  0.38250  0.76270  Biso   1.000  C
  H122     1.0000 0.69420  0.39180  0.79080  Biso   1.000  H
  C250     1.0000 0.79100  0.41101  0.74560  Biso   1.000  C
  H123     1.0000 0.79890  0.43970  0.76170  Biso   1.000  H
  C251     1.0000 0.84100  0.39567  0.70410  Biso   1.000  C
  C252     1.0000 0.91280  0.42357  0.68290  Biso   1.000  C
  C253     1.0000 0.54800  0.11212  0.65370  Biso   1.000  C
  H124     1.0000 0.50540  0.09830  0.62750  Biso   1.000  H
  C254     1.0000 0.59010  0.14819  0.63370  Biso   1.000  C
  H125     1.0000 0.57730  0.15810  0.59480  Biso   1.000  H
  C255     1.0000 0.65250  0.16992  0.67280  Biso   1.000  C
  C256     1.0000 0.66930  0.15347  0.73020  Biso   1.000  C
  H126     1.0000 0.70980  0.16750  0.75780  Biso   1.000  H
  C257     1.0000 0.62510  0.11593  0.74590  Biso   1.000  C
  C258     1.0000 0.64550  0.09457  0.80670  Biso   1.000  C
  C259     1.0000 0.56650  0.35663  0.36960  Biso   1.000  C
  C260     1.0000 0.52020  0.37727  0.41740  Biso   1.000  C
  C261     1.0000 0.44090  0.36200  0.43180  Biso   1.000  C
  H127     1.0000 0.41120  0.33910  0.41020  Biso   1.000  H
  C262     1.0000 0.40760  0.38190  0.47900  Biso   1.000  C
  H128     1.0000 0.35360  0.37320  0.48860  Biso   1.000  H
  C263     1.0000 0.45470  0.41480  0.51200  Biso   1.000  C
  H129     1.0000 0.43350  0.42810  0.54430  Biso   1.000  H
  C264     1.0000 0.53380  0.42747  0.49570  Biso   1.000  C
  C265     1.0000 0.59410  0.45964  0.52980  Biso   1.000  C
  C266     1.0000 0.58150  0.47233  0.58730  Biso   1.000  C
  H130     1.0000 0.53440  0.46160  0.60450  Biso   1.000  H
  C267     1.0000 0.64060  0.50127  0.61820  Biso   1.000  C
  C268     1.0000 0.71000  0.51630  0.59130  Biso   1.000  C
  H131     1.0000 0.75000  0.53600  0.61110  Biso   1.000  H
  C269     1.0000 0.71980  0.50174  0.53400  Biso   1.000  C
  C270     1.0000 0.79420  0.51615  0.50360  Biso   1.000  C
  C271     1.0000 0.85570  0.54680  0.52790  Biso   1.000  C
  H132     1.0000 0.85320  0.55890  0.56540  Biso   1.000  H
  C272     1.0000 0.92100  0.55890  0.49470  Biso   1.000  C
  H133     1.0000 0.96260  0.57980  0.50960  Biso   1.000  H
  C273     1.0000 0.92450  0.54020  0.43980  Biso   1.000  C
  H134     1.0000 0.96760  0.54830  0.41700  Biso   1.000  H
  C274     1.0000 0.86330  0.50943  0.41960  Biso   1.000  C
  C275     1.0000 0.86050  0.48591  0.35970  Biso   1.000  C
  C276     1.0000 0.63960  0.57503  0.75240  Biso   1.000  C
  H135     1.0000 0.64680  0.60530  0.76210  Biso   1.000  H
  C277     1.0000 0.64330  0.56148  0.69440  Biso   1.000  C
  H136     1.0000 0.65450  0.58230  0.66590  Biso   1.000  H
  C278     1.0000 0.63010  0.51680  0.67930  Biso   1.000  C
  C279     1.0000 0.61130  0.48665  0.72320  Biso   1.000  C
  H137     1.0000 0.59910  0.45670  0.71420  Biso   1.000  H
  C280     1.0000 0.61120  0.50254  0.78020  Biso   1.000  C
  C281     1.0000 0.59860  0.47188  0.83160  Biso   1.000  C
  C282     1.0000 0.82650  0.39338  0.51200  Biso   1.000  C
  H138     1.0000 0.86060  0.41840  0.52280  Biso   1.000  H
  O96      1.0000 0.02780  0.28580  0.80280  Biso   1.000  O
  Tb13     1.0000 0.55681  0.82930  0.88488  Biso   1.000  Tb
  Tb14     1.0000 0.81151  0.94314  0.09681  Biso   1.000  Tb
  N49      1.0000 0.58750  0.76828  0.96170  Biso   1.000  N
  N50      1.0000 0.68760  0.77694  0.87710  Biso   1.000  N
  N51      1.0000 0.66870  0.85455  0.82009  Biso   1.000  N
  N52      1.0000 0.93570  0.59535  0.79112  Biso   1.000  N
  N53      1.0000 0.93560  0.91015  0.05183  Biso   1.000  N
  N54      1.0000 0.83770  0.97365  0.99592  Biso   1.000  N
  N55      1.0000 0.70170  0.99759  0.04986  Biso   1.000  N
  N56      1.0000 0.87430  0.04536  0.70488  Biso   1.000  N
  O97      1.0000 0.48260  0.83632  0.96860  Biso   1.000  O
  O98      1.0000 0.41860  0.80440  0.03870  Biso   1.000  O
  O99      1.0000 0.54490  0.90543  0.85429  Biso   1.000  O
  O100     1.0000 0.57630  0.96183  0.79550  Biso   1.000  O
  O101     1.0000 0.80770  0.61482  0.65410  Biso   1.000  O
  O102     1.0000 0.88840  0.55603  0.68698  Biso   1.000  O
  O103     1.0000 0.86030  0.87395  0.13638  Biso   1.000  O
  O104     1.0000 0.96640  0.82430  0.15945  Biso   1.000  O
  O105     1.0000 0.69950  0.95820  0.15319  Biso   1.000  O
  O106     1.0000 0.58160  0.99576  0.17140  Biso   1.000  O
  O107     1.0000 0.92810  0.93391  0.67807  Biso   1.000  O
  O108     1.0000 0.88270  0.98969  0.61664  Biso   1.000  O
  O109     1.0000 0.66240  0.86129  0.95555  Biso   1.000  O
  O110     1.0000 0.72430  0.89709  0.03351  Biso   1.000  O
  O111     1.0000 0.51420  0.81650  0.78140  Biso   1.000  O
  C283     1.0000 0.47290  0.80560  0.00420  Biso   1.000  C
  C284     1.0000 0.53610  0.76640  0.00500  Biso   1.000  C
  C285     1.0000 0.54040  0.73230  0.04670  Biso   1.000  C
  H139     1.0000 0.50370  0.73220  0.07600  Biso   1.000  H
  C286     1.0000 0.59980  0.69870  0.04400  Biso   1.000  C
  H140     1.0000 0.60380  0.67530  0.07130  Biso   1.000  H
  C287     1.0000 0.65430  0.70004  0.99980  Biso   1.000  C
  H141     1.0000 0.69590  0.67790  0.99770  Biso   1.000  H
  C288     1.0000 0.64550  0.73496  0.95910  Biso   1.000  C
  C289     1.0000 0.69870  0.73905  0.90950  Biso   1.000  C
  C290     1.0000 0.75530  0.70530  0.89670  Biso   1.000  C
  H142     1.0000 0.76480  0.68040  0.92140  Biso   1.000  H
  C291     1.0000 0.79740  0.70924  0.84680  Biso   1.000  C
  C292     1.0000 0.78860  0.74860  0.81470  Biso   1.000  C
  H143     1.0000 0.81750  0.75250  0.78170  Biso   1.000  H
  C293     1.0000 0.73610  0.78243  0.83240  Biso   1.000  C
  C294     1.0000 0.72880  0.82706  0.80270  Biso   1.000  C
  C295     1.0000 0.78180  0.84050  0.76170  Biso   1.000  C
  H144     1.0000 0.82430  0.82130  0.75080  Biso   1.000  H
  C296     1.0000 0.77100  0.88250  0.73730  Biso   1.000  C
  H145     1.0000 0.80580  0.89180  0.70920  Biso   1.000  H
  C297     1.0000 0.70900  0.91101  0.75440  Biso   1.000  C
  H146     1.0000 0.70110  0.93970  0.73830  Biso   1.000  H
  C298     1.0000 0.65900  0.89567  0.79590  Biso   1.000  C
  C299     1.0000 0.58720  0.92357  0.81710  Biso   1.000  C
  C300     1.0000 0.95200  0.61212  0.84630  Biso   1.000  C
  H147     1.0000 0.99460  0.59830  0.87250  Biso   1.000  H
  C301     1.0000 0.90990  0.64819  0.86630  Biso   1.000  C
  H148     1.0000 0.92270  0.65810  0.90520  Biso   1.000  H
  C302     1.0000 0.84750  0.66992  0.82720  Biso   1.000  C
  C303     1.0000 0.83070  0.65347  0.76980  Biso   1.000  C
  H149     1.0000 0.79020  0.66750  0.74220  Biso   1.000  H
  C304     1.0000 0.87490  0.61593  0.75410  Biso   1.000  C
  C305     1.0000 0.85450  0.59457  0.69330  Biso   1.000  C
  C306     1.0000 0.93350  0.85663  0.13040  Biso   1.000  C
  C307     1.0000 0.97980  0.87727  0.08260  Biso   1.000  C
  C308     1.0000 0.05910  0.86200  0.06820  Biso   1.000  C
  H150     1.0000 0.08880  0.83910  0.08980  Biso   1.000  H
  C309     1.0000 0.09240  0.88190  0.02100  Biso   1.000  C
  H151     1.0000 0.14640  0.87320  0.01140  Biso   1.000  H
  C310     1.0000 0.04530  0.91480  0.98800  Biso   1.000  C
  H152     1.0000 0.06650  0.92810  0.95570  Biso   1.000  H
  C311     1.0000 0.96620  0.92747  0.00430  Biso   1.000  C
  C312     1.0000 0.90590  0.95964  0.97020  Biso   1.000  C
  C313     1.0000 0.91850  0.97233  0.91270  Biso   1.000  C
  H153     1.0000 0.96560  0.96160  0.89550  Biso   1.000  H
  C314     1.0000 0.85940  0.00127  0.88180  Biso   1.000  C
  C315     1.0000 0.79000  0.01630  0.90870  Biso   1.000  C
  H154     1.0000 0.75000  0.03600  0.88890  Biso   1.000  H
  C316     1.0000 0.78020  0.00174  0.96600  Biso   1.000  C
  C317     1.0000 0.70580  0.01615  0.99640  Biso   1.000  C
  C318     1.0000 0.64430  0.04680  0.97210  Biso   1.000  C
  H155     1.0000 0.64680  0.05890  0.93460  Biso   1.000  H
  C319     1.0000 0.57900  0.05890  0.00530  Biso   1.000  C
  H156     1.0000 0.53740  0.07980  0.99040  Biso   1.000  H
  C320     1.0000 0.57550  0.04020  0.06020  Biso   1.000  C
  H157     1.0000 0.53240  0.04830  0.08300  Biso   1.000  H
  C321     1.0000 0.63670  0.00943  0.08040  Biso   1.000  C
  C322     1.0000 0.63950  0.98591  0.14030  Biso   1.000  C
  C323     1.0000 0.86040  0.07503  0.74760  Biso   1.000  C
  H158     1.0000 0.85320  0.10530  0.73790  Biso   1.000  H
  C324     1.0000 0.85670  0.06148  0.80560  Biso   1.000  C
  H159     1.0000 0.84550  0.08230  0.83410  Biso   1.000  H
  C325     1.0000 0.86990  0.01680  0.82070  Biso   1.000  C
  C326     1.0000 0.88870  0.98665  0.77680  Biso   1.000  C
  H160     1.0000 0.90090  0.95670  0.78580  Biso   1.000  H
  C327     1.0000 0.88880  0.00254  0.71980  Biso   1.000  C
  C328     1.0000 0.90140  0.97188  0.66840  Biso   1.000  C
  C329     1.0000 0.67350  0.89338  0.98800  Biso   1.000  C
  H161     1.0000 0.63940  0.91840  0.97720  Biso   1.000  H
  O112     1.0000 0.47220  0.78580  0.69720  Biso   1.000  O
  Tb15     1.0000 0.05681  0.32929  0.88488  Biso   1.000  Tb
  Tb16     1.0000 0.31151  0.44314  0.09681  Biso   1.000  Tb
  N57      1.0000 0.08750  0.26828  0.96170  Biso   1.000  N
  N58      1.0000 0.18760  0.27694  0.87710  Biso   1.000  N
  N59      1.0000 0.16870  0.35455  0.82009  Biso   1.000  N
  N60      1.0000 0.43570  0.09535  0.79112  Biso   1.000  N
  N61      1.0000 0.43560  0.41015  0.05183  Biso   1.000  N
  N62      1.0000 0.33770  0.47365  0.99592  Biso   1.000  N
  N63      1.0000 0.20170  0.49759  0.04986  Biso   1.000  N
  N64      1.0000 0.37430  0.54536  0.70488  Biso   1.000  N
  O113     1.0000 0.98260  0.33632  0.96860  Biso   1.000  O
  O114     1.0000 0.91860  0.30440  0.03870  Biso   1.000  O
  O115     1.0000 0.04490  0.40543  0.85429  Biso   1.000  O
  O116     1.0000 0.07630  0.46183  0.79550  Biso   1.000  O
  O117     1.0000 0.30770  0.11482  0.65410  Biso   1.000  O
  O118     1.0000 0.38840  0.05603  0.68698  Biso   1.000  O
  O119     1.0000 0.36030  0.37395  0.13638  Biso   1.000  O
  O120     1.0000 0.46640  0.32430  0.15945  Biso   1.000  O
  O121     1.0000 0.19950  0.45820  0.15319  Biso   1.000  O
  O122     1.0000 0.08160  0.49576  0.17140  Biso   1.000  O
  O123     1.0000 0.42810  0.43391  0.67807  Biso   1.000  O
  O124     1.0000 0.38270  0.48969  0.61664  Biso   1.000  O
  O125     1.0000 0.16240  0.36129  0.95555  Biso   1.000  O
  O126     1.0000 0.22430  0.39709  0.03351  Biso   1.000  O
  O127     1.0000 0.01420  0.31650  0.78140  Biso   1.000  O
  C330     1.0000 0.97290  0.30560  0.00420  Biso   1.000  C
  C331     1.0000 0.03610  0.26640  0.00500  Biso   1.000  C
  C332     1.0000 0.04040  0.23230  0.04670  Biso   1.000  C
  H162     1.0000 0.00370  0.23220  0.07600  Biso   1.000  H
  C333     1.0000 0.09980  0.19870  0.04400  Biso   1.000  C
  H163     1.0000 0.10380  0.17530  0.07130  Biso   1.000  H
  C334     1.0000 0.15430  0.20004  0.99980  Biso   1.000  C
  H164     1.0000 0.19590  0.17790  0.99770  Biso   1.000  H
  C335     1.0000 0.14550  0.23496  0.95910  Biso   1.000  C
  C336     1.0000 0.19870  0.23905  0.90950  Biso   1.000  C
  C337     1.0000 0.25530  0.20530  0.89670  Biso   1.000  C
  H165     1.0000 0.26480  0.18040  0.92140  Biso   1.000  H
  C338     1.0000 0.29740  0.20924  0.84680  Biso   1.000  C
  C339     1.0000 0.28860  0.24860  0.81470  Biso   1.000  C
  H166     1.0000 0.31750  0.25250  0.78170  Biso   1.000  H
  C340     1.0000 0.23610  0.28243  0.83240  Biso   1.000  C
  C341     1.0000 0.22880  0.32706  0.80270  Biso   1.000  C
  C342     1.0000 0.28180  0.34050  0.76170  Biso   1.000  C
  H167     1.0000 0.32430  0.32130  0.75080  Biso   1.000  H
  C343     1.0000 0.27100  0.38250  0.73730  Biso   1.000  C
  H168     1.0000 0.30580  0.39180  0.70920  Biso   1.000  H
  C344     1.0000 0.20900  0.41101  0.75440  Biso   1.000  C
  H169     1.0000 0.20110  0.43970  0.73830  Biso   1.000  H
  C345     1.0000 0.15900  0.39567  0.79590  Biso   1.000  C
  C346     1.0000 0.08720  0.42357  0.81710  Biso   1.000  C
  C347     1.0000 0.45200  0.11212  0.84630  Biso   1.000  C
  H170     1.0000 0.49460  0.09830  0.87250  Biso   1.000  H
  C348     1.0000 0.40990  0.14819  0.86630  Biso   1.000  C
  H171     1.0000 0.42270  0.15810  0.90520  Biso   1.000  H
  C349     1.0000 0.34750  0.16992  0.82720  Biso   1.000  C
  C350     1.0000 0.33070  0.15347  0.76980  Biso   1.000  C
  H172     1.0000 0.29020  0.16750  0.74220  Biso   1.000  H
  C351     1.0000 0.37490  0.11593  0.75410  Biso   1.000  C
  C352     1.0000 0.35450  0.09457  0.69330  Biso   1.000  C
  C353     1.0000 0.43350  0.35663  0.13040  Biso   1.000  C
  C354     1.0000 0.47980  0.37727  0.08260  Biso   1.000  C
  C355     1.0000 0.55910  0.36200  0.06820  Biso   1.000  C
  H173     1.0000 0.58880  0.33910  0.08980  Biso   1.000  H
  C356     1.0000 0.59240  0.38190  0.02100  Biso   1.000  C
  H174     1.0000 0.64640  0.37320  0.01140  Biso   1.000  H
  C357     1.0000 0.54530  0.41480  0.98800  Biso   1.000  C
  H175     1.0000 0.56650  0.42810  0.95570  Biso   1.000  H
  C358     1.0000 0.46620  0.42747  0.00430  Biso   1.000  C
  C359     1.0000 0.40590  0.45964  0.97020  Biso   1.000  C
  C360     1.0000 0.41850  0.47233  0.91270  Biso   1.000  C
  H176     1.0000 0.46560  0.46160  0.89550  Biso   1.000  H
  C361     1.0000 0.35940  0.50127  0.88180  Biso   1.000  C
  C362     1.0000 0.29000  0.51630  0.90870  Biso   1.000  C
  H177     1.0000 0.25000  0.53600  0.88890  Biso   1.000  H
  C363     1.0000 0.28020  0.50174  0.96600  Biso   1.000  C
  C364     1.0000 0.20580  0.51615  0.99640  Biso   1.000  C
  C365     1.0000 0.14430  0.54680  0.97210  Biso   1.000  C
  H178     1.0000 0.14680  0.55890  0.93460  Biso   1.000  H
  C366     1.0000 0.07900  0.55890  0.00530  Biso   1.000  C
  H179     1.0000 0.03740  0.57980  0.99040  Biso   1.000  H
  C367     1.0000 0.07550  0.54020  0.06020  Biso   1.000  C
  H180     1.0000 0.03240  0.54830  0.08300  Biso   1.000  H
  C368     1.0000 0.13670  0.50943  0.08040  Biso   1.000  C
  C369     1.0000 0.13950  0.48591  0.14030  Biso   1.000  C
  C370     1.0000 0.36040  0.57503  0.74760  Biso   1.000  C
  H181     1.0000 0.35320  0.60530  0.73790  Biso   1.000  H
  C371     1.0000 0.35670  0.56148  0.80560  Biso   1.000  C
  H182     1.0000 0.34550  0.58230  0.83410  Biso   1.000  H
  C372     1.0000 0.36990  0.51680  0.82070  Biso   1.000  C
  C373     1.0000 0.38870  0.48665  0.77680  Biso   1.000  C
  H183     1.0000 0.40090  0.45670  0.78580  Biso   1.000  H
  C374     1.0000 0.38880  0.50254  0.71980  Biso   1.000  C
  C375     1.0000 0.40140  0.47188  0.66840  Biso   1.000  C
  C376     1.0000 0.17350  0.39338  0.98800  Biso   1.000  C
  H184     1.0000 0.13940  0.41840  0.97720  Biso   1.000  H
  O128     1.0000 0.97220  0.28580  0.69720  Biso   1.000  O
  Tb17     1.0000 0.50000  0.02305  0.75000  Biso   1.000  Tb
  Tb18     1.0000 0.00000  0.52305  0.75000  Biso   1.000  Tb
  Tb19     1.0000 0.50000  0.97695  0.25000  Biso   1.000  Tb
  Tb20     1.0000 0.00000  0.47695  0.25000  Biso   1.000  Tb
  C377     1.0000 0.50000  0.21700  0.25000  Biso   1.000  C
  C378     1.0000 0.00000  0.71700  0.25000  Biso   1.000  C
  C379     1.0000 0.50000  0.78300  0.75000  Biso   1.000  C
  C380     1.0000 0.00000  0.28300  0.75000  Biso   1.000  C
