data_image0
_cell_length_a       21.0408
_cell_length_b       21.0408
_cell_length_c       21.0408
_cell_angle_alpha    90
_cell_angle_beta     90
_cell_angle_gamma    90

_symmetry_space_group_name_H-M    "P 1"
_symmetry_int_tables_number       1

loop_
  _symmetry_equiv_pos_as_xyz
  'x, y, z'

loop_
  _atom_site_label
  _atom_site_occupancy
  _atom_site_fract_x
  _atom_site_fract_y
  _atom_site_fract_z
  _atom_site_thermal_displace_type
  _atom_site_B_iso_or_equiv
  _atom_site_type_symbol
  C1       1.0000 0.35180  0.19810  0.95560  Biso   1.000  C
  H1       1.0000 0.32270  0.16650  0.93630  Biso   1.000  H
  H2       1.0000 0.38840  0.17500  0.97410  Biso   1.000  H
  C2       1.0000 0.37420  0.24270  0.90670  Biso   1.000  C
  O1       1.0000 0.40610  0.21970  0.86460  Biso   1.000  O
  O2       1.0000 0.35720  0.30000  0.91230  Biso   1.000  O
  C3       1.0000 0.36060  0.21940  0.92760  Biso   1.000  C
  H3       1.0000 0.37560  0.17510  0.92300  Biso   1.000  H
  H4       1.0000 0.33150  0.22930  0.89200  Biso   1.000  H
  C4       1.0000 0.41670  0.26540  0.92820  Biso   1.000  C
  O3       1.0000 0.46100  0.25430  0.89030  Biso   1.000  O
  O4       1.0000 0.41490  0.31240  0.96330  Biso   1.000  O
  C5       1.0000 0.25290  0.21460  0.97550  Biso   1.000  C
  C6       1.0000 0.23710  0.14310  0.97790  Biso   1.000  C
  C7       1.0000 0.16600  0.13240  0.97010  Biso   1.000  C
  C8       1.0000 0.64820  0.80190  0.95560  Biso   1.000  C
  H5       1.0000 0.67730  0.83350  0.93630  Biso   1.000  H
  H6       1.0000 0.61160  0.82500  0.97410  Biso   1.000  H
  C9       1.0000 0.62580  0.75730  0.90670  Biso   1.000  C
  O5       1.0000 0.59390  0.78030  0.86460  Biso   1.000  O
  O6       1.0000 0.64280  0.70000  0.91230  Biso   1.000  O
  C10      1.0000 0.63940  0.78060  0.92760  Biso   1.000  C
  H7       1.0000 0.62440  0.82490  0.92300  Biso   1.000  H
  H8       1.0000 0.66850  0.77070  0.89200  Biso   1.000  H
  C11      1.0000 0.58330  0.73460  0.92820  Biso   1.000  C
  O7       1.0000 0.53900  0.74570  0.89030  Biso   1.000  O
  O8       1.0000 0.58510  0.68760  0.96330  Biso   1.000  O
  C12      1.0000 0.74710  0.78540  0.97550  Biso   1.000  C
  C13      1.0000 0.76290  0.85690  0.97790  Biso   1.000  C
  C14      1.0000 0.83400  0.86760  0.97010  Biso   1.000  C
  C15      1.0000 0.64820  0.19810  0.04440  Biso   1.000  C
  H9       1.0000 0.67730  0.16650  0.06370  Biso   1.000  H
  H10      1.0000 0.61160  0.17500  0.02590  Biso   1.000  H
  C16      1.0000 0.62580  0.24270  0.09330  Biso   1.000  C
  O9       1.0000 0.59390  0.21970  0.13540  Biso   1.000  O
  O10      1.0000 0.64280  0.30000  0.08770  Biso   1.000  O
  C17      1.0000 0.63940  0.21940  0.07240  Biso   1.000  C
  H11      1.0000 0.62440  0.17510  0.07700  Biso   1.000  H
  H12      1.0000 0.66850  0.22930  0.10800  Biso   1.000  H
  C18      1.0000 0.58330  0.26540  0.07180  Biso   1.000  C
  O11      1.0000 0.53900  0.25430  0.10970  Biso   1.000  O
  O12      1.0000 0.58510  0.31240  0.03670  Biso   1.000  O
  C19      1.0000 0.74710  0.21460  0.02450  Biso   1.000  C
  C20      1.0000 0.76290  0.14310  0.02210  Biso   1.000  C
  C21      1.0000 0.83400  0.13240  0.02990  Biso   1.000  C
  C22      1.0000 0.35180  0.80190  0.04440  Biso   1.000  C
  H13      1.0000 0.32270  0.83350  0.06370  Biso   1.000  H
  H14      1.0000 0.38840  0.82500  0.02590  Biso   1.000  H
  C23      1.0000 0.37420  0.75730  0.09330  Biso   1.000  C
  O13      1.0000 0.40610  0.78030  0.13540  Biso   1.000  O
  O14      1.0000 0.35720  0.70000  0.08770  Biso   1.000  O
  C24      1.0000 0.36060  0.78060  0.07240  Biso   1.000  C
  H15      1.0000 0.37560  0.82490  0.07700  Biso   1.000  H
  H16      1.0000 0.33150  0.77070  0.10800  Biso   1.000  H
  C25      1.0000 0.41670  0.73460  0.07180  Biso   1.000  C
  O15      1.0000 0.46100  0.74570  0.10970  Biso   1.000  O
  O16      1.0000 0.41490  0.68760  0.03670  Biso   1.000  O
  C26      1.0000 0.25290  0.78540  0.02450  Biso   1.000  C
  C27      1.0000 0.23710  0.85690  0.02210  Biso   1.000  C
  C28      1.0000 0.16600  0.86760  0.02990  Biso   1.000  C
  C29      1.0000 0.95560  0.35180  0.19810  Biso   1.000  C
  H17      1.0000 0.93630  0.32270  0.16650  Biso   1.000  H
  H18      1.0000 0.97410  0.38840  0.17500  Biso   1.000  H
  C30      1.0000 0.90670  0.37420  0.24270  Biso   1.000  C
  O17      1.0000 0.86460  0.40610  0.21970  Biso   1.000  O
  O18      1.0000 0.91230  0.35720  0.30000  Biso   1.000  O
  C31      1.0000 0.92760  0.36060  0.21940  Biso   1.000  C
  H19      1.0000 0.92300  0.37560  0.17510  Biso   1.000  H
  H20      1.0000 0.89200  0.33150  0.22930  Biso   1.000  H
  C32      1.0000 0.92820  0.41670  0.26540  Biso   1.000  C
  O19      1.0000 0.89030  0.46100  0.25430  Biso   1.000  O
  O20      1.0000 0.96330  0.41490  0.31240  Biso   1.000  O
  C33      1.0000 0.97550  0.25290  0.21460  Biso   1.000  C
  C34      1.0000 0.97790  0.23710  0.14310  Biso   1.000  C
  C35      1.0000 0.97010  0.16600  0.13240  Biso   1.000  C
  C36      1.0000 0.95560  0.64820  0.80190  Biso   1.000  C
  H21      1.0000 0.93630  0.67730  0.83350  Biso   1.000  H
  H22      1.0000 0.97410  0.61160  0.82500  Biso   1.000  H
  C37      1.0000 0.90670  0.62580  0.75730  Biso   1.000  C
  O21      1.0000 0.86460  0.59390  0.78030  Biso   1.000  O
  O22      1.0000 0.91230  0.64280  0.70000  Biso   1.000  O
  C38      1.0000 0.92760  0.63940  0.78060  Biso   1.000  C
  H23      1.0000 0.92300  0.62440  0.82490  Biso   1.000  H
  H24      1.0000 0.89200  0.66850  0.77070  Biso   1.000  H
  C39      1.0000 0.92820  0.58330  0.73460  Biso   1.000  C
  O23      1.0000 0.89030  0.53900  0.74570  Biso   1.000  O
  O24      1.0000 0.96330  0.58510  0.68760  Biso   1.000  O
  C40      1.0000 0.97550  0.74710  0.78540  Biso   1.000  C
  C41      1.0000 0.97790  0.76290  0.85690  Biso   1.000  C
  C42      1.0000 0.97010  0.83400  0.86760  Biso   1.000  C
  C43      1.0000 0.04440  0.64820  0.19810  Biso   1.000  C
  H25      1.0000 0.06370  0.67730  0.16650  Biso   1.000  H
  H26      1.0000 0.02590  0.61160  0.17500  Biso   1.000  H
  C44      1.0000 0.09330  0.62580  0.24270  Biso   1.000  C
  O25      1.0000 0.13540  0.59390  0.21970  Biso   1.000  O
  O26      1.0000 0.08770  0.64280  0.30000  Biso   1.000  O
  C45      1.0000 0.07240  0.63940  0.21940  Biso   1.000  C
  H27      1.0000 0.07700  0.62440  0.17510  Biso   1.000  H
  H28      1.0000 0.10800  0.66850  0.22930  Biso   1.000  H
  C46      1.0000 0.07180  0.58330  0.26540  Biso   1.000  C
  O27      1.0000 0.10970  0.53900  0.25430  Biso   1.000  O
  O28      1.0000 0.03670  0.58510  0.31240  Biso   1.000  O
  C47      1.0000 0.02450  0.74710  0.21460  Biso   1.000  C
  C48      1.0000 0.02210  0.76290  0.14310  Biso   1.000  C
  C49      1.0000 0.02990  0.83400  0.13240  Biso   1.000  C
  C50      1.0000 0.04440  0.35180  0.80190  Biso   1.000  C
  H29      1.0000 0.06370  0.32270  0.83350  Biso   1.000  H
  H30      1.0000 0.02590  0.38840  0.82500  Biso   1.000  H
  C51      1.0000 0.09330  0.37420  0.75730  Biso   1.000  C
  O29      1.0000 0.13540  0.40610  0.78030  Biso   1.000  O
  O30      1.0000 0.08770  0.35720  0.70000  Biso   1.000  O
  C52      1.0000 0.07240  0.36060  0.78060  Biso   1.000  C
  H31      1.0000 0.07700  0.37560  0.82490  Biso   1.000  H
  H32      1.0000 0.10800  0.33150  0.77070  Biso   1.000  H
  C53      1.0000 0.07180  0.41670  0.73460  Biso   1.000  C
  O31      1.0000 0.10970  0.46100  0.74570  Biso   1.000  O
  O32      1.0000 0.03670  0.41490  0.68760  Biso   1.000  O
  C54      1.0000 0.02450  0.25290  0.78540  Biso   1.000  C
  C55      1.0000 0.02210  0.23710  0.85690  Biso   1.000  C
  C56      1.0000 0.02990  0.16600  0.86760  Biso   1.000  C
  C57      1.0000 0.19810  0.95560  0.35180  Biso   1.000  C
  H33      1.0000 0.16650  0.93630  0.32270  Biso   1.000  H
  H34      1.0000 0.17500  0.97410  0.38840  Biso   1.000  H
  C58      1.0000 0.24270  0.90670  0.37420  Biso   1.000  C
  O33      1.0000 0.21970  0.86460  0.40610  Biso   1.000  O
  O34      1.0000 0.30000  0.91230  0.35720  Biso   1.000  O
  C59      1.0000 0.21940  0.92760  0.36060  Biso   1.000  C
  H35      1.0000 0.17510  0.92300  0.37560  Biso   1.000  H
  H36      1.0000 0.22930  0.89200  0.33150  Biso   1.000  H
  C60      1.0000 0.26540  0.92820  0.41670  Biso   1.000  C
  O35      1.0000 0.25430  0.89030  0.46100  Biso   1.000  O
  O36      1.0000 0.31240  0.96330  0.41490  Biso   1.000  O
  C61      1.0000 0.21460  0.97550  0.25290  Biso   1.000  C
  C62      1.0000 0.14310  0.97790  0.23710  Biso   1.000  C
  C63      1.0000 0.13240  0.97010  0.16600  Biso   1.000  C
  C64      1.0000 0.80190  0.95560  0.64820  Biso   1.000  C
  H37      1.0000 0.83350  0.93630  0.67730  Biso   1.000  H
  H38      1.0000 0.82500  0.97410  0.61160  Biso   1.000  H
  C65      1.0000 0.75730  0.90670  0.62580  Biso   1.000  C
  O37      1.0000 0.78030  0.86460  0.59390  Biso   1.000  O
  O38      1.0000 0.70000  0.91230  0.64280  Biso   1.000  O
  C66      1.0000 0.78060  0.92760  0.63940  Biso   1.000  C
  H39      1.0000 0.82490  0.92300  0.62440  Biso   1.000  H
  H40      1.0000 0.77070  0.89200  0.66850  Biso   1.000  H
  C67      1.0000 0.73460  0.92820  0.58330  Biso   1.000  C
  O39      1.0000 0.74570  0.89030  0.53900  Biso   1.000  O
  O40      1.0000 0.68760  0.96330  0.58510  Biso   1.000  O
  C68      1.0000 0.78540  0.97550  0.74710  Biso   1.000  C
  C69      1.0000 0.85690  0.97790  0.76290  Biso   1.000  C
  C70      1.0000 0.86760  0.97010  0.83400  Biso   1.000  C
  C71      1.0000 0.19810  0.04440  0.64820  Biso   1.000  C
  H41      1.0000 0.16650  0.06370  0.67730  Biso   1.000  H
  H42      1.0000 0.17500  0.02590  0.61160  Biso   1.000  H
  C72      1.0000 0.24270  0.09330  0.62580  Biso   1.000  C
  O41      1.0000 0.21970  0.13540  0.59390  Biso   1.000  O
  O42      1.0000 0.30000  0.08770  0.64280  Biso   1.000  O
  C73      1.0000 0.21940  0.07240  0.63940  Biso   1.000  C
  H43      1.0000 0.17510  0.07700  0.62440  Biso   1.000  H
  H44      1.0000 0.22930  0.10800  0.66850  Biso   1.000  H
  C74      1.0000 0.26540  0.07180  0.58330  Biso   1.000  C
  O43      1.0000 0.25430  0.10970  0.53900  Biso   1.000  O
  O44      1.0000 0.31240  0.03670  0.58510  Biso   1.000  O
  C75      1.0000 0.21460  0.02450  0.74710  Biso   1.000  C
  C76      1.0000 0.14310  0.02210  0.76290  Biso   1.000  C
  C77      1.0000 0.13240  0.02990  0.83400  Biso   1.000  C
  C78      1.0000 0.80190  0.04440  0.35180  Biso   1.000  C
  H45      1.0000 0.83350  0.06370  0.32270  Biso   1.000  H
  H46      1.0000 0.82500  0.02590  0.38840  Biso   1.000  H
  C79      1.0000 0.75730  0.09330  0.37420  Biso   1.000  C
  O45      1.0000 0.78030  0.13540  0.40610  Biso   1.000  O
  O46      1.0000 0.70000  0.08770  0.35720  Biso   1.000  O
  C80      1.0000 0.78060  0.07240  0.36060  Biso   1.000  C
  H47      1.0000 0.82490  0.07700  0.37560  Biso   1.000  H
  H48      1.0000 0.77070  0.10800  0.33150  Biso   1.000  H
  C81      1.0000 0.73460  0.07180  0.41670  Biso   1.000  C
  O47      1.0000 0.74570  0.10970  0.46100  Biso   1.000  O
  O48      1.0000 0.68760  0.03670  0.41490  Biso   1.000  O
  C82      1.0000 0.78540  0.02450  0.25290  Biso   1.000  C
  C83      1.0000 0.85690  0.02210  0.23710  Biso   1.000  C
  C84      1.0000 0.86760  0.02990  0.16600  Biso   1.000  C
  C85      1.0000 0.19810  0.35180  0.04440  Biso   1.000  C
  H49      1.0000 0.16650  0.32270  0.06370  Biso   1.000  H
  H50      1.0000 0.17500  0.38840  0.02590  Biso   1.000  H
  C86      1.0000 0.24270  0.37420  0.09330  Biso   1.000  C
  O49      1.0000 0.21970  0.40610  0.13540  Biso   1.000  O
  O50      1.0000 0.30000  0.35720  0.08770  Biso   1.000  O
  C87      1.0000 0.21940  0.36060  0.07240  Biso   1.000  C
  H51      1.0000 0.17510  0.37560  0.07700  Biso   1.000  H
  H52      1.0000 0.22930  0.33150  0.10800  Biso   1.000  H
  C88      1.0000 0.26540  0.41670  0.07180  Biso   1.000  C
  O51      1.0000 0.25430  0.46100  0.10970  Biso   1.000  O
  O52      1.0000 0.31240  0.41490  0.03670  Biso   1.000  O
  C89      1.0000 0.21460  0.25290  0.02450  Biso   1.000  C
  C90      1.0000 0.14310  0.23710  0.02210  Biso   1.000  C
  C91      1.0000 0.13240  0.16600  0.02990  Biso   1.000  C
  C92      1.0000 0.80190  0.64820  0.04440  Biso   1.000  C
  H53      1.0000 0.83350  0.67730  0.06370  Biso   1.000  H
  H54      1.0000 0.82500  0.61160  0.02590  Biso   1.000  H
  C93      1.0000 0.75730  0.62580  0.09330  Biso   1.000  C
  O53      1.0000 0.78030  0.59390  0.13540  Biso   1.000  O
  O54      1.0000 0.70000  0.64280  0.08770  Biso   1.000  O
  C94      1.0000 0.78060  0.63940  0.07240  Biso   1.000  C
  H55      1.0000 0.82490  0.62440  0.07700  Biso   1.000  H
  H56      1.0000 0.77070  0.66850  0.10800  Biso   1.000  H
  C95      1.0000 0.73460  0.58330  0.07180  Biso   1.000  C
  O55      1.0000 0.74570  0.53900  0.10970  Biso   1.000  O
  O56      1.0000 0.68760  0.58510  0.03670  Biso   1.000  O
  C96      1.0000 0.78540  0.74710  0.02450  Biso   1.000  C
  C97      1.0000 0.85690  0.76290  0.02210  Biso   1.000  C
  C98      1.0000 0.86760  0.83400  0.02990  Biso   1.000  C
  C99      1.0000 0.19810  0.64820  0.95560  Biso   1.000  C
  H57      1.0000 0.16650  0.67730  0.93630  Biso   1.000  H
  H58      1.0000 0.17500  0.61160  0.97410  Biso   1.000  H
  C100     1.0000 0.24270  0.62580  0.90670  Biso   1.000  C
  O57      1.0000 0.21970  0.59390  0.86460  Biso   1.000  O
  O58      1.0000 0.30000  0.64280  0.91230  Biso   1.000  O
  C101     1.0000 0.21940  0.63940  0.92760  Biso   1.000  C
  H59      1.0000 0.17510  0.62440  0.92300  Biso   1.000  H
  H60      1.0000 0.22930  0.66850  0.89200  Biso   1.000  H
  C102     1.0000 0.26540  0.58330  0.92820  Biso   1.000  C
  O59      1.0000 0.25430  0.53900  0.89030  Biso   1.000  O
  O60      1.0000 0.31240  0.58510  0.96330  Biso   1.000  O
  C103     1.0000 0.21460  0.74710  0.97550  Biso   1.000  C
  C104     1.0000 0.14310  0.76290  0.97790  Biso   1.000  C
  C105     1.0000 0.13240  0.83400  0.97010  Biso   1.000  C
  C106     1.0000 0.80190  0.35180  0.95560  Biso   1.000  C
  H61      1.0000 0.83350  0.32270  0.93630  Biso   1.000  H
  H62      1.0000 0.82500  0.38840  0.97410  Biso   1.000  H
  C107     1.0000 0.75730  0.37420  0.90670  Biso   1.000  C
  O61      1.0000 0.78030  0.40610  0.86460  Biso   1.000  O
  O62      1.0000 0.70000  0.35720  0.91230  Biso   1.000  O
  C108     1.0000 0.78060  0.36060  0.92760  Biso   1.000  C
  H63      1.0000 0.82490  0.37560  0.92300  Biso   1.000  H
  H64      1.0000 0.77070  0.33150  0.89200  Biso   1.000  H
  C109     1.0000 0.73460  0.41670  0.92820  Biso   1.000  C
  O63      1.0000 0.74570  0.46100  0.89030  Biso   1.000  O
  O64      1.0000 0.68760  0.41490  0.96330  Biso   1.000  O
  C110     1.0000 0.78540  0.25290  0.97550  Biso   1.000  C
  C111     1.0000 0.85690  0.23710  0.97790  Biso   1.000  C
  C112     1.0000 0.86760  0.16600  0.97010  Biso   1.000  C
  C113     1.0000 0.35180  0.95560  0.80190  Biso   1.000  C
  H65      1.0000 0.32270  0.93630  0.83350  Biso   1.000  H
  H66      1.0000 0.38840  0.97410  0.82500  Biso   1.000  H
  C114     1.0000 0.37420  0.90670  0.75730  Biso   1.000  C
  O65      1.0000 0.40610  0.86460  0.78030  Biso   1.000  O
  O66      1.0000 0.35720  0.91230  0.70000  Biso   1.000  O
  C115     1.0000 0.36060  0.92760  0.78060  Biso   1.000  C
  H67      1.0000 0.37560  0.92300  0.82490  Biso   1.000  H
  H68      1.0000 0.33150  0.89200  0.77070  Biso   1.000  H
  C116     1.0000 0.41670  0.92820  0.73460  Biso   1.000  C
  O67      1.0000 0.46100  0.89030  0.74570  Biso   1.000  O
  O68      1.0000 0.41490  0.96330  0.68760  Biso   1.000  O
  C117     1.0000 0.25290  0.97550  0.78540  Biso   1.000  C
  C118     1.0000 0.23710  0.97790  0.85690  Biso   1.000  C
  C119     1.0000 0.16600  0.97010  0.86760  Biso   1.000  C
  C120     1.0000 0.64820  0.95560  0.19810  Biso   1.000  C
  H69      1.0000 0.67730  0.93630  0.16650  Biso   1.000  H
  H70      1.0000 0.61160  0.97410  0.17500  Biso   1.000  H
  C121     1.0000 0.62580  0.90670  0.24270  Biso   1.000  C
  O69      1.0000 0.59390  0.86460  0.21970  Biso   1.000  O
  O70      1.0000 0.64280  0.91230  0.30000  Biso   1.000  O
  C122     1.0000 0.63940  0.92760  0.21940  Biso   1.000  C
  H71      1.0000 0.62440  0.92300  0.17510  Biso   1.000  H
  H72      1.0000 0.66850  0.89200  0.22930  Biso   1.000  H
  C123     1.0000 0.58330  0.92820  0.26540  Biso   1.000  C
  O71      1.0000 0.53900  0.89030  0.25430  Biso   1.000  O
  O72      1.0000 0.58510  0.96330  0.31240  Biso   1.000  O
  C124     1.0000 0.74710  0.97550  0.21460  Biso   1.000  C
  C125     1.0000 0.76290  0.97790  0.14310  Biso   1.000  C
  C126     1.0000 0.83400  0.97010  0.13240  Biso   1.000  C
  C127     1.0000 0.64820  0.04440  0.80190  Biso   1.000  C
  H73      1.0000 0.67730  0.06370  0.83350  Biso   1.000  H
  H74      1.0000 0.61160  0.02590  0.82500  Biso   1.000  H
  C128     1.0000 0.62580  0.09330  0.75730  Biso   1.000  C
  O73      1.0000 0.59390  0.13540  0.78030  Biso   1.000  O
  O74      1.0000 0.64280  0.08770  0.70000  Biso   1.000  O
  C129     1.0000 0.63940  0.07240  0.78060  Biso   1.000  C
  H75      1.0000 0.62440  0.07700  0.82490  Biso   1.000  H
  H76      1.0000 0.66850  0.10800  0.77070  Biso   1.000  H
  C130     1.0000 0.58330  0.07180  0.73460  Biso   1.000  C
  O75      1.0000 0.53900  0.10970  0.74570  Biso   1.000  O
  O76      1.0000 0.58510  0.03670  0.68760  Biso   1.000  O
  C131     1.0000 0.74710  0.02450  0.78540  Biso   1.000  C
  C132     1.0000 0.76290  0.02210  0.85690  Biso   1.000  C
  C133     1.0000 0.83400  0.02990  0.86760  Biso   1.000  C
  C134     1.0000 0.35180  0.04440  0.19810  Biso   1.000  C
  H77      1.0000 0.32270  0.06370  0.16650  Biso   1.000  H
  H78      1.0000 0.38840  0.02590  0.17500  Biso   1.000  H
  C135     1.0000 0.37420  0.09330  0.24270  Biso   1.000  C
  O77      1.0000 0.40610  0.13540  0.21970  Biso   1.000  O
  O78      1.0000 0.35720  0.08770  0.30000  Biso   1.000  O
  C136     1.0000 0.36060  0.07240  0.21940  Biso   1.000  C
  H79      1.0000 0.37560  0.07700  0.17510  Biso   1.000  H
  H80      1.0000 0.33150  0.10800  0.22930  Biso   1.000  H
  C137     1.0000 0.41670  0.07180  0.26540  Biso   1.000  C
  O79      1.0000 0.46100  0.10970  0.25430  Biso   1.000  O
  O80      1.0000 0.41490  0.03670  0.31240  Biso   1.000  O
  C138     1.0000 0.25290  0.02450  0.21460  Biso   1.000  C
  C139     1.0000 0.23710  0.02210  0.14310  Biso   1.000  C
  C140     1.0000 0.16600  0.02990  0.13240  Biso   1.000  C
  C141     1.0000 0.95560  0.19810  0.64820  Biso   1.000  C
  H81      1.0000 0.93630  0.16650  0.67730  Biso   1.000  H
  H82      1.0000 0.97410  0.17500  0.61160  Biso   1.000  H
  C142     1.0000 0.90670  0.24270  0.62580  Biso   1.000  C
  O81      1.0000 0.86460  0.21970  0.59390  Biso   1.000  O
  O82      1.0000 0.91230  0.30000  0.64280  Biso   1.000  O
  C143     1.0000 0.92760  0.21940  0.63940  Biso   1.000  C
  H83      1.0000 0.92300  0.17510  0.62440  Biso   1.000  H
  H84      1.0000 0.89200  0.22930  0.66850  Biso   1.000  H
  C144     1.0000 0.92820  0.26540  0.58330  Biso   1.000  C
  O83      1.0000 0.89030  0.25430  0.53900  Biso   1.000  O
  O84      1.0000 0.96330  0.31240  0.58510  Biso   1.000  O
  C145     1.0000 0.97550  0.21460  0.74710  Biso   1.000  C
  C146     1.0000 0.97790  0.14310  0.76290  Biso   1.000  C
  C147     1.0000 0.97010  0.13240  0.83400  Biso   1.000  C
  C148     1.0000 0.95560  0.80190  0.35180  Biso   1.000  C
  H85      1.0000 0.93630  0.83350  0.32270  Biso   1.000  H
  H86      1.0000 0.97410  0.82500  0.38840  Biso   1.000  H
  C149     1.0000 0.90670  0.75730  0.37420  Biso   1.000  C
  O85      1.0000 0.86460  0.78030  0.40610  Biso   1.000  O
  O86      1.0000 0.91230  0.70000  0.35720  Biso   1.000  O
  C150     1.0000 0.92760  0.78060  0.36060  Biso   1.000  C
  H87      1.0000 0.92300  0.82490  0.37560  Biso   1.000  H
  H88      1.0000 0.89200  0.77070  0.33150  Biso   1.000  H
  C151     1.0000 0.92820  0.73460  0.41670  Biso   1.000  C
  O87      1.0000 0.89030  0.74570  0.46100  Biso   1.000  O
  O88      1.0000 0.96330  0.68760  0.41490  Biso   1.000  O
  C152     1.0000 0.97550  0.78540  0.25290  Biso   1.000  C
  C153     1.0000 0.97790  0.85690  0.23710  Biso   1.000  C
  C154     1.0000 0.97010  0.86760  0.16600  Biso   1.000  C
  C155     1.0000 0.04440  0.19810  0.35180  Biso   1.000  C
  H89      1.0000 0.06370  0.16650  0.32270  Biso   1.000  H
  H90      1.0000 0.02590  0.17500  0.38840  Biso   1.000  H
  C156     1.0000 0.09330  0.24270  0.37420  Biso   1.000  C
  O89      1.0000 0.13540  0.21970  0.40610  Biso   1.000  O
  O90      1.0000 0.08770  0.30000  0.35720  Biso   1.000  O
  C157     1.0000 0.07240  0.21940  0.36060  Biso   1.000  C
  H91      1.0000 0.07700  0.17510  0.37560  Biso   1.000  H
  H92      1.0000 0.10800  0.22930  0.33150  Biso   1.000  H
  C158     1.0000 0.07180  0.26540  0.41670  Biso   1.000  C
  O91      1.0000 0.10970  0.25430  0.46100  Biso   1.000  O
  O92      1.0000 0.03670  0.31240  0.41490  Biso   1.000  O
  C159     1.0000 0.02450  0.21460  0.25290  Biso   1.000  C
  C160     1.0000 0.02210  0.14310  0.23710  Biso   1.000  C
  C161     1.0000 0.02990  0.13240  0.16600  Biso   1.000  C
  C162     1.0000 0.04440  0.80190  0.64820  Biso   1.000  C
  H93      1.0000 0.06370  0.83350  0.67730  Biso   1.000  H
  H94      1.0000 0.02590  0.82500  0.61160  Biso   1.000  H
  C163     1.0000 0.09330  0.75730  0.62580  Biso   1.000  C
  O93      1.0000 0.13540  0.78030  0.59390  Biso   1.000  O
  O94      1.0000 0.08770  0.70000  0.64280  Biso   1.000  O
  C164     1.0000 0.07240  0.78060  0.63940  Biso   1.000  C
  H95      1.0000 0.07700  0.82490  0.62440  Biso   1.000  H
  H96      1.0000 0.10800  0.77070  0.66850  Biso   1.000  H
  C165     1.0000 0.07180  0.73460  0.58330  Biso   1.000  C
  O95      1.0000 0.10970  0.74570  0.53900  Biso   1.000  O
  O96      1.0000 0.03670  0.68760  0.58510  Biso   1.000  O
  C166     1.0000 0.02450  0.78540  0.74710  Biso   1.000  C
  C167     1.0000 0.02210  0.85690  0.76290  Biso   1.000  C
  C168     1.0000 0.02990  0.86760  0.83400  Biso   1.000  C
  C169     1.0000 0.64820  0.80190  0.04440  Biso   1.000  C
  H97      1.0000 0.67730  0.83350  0.06370  Biso   1.000  H
  H98      1.0000 0.61160  0.82500  0.02590  Biso   1.000  H
  C170     1.0000 0.62580  0.75730  0.09330  Biso   1.000  C
  O97      1.0000 0.59390  0.78030  0.13540  Biso   1.000  O
  O98      1.0000 0.64280  0.70000  0.08770  Biso   1.000  O
  C171     1.0000 0.63940  0.78060  0.07240  Biso   1.000  C
  H99      1.0000 0.62440  0.82490  0.07700  Biso   1.000  H
  H100     1.0000 0.66850  0.77070  0.10800  Biso   1.000  H
  C172     1.0000 0.58330  0.73460  0.07180  Biso   1.000  C
  O99      1.0000 0.53900  0.74570  0.10970  Biso   1.000  O
  O100     1.0000 0.58510  0.68760  0.03670  Biso   1.000  O
  C173     1.0000 0.74710  0.78540  0.02450  Biso   1.000  C
  C174     1.0000 0.76290  0.85690  0.02210  Biso   1.000  C
  C175     1.0000 0.83400  0.86760  0.02990  Biso   1.000  C
  C176     1.0000 0.35180  0.19810  0.04440  Biso   1.000  C
  H101     1.0000 0.32270  0.16650  0.06370  Biso   1.000  H
  H102     1.0000 0.38840  0.17500  0.02590  Biso   1.000  H
  C177     1.0000 0.37420  0.24270  0.09330  Biso   1.000  C
  O101     1.0000 0.40610  0.21970  0.13540  Biso   1.000  O
  O102     1.0000 0.35720  0.30000  0.08770  Biso   1.000  O
  C178     1.0000 0.36060  0.21940  0.07240  Biso   1.000  C
  H103     1.0000 0.37560  0.17510  0.07700  Biso   1.000  H
  H104     1.0000 0.33150  0.22930  0.10800  Biso   1.000  H
  C179     1.0000 0.41670  0.26540  0.07180  Biso   1.000  C
  O103     1.0000 0.46100  0.25430  0.10970  Biso   1.000  O
  O104     1.0000 0.41490  0.31240  0.03670  Biso   1.000  O
  C180     1.0000 0.25290  0.21460  0.02450  Biso   1.000  C
  C181     1.0000 0.23710  0.14310  0.02210  Biso   1.000  C
  C182     1.0000 0.16600  0.13240  0.02990  Biso   1.000  C
  C183     1.0000 0.35180  0.80190  0.95560  Biso   1.000  C
  H105     1.0000 0.32270  0.83350  0.93630  Biso   1.000  H
  H106     1.0000 0.38840  0.82500  0.97410  Biso   1.000  H
  C184     1.0000 0.37420  0.75730  0.90670  Biso   1.000  C
  O105     1.0000 0.40610  0.78030  0.86460  Biso   1.000  O
  O106     1.0000 0.35720  0.70000  0.91230  Biso   1.000  O
  C185     1.0000 0.36060  0.78060  0.92760  Biso   1.000  C
  H107     1.0000 0.37560  0.82490  0.92300  Biso   1.000  H
  H108     1.0000 0.33150  0.77070  0.89200  Biso   1.000  H
  C186     1.0000 0.41670  0.73460  0.92820  Biso   1.000  C
  O107     1.0000 0.46100  0.74570  0.89030  Biso   1.000  O
  O108     1.0000 0.41490  0.68760  0.96330  Biso   1.000  O
  C187     1.0000 0.25290  0.78540  0.97550  Biso   1.000  C
  C188     1.0000 0.23710  0.85690  0.97790  Biso   1.000  C
  C189     1.0000 0.16600  0.86760  0.97010  Biso   1.000  C
  C190     1.0000 0.64820  0.19810  0.95560  Biso   1.000  C
  H109     1.0000 0.67730  0.16650  0.93630  Biso   1.000  H
  H110     1.0000 0.61160  0.17500  0.97410  Biso   1.000  H
  C191     1.0000 0.62580  0.24270  0.90670  Biso   1.000  C
  O109     1.0000 0.59390  0.21970  0.86460  Biso   1.000  O
  O110     1.0000 0.64280  0.30000  0.91230  Biso   1.000  O
  C192     1.0000 0.63940  0.21940  0.92760  Biso   1.000  C
  H111     1.0000 0.62440  0.17510  0.92300  Biso   1.000  H
  H112     1.0000 0.66850  0.22930  0.89200  Biso   1.000  H
  C193     1.0000 0.58330  0.26540  0.92820  Biso   1.000  C
  O111     1.0000 0.53900  0.25430  0.89030  Biso   1.000  O
  O112     1.0000 0.58510  0.31240  0.96330  Biso   1.000  O
  C194     1.0000 0.74710  0.21460  0.97550  Biso   1.000  C
  C195     1.0000 0.76290  0.14310  0.97790  Biso   1.000  C
  C196     1.0000 0.83400  0.13240  0.97010  Biso   1.000  C
  C197     1.0000 0.04440  0.64820  0.80190  Biso   1.000  C
  H113     1.0000 0.06370  0.67730  0.83350  Biso   1.000  H
  H114     1.0000 0.02590  0.61160  0.82500  Biso   1.000  H
  C198     1.0000 0.09330  0.62580  0.75730  Biso   1.000  C
  O113     1.0000 0.13540  0.59390  0.78030  Biso   1.000  O
  O114     1.0000 0.08770  0.64280  0.70000  Biso   1.000  O
  C199     1.0000 0.07240  0.63940  0.78060  Biso   1.000  C
  H115     1.0000 0.07700  0.62440  0.82490  Biso   1.000  H
  H116     1.0000 0.10800  0.66850  0.77070  Biso   1.000  H
  C200     1.0000 0.07180  0.58330  0.73460  Biso   1.000  C
  O115     1.0000 0.10970  0.53900  0.74570  Biso   1.000  O
  O116     1.0000 0.03670  0.58510  0.68760  Biso   1.000  O
  C201     1.0000 0.02450  0.74710  0.78540  Biso   1.000  C
  C202     1.0000 0.02210  0.76290  0.85690  Biso   1.000  C
  C203     1.0000 0.02990  0.83400  0.86760  Biso   1.000  C
  C204     1.0000 0.04440  0.35180  0.19810  Biso   1.000  C
  H117     1.0000 0.06370  0.32270  0.16650  Biso   1.000  H
  H118     1.0000 0.02590  0.38840  0.17500  Biso   1.000  H
  C205     1.0000 0.09330  0.37420  0.24270  Biso   1.000  C
  O117     1.0000 0.13540  0.40610  0.21970  Biso   1.000  O
  O118     1.0000 0.08770  0.35720  0.30000  Biso   1.000  O
  C206     1.0000 0.07240  0.36060  0.21940  Biso   1.000  C
  H119     1.0000 0.07700  0.37560  0.17510  Biso   1.000  H
  H120     1.0000 0.10800  0.33150  0.22930  Biso   1.000  H
  C207     1.0000 0.07180  0.41670  0.26540  Biso   1.000  C
  O119     1.0000 0.10970  0.46100  0.25430  Biso   1.000  O
  O120     1.0000 0.03670  0.41490  0.31240  Biso   1.000  O
  C208     1.0000 0.02450  0.25290  0.21460  Biso   1.000  C
  C209     1.0000 0.02210  0.23710  0.14310  Biso   1.000  C
  C210     1.0000 0.02990  0.16600  0.13240  Biso   1.000  C
  C211     1.0000 0.95560  0.35180  0.80190  Biso   1.000  C
  H121     1.0000 0.93630  0.32270  0.83350  Biso   1.000  H
  H122     1.0000 0.97410  0.38840  0.82500  Biso   1.000  H
  C212     1.0000 0.90670  0.37420  0.75730  Biso   1.000  C
  O121     1.0000 0.86460  0.40610  0.78030  Biso   1.000  O
  O122     1.0000 0.91230  0.35720  0.70000  Biso   1.000  O
  C213     1.0000 0.92760  0.36060  0.78060  Biso   1.000  C
  H123     1.0000 0.92300  0.37560  0.82490  Biso   1.000  H
  H124     1.0000 0.89200  0.33150  0.77070  Biso   1.000  H
  C214     1.0000 0.92820  0.41670  0.73460  Biso   1.000  C
  O123     1.0000 0.89030  0.46100  0.74570  Biso   1.000  O
  O124     1.0000 0.96330  0.41490  0.68760  Biso   1.000  O
  C215     1.0000 0.97550  0.25290  0.78540  Biso   1.000  C
  C216     1.0000 0.97790  0.23710  0.85690  Biso   1.000  C
  C217     1.0000 0.97010  0.16600  0.86760  Biso   1.000  C
  C218     1.0000 0.95560  0.64820  0.19810  Biso   1.000  C
  H125     1.0000 0.93630  0.67730  0.16650  Biso   1.000  H
  H126     1.0000 0.97410  0.61160  0.17500  Biso   1.000  H
  C219     1.0000 0.90670  0.62580  0.24270  Biso   1.000  C
  O125     1.0000 0.86460  0.59390  0.21970  Biso   1.000  O
  O126     1.0000 0.91230  0.64280  0.30000  Biso   1.000  O
  C220     1.0000 0.92760  0.63940  0.21940  Biso   1.000  C
  H127     1.0000 0.92300  0.62440  0.17510  Biso   1.000  H
  H128     1.0000 0.89200  0.66850  0.22930  Biso   1.000  H
  C221     1.0000 0.92820  0.58330  0.26540  Biso   1.000  C
  O127     1.0000 0.89030  0.53900  0.25430  Biso   1.000  O
  O128     1.0000 0.96330  0.58510  0.31240  Biso   1.000  O
  C222     1.0000 0.97550  0.74710  0.21460  Biso   1.000  C
  C223     1.0000 0.97790  0.76290  0.14310  Biso   1.000  C
  C224     1.0000 0.97010  0.83400  0.13240  Biso   1.000  C
  C225     1.0000 0.80190  0.04440  0.64820  Biso   1.000  C
  H129     1.0000 0.83350  0.06370  0.67730  Biso   1.000  H
  H130     1.0000 0.82500  0.02590  0.61160  Biso   1.000  H
  C226     1.0000 0.75730  0.09330  0.62580  Biso   1.000  C
  O129     1.0000 0.78030  0.13540  0.59390  Biso   1.000  O
  O130     1.0000 0.70000  0.08770  0.64280  Biso   1.000  O
  C227     1.0000 0.78060  0.07240  0.63940  Biso   1.000  C
  H131     1.0000 0.82490  0.07700  0.62440  Biso   1.000  H
  H132     1.0000 0.77070  0.10800  0.66850  Biso   1.000  H
  C228     1.0000 0.73460  0.07180  0.58330  Biso   1.000  C
  O131     1.0000 0.74570  0.10970  0.53900  Biso   1.000  O
  O132     1.0000 0.68760  0.03670  0.58510  Biso   1.000  O
  C229     1.0000 0.78540  0.02450  0.74710  Biso   1.000  C
  C230     1.0000 0.85690  0.02210  0.76290  Biso   1.000  C
  C231     1.0000 0.86760  0.02990  0.83400  Biso   1.000  C
  C232     1.0000 0.19810  0.04440  0.35180  Biso   1.000  C
  H133     1.0000 0.16650  0.06370  0.32270  Biso   1.000  H
  H134     1.0000 0.17500  0.02590  0.38840  Biso   1.000  H
  C233     1.0000 0.24270  0.09330  0.37420  Biso   1.000  C
  O133     1.0000 0.21970  0.13540  0.40610  Biso   1.000  O
  O134     1.0000 0.30000  0.08770  0.35720  Biso   1.000  O
  C234     1.0000 0.21940  0.07240  0.36060  Biso   1.000  C
  H135     1.0000 0.17510  0.07700  0.37560  Biso   1.000  H
  H136     1.0000 0.22930  0.10800  0.33150  Biso   1.000  H
  C235     1.0000 0.26540  0.07180  0.41670  Biso   1.000  C
  O135     1.0000 0.25430  0.10970  0.46100  Biso   1.000  O
  O136     1.0000 0.31240  0.03670  0.41490  Biso   1.000  O
  C236     1.0000 0.21460  0.02450  0.25290  Biso   1.000  C
  C237     1.0000 0.14310  0.02210  0.23710  Biso   1.000  C
  C238     1.0000 0.13240  0.02990  0.16600  Biso   1.000  C
  C239     1.0000 0.80190  0.95560  0.35180  Biso   1.000  C
  H137     1.0000 0.83350  0.93630  0.32270  Biso   1.000  H
  H138     1.0000 0.82500  0.97410  0.38840  Biso   1.000  H
  C240     1.0000 0.75730  0.90670  0.37420  Biso   1.000  C
  O137     1.0000 0.78030  0.86460  0.40610  Biso   1.000  O
  O138     1.0000 0.70000  0.91230  0.35720  Biso   1.000  O
  C241     1.0000 0.78060  0.92760  0.36060  Biso   1.000  C
  H139     1.0000 0.82490  0.92300  0.37560  Biso   1.000  H
  H140     1.0000 0.77070  0.89200  0.33150  Biso   1.000  H
  C242     1.0000 0.73460  0.92820  0.41670  Biso   1.000  C
  O139     1.0000 0.74570  0.89030  0.46100  Biso   1.000  O
  O140     1.0000 0.68760  0.96330  0.41490  Biso   1.000  O
  C243     1.0000 0.78540  0.97550  0.25290  Biso   1.000  C
  C244     1.0000 0.85690  0.97790  0.23710  Biso   1.000  C
  C245     1.0000 0.86760  0.97010  0.16600  Biso   1.000  C
  C246     1.0000 0.19810  0.95560  0.64820  Biso   1.000  C
  H141     1.0000 0.16650  0.93630  0.67730  Biso   1.000  H
  H142     1.0000 0.17500  0.97410  0.61160  Biso   1.000  H
  C247     1.0000 0.24270  0.90670  0.62580  Biso   1.000  C
  O141     1.0000 0.21970  0.86460  0.59390  Biso   1.000  O
  O142     1.0000 0.30000  0.91230  0.64280  Biso   1.000  O
  C248     1.0000 0.21940  0.92760  0.63940  Biso   1.000  C
  H143     1.0000 0.17510  0.92300  0.62440  Biso   1.000  H
  H144     1.0000 0.22930  0.89200  0.66850  Biso   1.000  H
  C249     1.0000 0.26540  0.92820  0.58330  Biso   1.000  C
  O143     1.0000 0.25430  0.89030  0.53900  Biso   1.000  O
  O144     1.0000 0.31240  0.96330  0.58510  Biso   1.000  O
  C250     1.0000 0.21460  0.97550  0.74710  Biso   1.000  C
  C251     1.0000 0.14310  0.97790  0.76290  Biso   1.000  C
  C252     1.0000 0.13240  0.97010  0.83400  Biso   1.000  C
  C253     1.0000 0.80190  0.64820  0.95560  Biso   1.000  C
  H145     1.0000 0.83350  0.67730  0.93630  Biso   1.000  H
  H146     1.0000 0.82500  0.61160  0.97410  Biso   1.000  H
  C254     1.0000 0.75730  0.62580  0.90670  Biso   1.000  C
  O145     1.0000 0.78030  0.59390  0.86460  Biso   1.000  O
  O146     1.0000 0.70000  0.64280  0.91230  Biso   1.000  O
  C255     1.0000 0.78060  0.63940  0.92760  Biso   1.000  C
  H147     1.0000 0.82490  0.62440  0.92300  Biso   1.000  H
  H148     1.0000 0.77070  0.66850  0.89200  Biso   1.000  H
  C256     1.0000 0.73460  0.58330  0.92820  Biso   1.000  C
  O147     1.0000 0.74570  0.53900  0.89030  Biso   1.000  O
  O148     1.0000 0.68760  0.58510  0.96330  Biso   1.000  O
  C257     1.0000 0.78540  0.74710  0.97550  Biso   1.000  C
  C258     1.0000 0.85690  0.76290  0.97790  Biso   1.000  C
  C259     1.0000 0.86760  0.83400  0.97010  Biso   1.000  C
  C260     1.0000 0.19810  0.35180  0.95560  Biso   1.000  C
  H149     1.0000 0.16650  0.32270  0.93630  Biso   1.000  H
  H150     1.0000 0.17500  0.38840  0.97410  Biso   1.000  H
  C261     1.0000 0.24270  0.37420  0.90670  Biso   1.000  C
  O149     1.0000 0.21970  0.40610  0.86460  Biso   1.000  O
  O150     1.0000 0.30000  0.35720  0.91230  Biso   1.000  O
  C262     1.0000 0.21940  0.36060  0.92760  Biso   1.000  C
  H151     1.0000 0.17510  0.37560  0.92300  Biso   1.000  H
  H152     1.0000 0.22930  0.33150  0.89200  Biso   1.000  H
  C263     1.0000 0.26540  0.41670  0.92820  Biso   1.000  C
  O151     1.0000 0.25430  0.46100  0.89030  Biso   1.000  O
  O152     1.0000 0.31240  0.41490  0.96330  Biso   1.000  O
  C264     1.0000 0.21460  0.25290  0.97550  Biso   1.000  C
  C265     1.0000 0.14310  0.23710  0.97790  Biso   1.000  C
  C266     1.0000 0.13240  0.16600  0.97010  Biso   1.000  C
  C267     1.0000 0.80190  0.35180  0.04440  Biso   1.000  C
  H153     1.0000 0.83350  0.32270  0.06370  Biso   1.000  H
  H154     1.0000 0.82500  0.38840  0.02590  Biso   1.000  H
  C268     1.0000 0.75730  0.37420  0.09330  Biso   1.000  C
  O153     1.0000 0.78030  0.40610  0.13540  Biso   1.000  O
  O154     1.0000 0.70000  0.35720  0.08770  Biso   1.000  O
  C269     1.0000 0.78060  0.36060  0.07240  Biso   1.000  C
  H155     1.0000 0.82490  0.37560  0.07700  Biso   1.000  H
  H156     1.0000 0.77070  0.33150  0.10800  Biso   1.000  H
  C270     1.0000 0.73460  0.41670  0.07180  Biso   1.000  C
  O155     1.0000 0.74570  0.46100  0.10970  Biso   1.000  O
  O156     1.0000 0.68760  0.41490  0.03670  Biso   1.000  O
  C271     1.0000 0.78540  0.25290  0.02450  Biso   1.000  C
  C272     1.0000 0.85690  0.23710  0.02210  Biso   1.000  C
  C273     1.0000 0.86760  0.16600  0.02990  Biso   1.000  C
  C274     1.0000 0.19810  0.64820  0.04440  Biso   1.000  C
  H157     1.0000 0.16650  0.67730  0.06370  Biso   1.000  H
  H158     1.0000 0.17500  0.61160  0.02590  Biso   1.000  H
  C275     1.0000 0.24270  0.62580  0.09330  Biso   1.000  C
  O157     1.0000 0.21970  0.59390  0.13540  Biso   1.000  O
  O158     1.0000 0.30000  0.64280  0.08770  Biso   1.000  O
  C276     1.0000 0.21940  0.63940  0.07240  Biso   1.000  C
  H159     1.0000 0.17510  0.62440  0.07700  Biso   1.000  H
  H160     1.0000 0.22930  0.66850  0.10800  Biso   1.000  H
  C277     1.0000 0.26540  0.58330  0.07180  Biso   1.000  C
  O159     1.0000 0.25430  0.53900  0.10970  Biso   1.000  O
  O160     1.0000 0.31240  0.58510  0.03670  Biso   1.000  O
  C278     1.0000 0.21460  0.74710  0.02450  Biso   1.000  C
  C279     1.0000 0.14310  0.76290  0.02210  Biso   1.000  C
  C280     1.0000 0.13240  0.83400  0.02990  Biso   1.000  C
  C281     1.0000 0.64820  0.04440  0.19810  Biso   1.000  C
  H161     1.0000 0.67730  0.06370  0.16650  Biso   1.000  H
  H162     1.0000 0.61160  0.02590  0.17500  Biso   1.000  H
  C282     1.0000 0.62580  0.09330  0.24270  Biso   1.000  C
  O161     1.0000 0.59390  0.13540  0.21970  Biso   1.000  O
  O162     1.0000 0.64280  0.08770  0.30000  Biso   1.000  O
  C283     1.0000 0.63940  0.07240  0.21940  Biso   1.000  C
  H163     1.0000 0.62440  0.07700  0.17510  Biso   1.000  H
  H164     1.0000 0.66850  0.10800  0.22930  Biso   1.000  H
  C284     1.0000 0.58330  0.07180  0.26540  Biso   1.000  C
  O163     1.0000 0.53900  0.10970  0.25430  Biso   1.000  O
  O164     1.0000 0.58510  0.03670  0.31240  Biso   1.000  O
  C285     1.0000 0.74710  0.02450  0.21460  Biso   1.000  C
  C286     1.0000 0.76290  0.02210  0.14310  Biso   1.000  C
  C287     1.0000 0.83400  0.02990  0.13240  Biso   1.000  C
  C288     1.0000 0.35180  0.04440  0.80190  Biso   1.000  C
  H165     1.0000 0.32270  0.06370  0.83350  Biso   1.000  H
  H166     1.0000 0.38840  0.02590  0.82500  Biso   1.000  H
  C289     1.0000 0.37420  0.09330  0.75730  Biso   1.000  C
  O165     1.0000 0.40610  0.13540  0.78030  Biso   1.000  O
  O166     1.0000 0.35720  0.08770  0.70000  Biso   1.000  O
  C290     1.0000 0.36060  0.07240  0.78060  Biso   1.000  C
  H167     1.0000 0.37560  0.07700  0.82490  Biso   1.000  H
  H168     1.0000 0.33150  0.10800  0.77070  Biso   1.000  H
  C291     1.0000 0.41670  0.07180  0.73460  Biso   1.000  C
  O167     1.0000 0.46100  0.10970  0.74570  Biso   1.000  O
  O168     1.0000 0.41490  0.03670  0.68760  Biso   1.000  O
  C292     1.0000 0.25290  0.02450  0.78540  Biso   1.000  C
  C293     1.0000 0.23710  0.02210  0.85690  Biso   1.000  C
  C294     1.0000 0.16600  0.02990  0.86760  Biso   1.000  C
  C295     1.0000 0.35180  0.95560  0.19810  Biso   1.000  C
  H169     1.0000 0.32270  0.93630  0.16650  Biso   1.000  H
  H170     1.0000 0.38840  0.97410  0.17500  Biso   1.000  H
  C296     1.0000 0.37420  0.90670  0.24270  Biso   1.000  C
  O169     1.0000 0.40610  0.86460  0.21970  Biso   1.000  O
  O170     1.0000 0.35720  0.91230  0.30000  Biso   1.000  O
  C297     1.0000 0.36060  0.92760  0.21940  Biso   1.000  C
  H171     1.0000 0.37560  0.92300  0.17510  Biso   1.000  H
  H172     1.0000 0.33150  0.89200  0.22930  Biso   1.000  H
  C298     1.0000 0.41670  0.92820  0.26540  Biso   1.000  C
  O171     1.0000 0.46100  0.89030  0.25430  Biso   1.000  O
  O172     1.0000 0.41490  0.96330  0.31240  Biso   1.000  O
  C299     1.0000 0.25290  0.97550  0.21460  Biso   1.000  C
  C300     1.0000 0.23710  0.97790  0.14310  Biso   1.000  C
  C301     1.0000 0.16600  0.97010  0.13240  Biso   1.000  C
  C302     1.0000 0.64820  0.95560  0.80190  Biso   1.000  C
  H173     1.0000 0.67730  0.93630  0.83350  Biso   1.000  H
  H174     1.0000 0.61160  0.97410  0.82500  Biso   1.000  H
  C303     1.0000 0.62580  0.90670  0.75730  Biso   1.000  C
  O173     1.0000 0.59390  0.86460  0.78030  Biso   1.000  O
  O174     1.0000 0.64280  0.91230  0.70000  Biso   1.000  O
  C304     1.0000 0.63940  0.92760  0.78060  Biso   1.000  C
  H175     1.0000 0.62440  0.92300  0.82490  Biso   1.000  H
  H176     1.0000 0.66850  0.89200  0.77070  Biso   1.000  H
  C305     1.0000 0.58330  0.92820  0.73460  Biso   1.000  C
  O175     1.0000 0.53900  0.89030  0.74570  Biso   1.000  O
  O176     1.0000 0.58510  0.96330  0.68760  Biso   1.000  O
  C306     1.0000 0.74710  0.97550  0.78540  Biso   1.000  C
  C307     1.0000 0.76290  0.97790  0.85690  Biso   1.000  C
  C308     1.0000 0.83400  0.97010  0.86760  Biso   1.000  C
  C309     1.0000 0.04440  0.80190  0.35180  Biso   1.000  C
  H177     1.0000 0.06370  0.83350  0.32270  Biso   1.000  H
  H178     1.0000 0.02590  0.82500  0.38840  Biso   1.000  H
  C310     1.0000 0.09330  0.75730  0.37420  Biso   1.000  C
  O177     1.0000 0.13540  0.78030  0.40610  Biso   1.000  O
  O178     1.0000 0.08770  0.70000  0.35720  Biso   1.000  O
  C311     1.0000 0.07240  0.78060  0.36060  Biso   1.000  C
  H179     1.0000 0.07700  0.82490  0.37560  Biso   1.000  H
  H180     1.0000 0.10800  0.77070  0.33150  Biso   1.000  H
  C312     1.0000 0.07180  0.73460  0.41670  Biso   1.000  C
  O179     1.0000 0.10970  0.74570  0.46100  Biso   1.000  O
  O180     1.0000 0.03670  0.68760  0.41490  Biso   1.000  O
  C313     1.0000 0.02450  0.78540  0.25290  Biso   1.000  C
  C314     1.0000 0.02210  0.85690  0.23710  Biso   1.000  C
  C315     1.0000 0.02990  0.86760  0.16600  Biso   1.000  C
  C316     1.0000 0.04440  0.19810  0.64820  Biso   1.000  C
  H181     1.0000 0.06370  0.16650  0.67730  Biso   1.000  H
  H182     1.0000 0.02590  0.17500  0.61160  Biso   1.000  H
  C317     1.0000 0.09330  0.24270  0.62580  Biso   1.000  C
  O181     1.0000 0.13540  0.21970  0.59390  Biso   1.000  O
  O182     1.0000 0.08770  0.30000  0.64280  Biso   1.000  O
  C318     1.0000 0.07240  0.21940  0.63940  Biso   1.000  C
  H183     1.0000 0.07700  0.17510  0.62440  Biso   1.000  H
  H184     1.0000 0.10800  0.22930  0.66850  Biso   1.000  H
  C319     1.0000 0.07180  0.26540  0.58330  Biso   1.000  C
  O183     1.0000 0.10970  0.25430  0.53900  Biso   1.000  O
  O184     1.0000 0.03670  0.31240  0.58510  Biso   1.000  O
  C320     1.0000 0.02450  0.21460  0.74710  Biso   1.000  C
  C321     1.0000 0.02210  0.14310  0.76290  Biso   1.000  C
  C322     1.0000 0.02990  0.13240  0.83400  Biso   1.000  C
  C323     1.0000 0.95560  0.80190  0.64820  Biso   1.000  C
  H185     1.0000 0.93630  0.83350  0.67730  Biso   1.000  H
  H186     1.0000 0.97410  0.82500  0.61160  Biso   1.000  H
  C324     1.0000 0.90670  0.75730  0.62580  Biso   1.000  C
  O185     1.0000 0.86460  0.78030  0.59390  Biso   1.000  O
  O186     1.0000 0.91230  0.70000  0.64280  Biso   1.000  O
  C325     1.0000 0.92760  0.78060  0.63940  Biso   1.000  C
  H187     1.0000 0.92300  0.82490  0.62440  Biso   1.000  H
  H188     1.0000 0.89200  0.77070  0.66850  Biso   1.000  H
  C326     1.0000 0.92820  0.73460  0.58330  Biso   1.000  C
  O187     1.0000 0.89030  0.74570  0.53900  Biso   1.000  O
  O188     1.0000 0.96330  0.68760  0.58510  Biso   1.000  O
  C327     1.0000 0.97550  0.78540  0.74710  Biso   1.000  C
  C328     1.0000 0.97790  0.85690  0.76290  Biso   1.000  C
  C329     1.0000 0.97010  0.86760  0.83400  Biso   1.000  C
  C330     1.0000 0.95560  0.19810  0.35180  Biso   1.000  C
  H189     1.0000 0.93630  0.16650  0.32270  Biso   1.000  H
  H190     1.0000 0.97410  0.17500  0.38840  Biso   1.000  H
  C331     1.0000 0.90670  0.24270  0.37420  Biso   1.000  C
  O189     1.0000 0.86460  0.21970  0.40610  Biso   1.000  O
  O190     1.0000 0.91230  0.30000  0.35720  Biso   1.000  O
  C332     1.0000 0.92760  0.21940  0.36060  Biso   1.000  C
  H191     1.0000 0.92300  0.17510  0.37560  Biso   1.000  H
  H192     1.0000 0.89200  0.22930  0.33150  Biso   1.000  H
  C333     1.0000 0.92820  0.26540  0.41670  Biso   1.000  C
  O191     1.0000 0.89030  0.25430  0.46100  Biso   1.000  O
  O192     1.0000 0.96330  0.31240  0.41490  Biso   1.000  O
  C334     1.0000 0.97550  0.21460  0.25290  Biso   1.000  C
  C335     1.0000 0.97790  0.14310  0.23710  Biso   1.000  C
  C336     1.0000 0.97010  0.13240  0.16600  Biso   1.000  C
  La1      1.0000 0.50000  0.20644  0.79356  Biso   1.000  La
  La2      1.0000 0.50000  0.79356  0.79356  Biso   1.000  La
  La3      1.0000 0.50000  0.20644  0.20644  Biso   1.000  La
  La4      1.0000 0.50000  0.79356  0.20644  Biso   1.000  La
  La5      1.0000 0.79356  0.50000  0.20644  Biso   1.000  La
  La6      1.0000 0.79356  0.50000  0.79356  Biso   1.000  La
  La7      1.0000 0.20644  0.50000  0.20644  Biso   1.000  La
  La8      1.0000 0.20644  0.50000  0.79356  Biso   1.000  La
  La9      1.0000 0.20644  0.79356  0.50000  Biso   1.000  La
  La10     1.0000 0.79356  0.79356  0.50000  Biso   1.000  La
  La11     1.0000 0.20644  0.20644  0.50000  Biso   1.000  La
  La12     1.0000 0.79356  0.20644  0.50000  Biso   1.000  La
  Ni1      1.0000 0.32548  0.32548  0.00000  Biso   1.000  Ni
  Ni2      1.0000 0.67452  0.67452  0.00000  Biso   1.000  Ni
  Ni3      1.0000 0.67452  0.32548  0.00000  Biso   1.000  Ni
  Ni4      1.0000 0.32548  0.67452  0.00000  Biso   1.000  Ni
  Ni5      1.0000 0.00000  0.32548  0.32548  Biso   1.000  Ni
  Ni6      1.0000 0.00000  0.67452  0.67452  Biso   1.000  Ni
  Ni7      1.0000 0.00000  0.67452  0.32548  Biso   1.000  Ni
  Ni8      1.0000 0.00000  0.32548  0.67452  Biso   1.000  Ni
  Ni9      1.0000 0.32548  0.00000  0.32548  Biso   1.000  Ni
  Ni10     1.0000 0.67452  0.00000  0.67452  Biso   1.000  Ni
  Ni11     1.0000 0.32548  0.00000  0.67452  Biso   1.000  Ni
  Ni12     1.0000 0.67452  0.00000  0.32548  Biso   1.000  Ni
  N1       1.0000 0.32220  0.22960  0.00000  Biso   1.000  N
  N2       1.0000 0.67780  0.77040  0.00000  Biso   1.000  N
  N3       1.0000 0.67780  0.22960  0.00000  Biso   1.000  N
  N4       1.0000 0.32220  0.77040  0.00000  Biso   1.000  N
  N5       1.0000 0.00000  0.32220  0.22960  Biso   1.000  N
  N6       1.0000 0.00000  0.67780  0.77040  Biso   1.000  N
  N7       1.0000 0.00000  0.67780  0.22960  Biso   1.000  N
  N8       1.0000 0.00000  0.32220  0.77040  Biso   1.000  N
  N9       1.0000 0.22960  0.00000  0.32220  Biso   1.000  N
  N10      1.0000 0.77040  0.00000  0.67780  Biso   1.000  N
  N11      1.0000 0.22960  0.00000  0.67780  Biso   1.000  N
  N12      1.0000 0.77040  0.00000  0.32220  Biso   1.000  N
  N13      1.0000 0.22960  0.32220  0.00000  Biso   1.000  N
  N14      1.0000 0.77040  0.67780  0.00000  Biso   1.000  N
  N15      1.0000 0.22960  0.67780  0.00000  Biso   1.000  N
  N16      1.0000 0.77040  0.32220  0.00000  Biso   1.000  N
  N17      1.0000 0.32220  0.00000  0.77040  Biso   1.000  N
  N18      1.0000 0.67780  0.00000  0.22960  Biso   1.000  N
  N19      1.0000 0.67780  0.00000  0.77040  Biso   1.000  N
  N20      1.0000 0.32220  0.00000  0.22960  Biso   1.000  N
  N21      1.0000 0.00000  0.22960  0.67780  Biso   1.000  N
  N22      1.0000 0.00000  0.77040  0.32220  Biso   1.000  N
  N23      1.0000 0.00000  0.22960  0.32220  Biso   1.000  N
  N24      1.0000 0.00000  0.77040  0.67780  Biso   1.000  N
