data_image0
_cell_length_a       18.5943
_cell_length_b       18.5943
_cell_length_c       38.7113
_cell_angle_alpha    90
_cell_angle_beta     90
_cell_angle_gamma    120

_symmetry_space_group_name_H-M    "P 1"
_symmetry_int_tables_number       1

loop_
  _symmetry_equiv_pos_as_xyz
  'x, y, z'

loop_
  _atom_site_label
  _atom_site_occupancy
  _atom_site_fract_x
  _atom_site_fract_y
  _atom_site_fract_z
  _atom_site_thermal_displace_type
  _atom_site_B_iso_or_equiv
  _atom_site_type_symbol
  N1       1.0000 0.49800  0.61530  0.55430  Biso   1.000  N
  O1       1.0000 0.74436  0.63663  0.62256  Biso   1.000  O
  O2       1.0000 0.70504  0.55682  0.66957  Biso   1.000  O
  C1       1.0000 0.69430  0.57490  0.63958  Biso   1.000  C
  C2       1.0000 0.61330  0.51560  0.62243  Biso   1.000  C
  C3       1.0000 0.59850  0.52930  0.58831  Biso   1.000  C
  H1       1.0000 0.63720  0.57710  0.57690  Biso   1.000  H
  C4       1.0000 0.49990  0.44300  0.51180  Biso   1.000  C
  H2       1.0000 0.50430  0.39650  0.51950  Biso   1.000  H
  C5       1.0000 0.48910  0.45800  0.47760  Biso   1.000  C
  H3       1.0000 0.49070  0.42230  0.46070  Biso   1.000  H
  C6       1.0000 0.48980  0.58240  0.49360  Biso   1.000  C
  C7       1.0000 0.48090  0.65040  0.48580  Biso   1.000  C
  H4       1.0000 0.47870  0.66400  0.46290  Biso   1.000  H
  C8       1.0000 0.47400  0.69660  0.51230  Biso   1.000  C
  H5       1.0000 0.46130  0.73600  0.50720  Biso   1.000  H
  C9       1.0000 0.48800  0.68400  0.54620  Biso   1.000  C
  H6       1.0000 0.49170  0.72180  0.56400  Biso   1.000  H
  C10      1.0000 0.49840  0.56630  0.52790  Biso   1.000  C
  N2       1.0000 0.16467  0.94863  0.88763  Biso   1.000  N
  O3       1.0000 0.41103  0.96996  0.95589  Biso   1.000  O
  O4       1.0000 0.37171  0.89015  0.00290  Biso   1.000  O
  C11      1.0000 0.36097  0.90823  0.97291  Biso   1.000  C
  C12      1.0000 0.27997  0.84893  0.95576  Biso   1.000  C
  C13      1.0000 0.26517  0.86263  0.92164  Biso   1.000  C
  H7       1.0000 0.30387  0.91043  0.91023  Biso   1.000  H
  C14      1.0000 0.16657  0.77633  0.84513  Biso   1.000  C
  H8       1.0000 0.17097  0.72983  0.85283  Biso   1.000  H
  C15      1.0000 0.15577  0.79133  0.81093  Biso   1.000  C
  H9       1.0000 0.15737  0.75563  0.79403  Biso   1.000  H
  C16      1.0000 0.15647  0.91573  0.82693  Biso   1.000  C
  C17      1.0000 0.14757  0.98373  0.81913  Biso   1.000  C
  H10      1.0000 0.14537  0.99733  0.79623  Biso   1.000  H
  C18      1.0000 0.14067  0.02993  0.84563  Biso   1.000  C
  H11      1.0000 0.12797  0.06933  0.84053  Biso   1.000  H
  C19      1.0000 0.15467  0.01733  0.87953  Biso   1.000  C
  H12      1.0000 0.15837  0.05513  0.89733  Biso   1.000  H
  C20      1.0000 0.16507  0.89963  0.86123  Biso   1.000  C
  N3       1.0000 0.83133  0.28197  0.22097  Biso   1.000  N
  O5       1.0000 0.07769  0.30330  0.28923  Biso   1.000  O
  O6       1.0000 0.03837  0.22349  0.33624  Biso   1.000  O
  C21      1.0000 0.02763  0.24157  0.30625  Biso   1.000  C
  C22      1.0000 0.94663  0.18227  0.28910  Biso   1.000  C
  C23      1.0000 0.93183  0.19597  0.25498  Biso   1.000  C
  H13      1.0000 0.97053  0.24377  0.24357  Biso   1.000  H
  C24      1.0000 0.83323  0.10967  0.17847  Biso   1.000  C
  H14      1.0000 0.83763  0.06317  0.18617  Biso   1.000  H
  C25      1.0000 0.82243  0.12467  0.14427  Biso   1.000  C
  H15      1.0000 0.82403  0.08897  0.12737  Biso   1.000  H
  C26      1.0000 0.82313  0.24907  0.16027  Biso   1.000  C
  C27      1.0000 0.81423  0.31707  0.15247  Biso   1.000  C
  H16      1.0000 0.81203  0.33067  0.12957  Biso   1.000  H
  C28      1.0000 0.80733  0.36327  0.17897  Biso   1.000  C
  H17      1.0000 0.79463  0.40267  0.17387  Biso   1.000  H
  C29      1.0000 0.82133  0.35067  0.21287  Biso   1.000  C
  H18      1.0000 0.82503  0.38847  0.23067  Biso   1.000  H
  C30      1.0000 0.83173  0.23297  0.19457  Biso   1.000  C
  N4       1.0000 0.38470  0.88270  0.55430  Biso   1.000  N
  O7       1.0000 0.36337  0.10773  0.62256  Biso   1.000  O
  O8       1.0000 0.44318  0.14822  0.66957  Biso   1.000  O
  C31      1.0000 0.42510  0.11940  0.63958  Biso   1.000  C
  C32      1.0000 0.48440  0.09770  0.62243  Biso   1.000  C
  C33      1.0000 0.47070  0.06920  0.58831  Biso   1.000  C
  H19      1.0000 0.42290  0.06010  0.57690  Biso   1.000  H
  C34      1.0000 0.55700  0.05690  0.51180  Biso   1.000  C
  H20      1.0000 0.60350  0.10780  0.51950  Biso   1.000  H
  C35      1.0000 0.54200  0.03110  0.47760  Biso   1.000  C
  H21      1.0000 0.57770  0.06840  0.46070  Biso   1.000  H
  C36      1.0000 0.41760  0.90740  0.49360  Biso   1.000  C
  C37      1.0000 0.34960  0.83050  0.48580  Biso   1.000  C
  H22      1.0000 0.33600  0.81470  0.46290  Biso   1.000  H
  C38      1.0000 0.30340  0.77740  0.51230  Biso   1.000  C
  H23      1.0000 0.26400  0.72530  0.50720  Biso   1.000  H
  C39      1.0000 0.31600  0.80400  0.54620  Biso   1.000  C
  H24      1.0000 0.27820  0.76990  0.56400  Biso   1.000  H
  C40      1.0000 0.43370  0.93210  0.52790  Biso   1.000  C
  N5       1.0000 0.05137  0.21603  0.88763  Biso   1.000  N
  O9       1.0000 0.03004  0.44106  0.95589  Biso   1.000  O
  O10      1.0000 0.10985  0.48155  0.00290  Biso   1.000  O
  C41      1.0000 0.09177  0.45273  0.97291  Biso   1.000  C
  C42      1.0000 0.15107  0.43103  0.95576  Biso   1.000  C
  C43      1.0000 0.13737  0.40253  0.92164  Biso   1.000  C
  H25      1.0000 0.08957  0.39343  0.91023  Biso   1.000  H
  C44      1.0000 0.22367  0.39023  0.84513  Biso   1.000  C
  H26      1.0000 0.27017  0.44113  0.85283  Biso   1.000  H
  C45      1.0000 0.20867  0.36443  0.81093  Biso   1.000  C
  H27      1.0000 0.24437  0.40173  0.79403  Biso   1.000  H
  C46      1.0000 0.08427  0.24073  0.82693  Biso   1.000  C
  C47      1.0000 0.01627  0.16383  0.81913  Biso   1.000  C
  H28      1.0000 0.00267  0.14803  0.79623  Biso   1.000  H
  C48      1.0000 0.97007  0.11073  0.84563  Biso   1.000  C
  H29      1.0000 0.93067  0.05863  0.84053  Biso   1.000  H
  C49      1.0000 0.98267  0.13733  0.87953  Biso   1.000  C
  H30      1.0000 0.94487  0.10323  0.89733  Biso   1.000  H
  C50      1.0000 0.10037  0.26543  0.86123  Biso   1.000  C
  N6       1.0000 0.71803  0.54937  0.22097  Biso   1.000  N
  O11      1.0000 0.69670  0.77440  0.28923  Biso   1.000  O
  O12      1.0000 0.77651  0.81489  0.33624  Biso   1.000  O
  C51      1.0000 0.75843  0.78607  0.30625  Biso   1.000  C
  C52      1.0000 0.81773  0.76437  0.28910  Biso   1.000  C
  C53      1.0000 0.80403  0.73587  0.25498  Biso   1.000  C
  H31      1.0000 0.75623  0.72677  0.24357  Biso   1.000  H
  C54      1.0000 0.89033  0.72357  0.17847  Biso   1.000  C
  H32      1.0000 0.93683  0.77447  0.18617  Biso   1.000  H
  C55      1.0000 0.87533  0.69777  0.14427  Biso   1.000  C
  H33      1.0000 0.91103  0.73507  0.12737  Biso   1.000  H
  C56      1.0000 0.75093  0.57407  0.16027  Biso   1.000  C
  C57      1.0000 0.68293  0.49717  0.15247  Biso   1.000  C
  H34      1.0000 0.66933  0.48137  0.12957  Biso   1.000  H
  C58      1.0000 0.63673  0.44407  0.17897  Biso   1.000  C
  H35      1.0000 0.59733  0.39197  0.17387  Biso   1.000  H
  C59      1.0000 0.64933  0.47067  0.21287  Biso   1.000  C
  H36      1.0000 0.61153  0.43657  0.23067  Biso   1.000  H
  C60      1.0000 0.76703  0.59877  0.19457  Biso   1.000  C
  N7       1.0000 0.11730  0.50200  0.55430  Biso   1.000  N
  O13      1.0000 0.89227  0.25564  0.62256  Biso   1.000  O
  O14      1.0000 0.85178  0.29496  0.66957  Biso   1.000  O
  C61      1.0000 0.88060  0.30570  0.63958  Biso   1.000  C
  C62      1.0000 0.90230  0.38670  0.62243  Biso   1.000  C
  C63      1.0000 0.93080  0.40150  0.58831  Biso   1.000  C
  H37      1.0000 0.93990  0.36280  0.57690  Biso   1.000  H
  C64      1.0000 0.94310  0.50010  0.51180  Biso   1.000  C
  H38      1.0000 0.89220  0.49570  0.51950  Biso   1.000  H
  C65      1.0000 0.96890  0.51090  0.47760  Biso   1.000  C
  H39      1.0000 0.93160  0.50930  0.46070  Biso   1.000  H
  C66      1.0000 0.09260  0.51020  0.49360  Biso   1.000  C
  C67      1.0000 0.16950  0.51910  0.48580  Biso   1.000  C
  H40      1.0000 0.18530  0.52130  0.46290  Biso   1.000  H
  C68      1.0000 0.22260  0.52600  0.51230  Biso   1.000  C
  H41      1.0000 0.27470  0.53870  0.50720  Biso   1.000  H
  C69      1.0000 0.19600  0.51200  0.54620  Biso   1.000  C
  H42      1.0000 0.23010  0.50830  0.56400  Biso   1.000  H
  C70      1.0000 0.06790  0.50160  0.52790  Biso   1.000  C
  N8       1.0000 0.78397  0.83533  0.88763  Biso   1.000  N
  O15      1.0000 0.55894  0.58897  0.95589  Biso   1.000  O
  O16      1.0000 0.51845  0.62829  0.00290  Biso   1.000  O
  C71      1.0000 0.54727  0.63903  0.97291  Biso   1.000  C
  C72      1.0000 0.56897  0.72003  0.95576  Biso   1.000  C
  C73      1.0000 0.59747  0.73483  0.92164  Biso   1.000  C
  H43      1.0000 0.60657  0.69613  0.91023  Biso   1.000  H
  C74      1.0000 0.60977  0.83343  0.84513  Biso   1.000  C
  H44      1.0000 0.55887  0.82903  0.85283  Biso   1.000  H
  C75      1.0000 0.63557  0.84423  0.81093  Biso   1.000  C
  H45      1.0000 0.59827  0.84263  0.79403  Biso   1.000  H
  C76      1.0000 0.75927  0.84353  0.82693  Biso   1.000  C
  C77      1.0000 0.83617  0.85243  0.81913  Biso   1.000  C
  H46      1.0000 0.85197  0.85463  0.79623  Biso   1.000  H
  C78      1.0000 0.88927  0.85933  0.84563  Biso   1.000  C
  H47      1.0000 0.94137  0.87203  0.84053  Biso   1.000  H
  C79      1.0000 0.86267  0.84533  0.87953  Biso   1.000  C
  H48      1.0000 0.89677  0.84163  0.89733  Biso   1.000  H
  C80      1.0000 0.73457  0.83493  0.86123  Biso   1.000  C
  N9       1.0000 0.45063  0.16867  0.22097  Biso   1.000  N
  O17      1.0000 0.22560  0.92231  0.28923  Biso   1.000  O
  O18      1.0000 0.18511  0.96163  0.33624  Biso   1.000  O
  C81      1.0000 0.21393  0.97237  0.30625  Biso   1.000  C
  C82      1.0000 0.23563  0.05337  0.28910  Biso   1.000  C
  C83      1.0000 0.26413  0.06817  0.25498  Biso   1.000  C
  H49      1.0000 0.27323  0.02947  0.24357  Biso   1.000  H
  C84      1.0000 0.27643  0.16677  0.17847  Biso   1.000  C
  H50      1.0000 0.22553  0.16237  0.18617  Biso   1.000  H
  C85      1.0000 0.30223  0.17757  0.14427  Biso   1.000  C
  H51      1.0000 0.26493  0.17597  0.12737  Biso   1.000  H
  C86      1.0000 0.42593  0.17687  0.16027  Biso   1.000  C
  C87      1.0000 0.50283  0.18577  0.15247  Biso   1.000  C
  H52      1.0000 0.51863  0.18797  0.12957  Biso   1.000  H
  C88      1.0000 0.55593  0.19267  0.17897  Biso   1.000  C
  H53      1.0000 0.60803  0.20537  0.17387  Biso   1.000  H
  C89      1.0000 0.52933  0.17867  0.21287  Biso   1.000  C
  H54      1.0000 0.56343  0.17497  0.23067  Biso   1.000  H
  C90      1.0000 0.40123  0.16827  0.19457  Biso   1.000  C
  N10      1.0000 0.61530  0.49800  0.44570  Biso   1.000  N
  O19      1.0000 0.63663  0.74436  0.37744  Biso   1.000  O
  O20      1.0000 0.55682  0.70504  0.33043  Biso   1.000  O
  C91      1.0000 0.57490  0.69430  0.36042  Biso   1.000  C
  C92      1.0000 0.51560  0.61330  0.37757  Biso   1.000  C
  C93      1.0000 0.52930  0.59850  0.41169  Biso   1.000  C
  H55      1.0000 0.57710  0.63720  0.42310  Biso   1.000  H
  C94      1.0000 0.44300  0.49990  0.48820  Biso   1.000  C
  H56      1.0000 0.39650  0.50430  0.48050  Biso   1.000  H
  C95      1.0000 0.45800  0.48910  0.52240  Biso   1.000  C
  H57      1.0000 0.42230  0.49070  0.53930  Biso   1.000  H
  C96      1.0000 0.58240  0.48980  0.50640  Biso   1.000  C
  C97      1.0000 0.65040  0.48090  0.51420  Biso   1.000  C
  H58      1.0000 0.66400  0.47870  0.53710  Biso   1.000  H
  C98      1.0000 0.69660  0.47400  0.48770  Biso   1.000  C
  H59      1.0000 0.73600  0.46130  0.49280  Biso   1.000  H
  C99      1.0000 0.68400  0.48800  0.45380  Biso   1.000  C
  H60      1.0000 0.72180  0.49170  0.43600  Biso   1.000  H
  C100     1.0000 0.56630  0.49840  0.47210  Biso   1.000  C
  N11      1.0000 0.28197  0.83133  0.77903  Biso   1.000  N
  O21      1.0000 0.30330  0.07769  0.71077  Biso   1.000  O
  O22      1.0000 0.22349  0.03837  0.66376  Biso   1.000  O
  C101     1.0000 0.24157  0.02763  0.69375  Biso   1.000  C
  C102     1.0000 0.18227  0.94663  0.71090  Biso   1.000  C
  C103     1.0000 0.19597  0.93183  0.74502  Biso   1.000  C
  H61      1.0000 0.24377  0.97053  0.75643  Biso   1.000  H
  C104     1.0000 0.10967  0.83323  0.82153  Biso   1.000  C
  H62      1.0000 0.06317  0.83763  0.81383  Biso   1.000  H
  C105     1.0000 0.12467  0.82243  0.85573  Biso   1.000  C
  H63      1.0000 0.08897  0.82403  0.87263  Biso   1.000  H
  C106     1.0000 0.24907  0.82313  0.83973  Biso   1.000  C
  C107     1.0000 0.31707  0.81423  0.84753  Biso   1.000  C
  H64      1.0000 0.33067  0.81203  0.87043  Biso   1.000  H
  C108     1.0000 0.36327  0.80733  0.82103  Biso   1.000  C
  H65      1.0000 0.40267  0.79463  0.82613  Biso   1.000  H
  C109     1.0000 0.35067  0.82133  0.78713  Biso   1.000  C
  H66      1.0000 0.38847  0.82503  0.76933  Biso   1.000  H
  C110     1.0000 0.23297  0.83173  0.80543  Biso   1.000  C
  N12      1.0000 0.94863  0.16467  0.11237  Biso   1.000  N
  O23      1.0000 0.96996  0.41103  0.04411  Biso   1.000  O
  O24      1.0000 0.89015  0.37171  0.99710  Biso   1.000  O
  C111     1.0000 0.90823  0.36097  0.02709  Biso   1.000  C
  C112     1.0000 0.84893  0.27997  0.04424  Biso   1.000  C
  C113     1.0000 0.86263  0.26517  0.07836  Biso   1.000  C
  H67      1.0000 0.91043  0.30387  0.08977  Biso   1.000  H
  C114     1.0000 0.77633  0.16657  0.15487  Biso   1.000  C
  H68      1.0000 0.72983  0.17097  0.14717  Biso   1.000  H
  C115     1.0000 0.79133  0.15577  0.18907  Biso   1.000  C
  H69      1.0000 0.75563  0.15737  0.20597  Biso   1.000  H
  C116     1.0000 0.91573  0.15647  0.17307  Biso   1.000  C
  C117     1.0000 0.98373  0.14757  0.18087  Biso   1.000  C
  H70      1.0000 0.99733  0.14537  0.20377  Biso   1.000  H
  C118     1.0000 0.02993  0.14067  0.15437  Biso   1.000  C
  H71      1.0000 0.06933  0.12797  0.15947  Biso   1.000  H
  C119     1.0000 0.01733  0.15467  0.12047  Biso   1.000  C
  H72      1.0000 0.05513  0.15837  0.10267  Biso   1.000  H
  C120     1.0000 0.89963  0.16507  0.13877  Biso   1.000  C
  N13      1.0000 0.88270  0.38470  0.44570  Biso   1.000  N
  O25      1.0000 0.10773  0.36337  0.37744  Biso   1.000  O
  O26      1.0000 0.14822  0.44318  0.33043  Biso   1.000  O
  C121     1.0000 0.11940  0.42510  0.36042  Biso   1.000  C
  C122     1.0000 0.09770  0.48440  0.37757  Biso   1.000  C
  C123     1.0000 0.06920  0.47070  0.41169  Biso   1.000  C
  H73      1.0000 0.06010  0.42290  0.42310  Biso   1.000  H
  C124     1.0000 0.05690  0.55700  0.48820  Biso   1.000  C
  H74      1.0000 0.10780  0.60350  0.48050  Biso   1.000  H
  C125     1.0000 0.03110  0.54200  0.52240  Biso   1.000  C
  H75      1.0000 0.06840  0.57770  0.53930  Biso   1.000  H
  C126     1.0000 0.90740  0.41760  0.50640  Biso   1.000  C
  C127     1.0000 0.83050  0.34960  0.51420  Biso   1.000  C
  H76      1.0000 0.81470  0.33600  0.53710  Biso   1.000  H
  C128     1.0000 0.77740  0.30340  0.48770  Biso   1.000  C
  H77      1.0000 0.72530  0.26400  0.49280  Biso   1.000  H
  C129     1.0000 0.80400  0.31600  0.45380  Biso   1.000  C
  H78      1.0000 0.76990  0.27820  0.43600  Biso   1.000  H
  C130     1.0000 0.93210  0.43370  0.47210  Biso   1.000  C
  N14      1.0000 0.54937  0.71803  0.77903  Biso   1.000  N
  O27      1.0000 0.77440  0.69670  0.71077  Biso   1.000  O
  O28      1.0000 0.81489  0.77651  0.66376  Biso   1.000  O
  C131     1.0000 0.78607  0.75843  0.69375  Biso   1.000  C
  C132     1.0000 0.76437  0.81773  0.71090  Biso   1.000  C
  C133     1.0000 0.73587  0.80403  0.74502  Biso   1.000  C
  H79      1.0000 0.72677  0.75623  0.75643  Biso   1.000  H
  C134     1.0000 0.72357  0.89033  0.82153  Biso   1.000  C
  H80      1.0000 0.77447  0.93683  0.81383  Biso   1.000  H
  C135     1.0000 0.69777  0.87533  0.85573  Biso   1.000  C
  H81      1.0000 0.73507  0.91103  0.87263  Biso   1.000  H
  C136     1.0000 0.57407  0.75093  0.83973  Biso   1.000  C
  C137     1.0000 0.49717  0.68293  0.84753  Biso   1.000  C
  H82      1.0000 0.48137  0.66933  0.87043  Biso   1.000  H
  C138     1.0000 0.44407  0.63673  0.82103  Biso   1.000  C
  H83      1.0000 0.39197  0.59733  0.82613  Biso   1.000  H
  C139     1.0000 0.47067  0.64933  0.78713  Biso   1.000  C
  H84      1.0000 0.43657  0.61153  0.76933  Biso   1.000  H
  C140     1.0000 0.59877  0.76703  0.80543  Biso   1.000  C
  N15      1.0000 0.21603  0.05137  0.11237  Biso   1.000  N
  O29      1.0000 0.44106  0.03004  0.04411  Biso   1.000  O
  O30      1.0000 0.48155  0.10985  0.99710  Biso   1.000  O
  C141     1.0000 0.45273  0.09177  0.02709  Biso   1.000  C
  C142     1.0000 0.43103  0.15107  0.04424  Biso   1.000  C
  C143     1.0000 0.40253  0.13737  0.07836  Biso   1.000  C
  H85      1.0000 0.39343  0.08957  0.08977  Biso   1.000  H
  C144     1.0000 0.39023  0.22367  0.15487  Biso   1.000  C
  H86      1.0000 0.44113  0.27017  0.14717  Biso   1.000  H
  C145     1.0000 0.36443  0.20867  0.18907  Biso   1.000  C
  H87      1.0000 0.40173  0.24437  0.20597  Biso   1.000  H
  C146     1.0000 0.24073  0.08427  0.17307  Biso   1.000  C
  C147     1.0000 0.16383  0.01627  0.18087  Biso   1.000  C
  H88      1.0000 0.14803  0.00267  0.20377  Biso   1.000  H
  C148     1.0000 0.11073  0.97007  0.15437  Biso   1.000  C
  H89      1.0000 0.05863  0.93067  0.15947  Biso   1.000  H
  C149     1.0000 0.13733  0.98267  0.12047  Biso   1.000  C
  H90      1.0000 0.10323  0.94487  0.10267  Biso   1.000  H
  C150     1.0000 0.26543  0.10037  0.13877  Biso   1.000  C
  N16      1.0000 0.50200  0.11730  0.44570  Biso   1.000  N
  O31      1.0000 0.25564  0.89227  0.37744  Biso   1.000  O
  O32      1.0000 0.29496  0.85178  0.33043  Biso   1.000  O
  C151     1.0000 0.30570  0.88060  0.36042  Biso   1.000  C
  C152     1.0000 0.38670  0.90230  0.37757  Biso   1.000  C
  C153     1.0000 0.40150  0.93080  0.41169  Biso   1.000  C
  H91      1.0000 0.36280  0.93990  0.42310  Biso   1.000  H
  C154     1.0000 0.50010  0.94310  0.48820  Biso   1.000  C
  H92      1.0000 0.49570  0.89220  0.48050  Biso   1.000  H
  C155     1.0000 0.51090  0.96890  0.52240  Biso   1.000  C
  H93      1.0000 0.50930  0.93160  0.53930  Biso   1.000  H
  C156     1.0000 0.51020  0.09260  0.50640  Biso   1.000  C
  C157     1.0000 0.51910  0.16950  0.51420  Biso   1.000  C
  H94      1.0000 0.52130  0.18530  0.53710  Biso   1.000  H
  C158     1.0000 0.52600  0.22260  0.48770  Biso   1.000  C
  H95      1.0000 0.53870  0.27470  0.49280  Biso   1.000  H
  C159     1.0000 0.51200  0.19600  0.45380  Biso   1.000  C
  H96      1.0000 0.50830  0.23010  0.43600  Biso   1.000  H
  C160     1.0000 0.50160  0.06790  0.47210  Biso   1.000  C
  N17      1.0000 0.16867  0.45063  0.77903  Biso   1.000  N
  O33      1.0000 0.92231  0.22560  0.71077  Biso   1.000  O
  O34      1.0000 0.96163  0.18511  0.66376  Biso   1.000  O
  C161     1.0000 0.97237  0.21393  0.69375  Biso   1.000  C
  C162     1.0000 0.05337  0.23563  0.71090  Biso   1.000  C
  C163     1.0000 0.06817  0.26413  0.74502  Biso   1.000  C
  H97      1.0000 0.02947  0.27323  0.75643  Biso   1.000  H
  C164     1.0000 0.16677  0.27643  0.82153  Biso   1.000  C
  H98      1.0000 0.16237  0.22553  0.81383  Biso   1.000  H
  C165     1.0000 0.17757  0.30223  0.85573  Biso   1.000  C
  H99      1.0000 0.17597  0.26493  0.87263  Biso   1.000  H
  C166     1.0000 0.17687  0.42593  0.83973  Biso   1.000  C
  C167     1.0000 0.18577  0.50283  0.84753  Biso   1.000  C
  H100     1.0000 0.18797  0.51863  0.87043  Biso   1.000  H
  C168     1.0000 0.19267  0.55593  0.82103  Biso   1.000  C
  H101     1.0000 0.20537  0.60803  0.82613  Biso   1.000  H
  C169     1.0000 0.17867  0.52933  0.78713  Biso   1.000  C
  H102     1.0000 0.17497  0.56343  0.76933  Biso   1.000  H
  C170     1.0000 0.16827  0.40123  0.80543  Biso   1.000  C
  N18      1.0000 0.83533  0.78397  0.11237  Biso   1.000  N
  O35      1.0000 0.58897  0.55894  0.04411  Biso   1.000  O
  O36      1.0000 0.62829  0.51845  0.99710  Biso   1.000  O
  C171     1.0000 0.63903  0.54727  0.02709  Biso   1.000  C
  C172     1.0000 0.72003  0.56897  0.04424  Biso   1.000  C
  C173     1.0000 0.73483  0.59747  0.07836  Biso   1.000  C
  H103     1.0000 0.69613  0.60657  0.08977  Biso   1.000  H
  C174     1.0000 0.83343  0.60977  0.15487  Biso   1.000  C
  H104     1.0000 0.82903  0.55887  0.14717  Biso   1.000  H
  C175     1.0000 0.84423  0.63557  0.18907  Biso   1.000  C
  H105     1.0000 0.84263  0.59827  0.20597  Biso   1.000  H
  C176     1.0000 0.84353  0.75927  0.17307  Biso   1.000  C
  C177     1.0000 0.85243  0.83617  0.18087  Biso   1.000  C
  H106     1.0000 0.85463  0.85197  0.20377  Biso   1.000  H
  C178     1.0000 0.85933  0.88927  0.15437  Biso   1.000  C
  H107     1.0000 0.87203  0.94137  0.15947  Biso   1.000  H
  C179     1.0000 0.84533  0.86267  0.12047  Biso   1.000  C
  H108     1.0000 0.84163  0.89677  0.10267  Biso   1.000  H
  C180     1.0000 0.83493  0.73457  0.13877  Biso   1.000  C
  N19      1.0000 0.50200  0.38470  0.44570  Biso   1.000  N
  O37      1.0000 0.25564  0.36337  0.37744  Biso   1.000  O
  O38      1.0000 0.29496  0.44318  0.33043  Biso   1.000  O
  C181     1.0000 0.30570  0.42510  0.36042  Biso   1.000  C
  C182     1.0000 0.38670  0.48440  0.37757  Biso   1.000  C
  C183     1.0000 0.40150  0.47070  0.41169  Biso   1.000  C
  H109     1.0000 0.36280  0.42290  0.42310  Biso   1.000  H
  C184     1.0000 0.50010  0.55700  0.48820  Biso   1.000  C
  H110     1.0000 0.49570  0.60350  0.48050  Biso   1.000  H
  C185     1.0000 0.51090  0.54200  0.52240  Biso   1.000  C
  H111     1.0000 0.50930  0.57770  0.53930  Biso   1.000  H
  C186     1.0000 0.51020  0.41760  0.50640  Biso   1.000  C
  C187     1.0000 0.51910  0.34960  0.51420  Biso   1.000  C
  H112     1.0000 0.52130  0.33600  0.53710  Biso   1.000  H
  C188     1.0000 0.52600  0.30340  0.48770  Biso   1.000  C
  H113     1.0000 0.53870  0.26400  0.49280  Biso   1.000  H
  C189     1.0000 0.51200  0.31600  0.45380  Biso   1.000  C
  H114     1.0000 0.50830  0.27820  0.43600  Biso   1.000  H
  C190     1.0000 0.50160  0.43370  0.47210  Biso   1.000  C
  N20      1.0000 0.16867  0.71803  0.77903  Biso   1.000  N
  O39      1.0000 0.92231  0.69670  0.71077  Biso   1.000  O
  O40      1.0000 0.96163  0.77651  0.66376  Biso   1.000  O
  C191     1.0000 0.97237  0.75843  0.69375  Biso   1.000  C
  C192     1.0000 0.05337  0.81773  0.71090  Biso   1.000  C
  C193     1.0000 0.06817  0.80403  0.74502  Biso   1.000  C
  H115     1.0000 0.02947  0.75623  0.75643  Biso   1.000  H
  C194     1.0000 0.16677  0.89033  0.82153  Biso   1.000  C
  H116     1.0000 0.16237  0.93683  0.81383  Biso   1.000  H
  C195     1.0000 0.17757  0.87533  0.85573  Biso   1.000  C
  H117     1.0000 0.17597  0.91103  0.87263  Biso   1.000  H
  C196     1.0000 0.17687  0.75093  0.83973  Biso   1.000  C
  C197     1.0000 0.18577  0.68293  0.84753  Biso   1.000  C
  H118     1.0000 0.18797  0.66933  0.87043  Biso   1.000  H
  C198     1.0000 0.19267  0.63673  0.82103  Biso   1.000  C
  H119     1.0000 0.20537  0.59733  0.82613  Biso   1.000  H
  C199     1.0000 0.17867  0.64933  0.78713  Biso   1.000  C
  H120     1.0000 0.17497  0.61153  0.76933  Biso   1.000  H
  C200     1.0000 0.16827  0.76703  0.80543  Biso   1.000  C
  N21      1.0000 0.83533  0.05137  0.11237  Biso   1.000  N
  O41      1.0000 0.58897  0.03004  0.04411  Biso   1.000  O
  O42      1.0000 0.62829  0.10985  0.99710  Biso   1.000  O
  C201     1.0000 0.63903  0.09177  0.02709  Biso   1.000  C
  C202     1.0000 0.72003  0.15107  0.04424  Biso   1.000  C
  C203     1.0000 0.73483  0.13737  0.07836  Biso   1.000  C
  H121     1.0000 0.69613  0.08957  0.08977  Biso   1.000  H
  C204     1.0000 0.83343  0.22367  0.15487  Biso   1.000  C
  H122     1.0000 0.82903  0.27017  0.14717  Biso   1.000  H
  C205     1.0000 0.84423  0.20867  0.18907  Biso   1.000  C
  H123     1.0000 0.84263  0.24437  0.20597  Biso   1.000  H
  C206     1.0000 0.84353  0.08427  0.17307  Biso   1.000  C
  C207     1.0000 0.85243  0.01627  0.18087  Biso   1.000  C
  H124     1.0000 0.85463  0.00267  0.20377  Biso   1.000  H
  C208     1.0000 0.85933  0.97007  0.15437  Biso   1.000  C
  H125     1.0000 0.87203  0.93067  0.15947  Biso   1.000  H
  C209     1.0000 0.84533  0.98267  0.12047  Biso   1.000  C
  H126     1.0000 0.84163  0.94487  0.10267  Biso   1.000  H
  C210     1.0000 0.83493  0.10037  0.13877  Biso   1.000  C
  N22      1.0000 0.61530  0.11730  0.44570  Biso   1.000  N
  O43      1.0000 0.63663  0.89227  0.37744  Biso   1.000  O
  O44      1.0000 0.55682  0.85178  0.33043  Biso   1.000  O
  C211     1.0000 0.57490  0.88060  0.36042  Biso   1.000  C
  C212     1.0000 0.51560  0.90230  0.37757  Biso   1.000  C
  C213     1.0000 0.52930  0.93080  0.41169  Biso   1.000  C
  H127     1.0000 0.57710  0.93990  0.42310  Biso   1.000  H
  C214     1.0000 0.44300  0.94310  0.48820  Biso   1.000  C
  H128     1.0000 0.39650  0.89220  0.48050  Biso   1.000  H
  C215     1.0000 0.45800  0.96890  0.52240  Biso   1.000  C
  H129     1.0000 0.42230  0.93160  0.53930  Biso   1.000  H
  C216     1.0000 0.58240  0.09260  0.50640  Biso   1.000  C
  C217     1.0000 0.65040  0.16950  0.51420  Biso   1.000  C
  H130     1.0000 0.66400  0.18530  0.53710  Biso   1.000  H
  C218     1.0000 0.69660  0.22260  0.48770  Biso   1.000  C
  H131     1.0000 0.73600  0.27470  0.49280  Biso   1.000  H
  C219     1.0000 0.68400  0.19600  0.45380  Biso   1.000  C
  H132     1.0000 0.72180  0.23010  0.43600  Biso   1.000  H
  C220     1.0000 0.56630  0.06790  0.47210  Biso   1.000  C
  N23      1.0000 0.28197  0.45063  0.77903  Biso   1.000  N
  O45      1.0000 0.30330  0.22560  0.71077  Biso   1.000  O
  O46      1.0000 0.22349  0.18511  0.66376  Biso   1.000  O
  C221     1.0000 0.24157  0.21393  0.69375  Biso   1.000  C
  C222     1.0000 0.18227  0.23563  0.71090  Biso   1.000  C
  C223     1.0000 0.19597  0.26413  0.74502  Biso   1.000  C
  H133     1.0000 0.24377  0.27323  0.75643  Biso   1.000  H
  C224     1.0000 0.10967  0.27643  0.82153  Biso   1.000  C
  H134     1.0000 0.06317  0.22553  0.81383  Biso   1.000  H
  C225     1.0000 0.12467  0.30223  0.85573  Biso   1.000  C
  H135     1.0000 0.08897  0.26493  0.87263  Biso   1.000  H
  C226     1.0000 0.24907  0.42593  0.83973  Biso   1.000  C
  C227     1.0000 0.31707  0.50283  0.84753  Biso   1.000  C
  H136     1.0000 0.33067  0.51863  0.87043  Biso   1.000  H
  C228     1.0000 0.36327  0.55593  0.82103  Biso   1.000  C
  H137     1.0000 0.40267  0.60803  0.82613  Biso   1.000  H
  C229     1.0000 0.35067  0.52933  0.78713  Biso   1.000  C
  H138     1.0000 0.38847  0.56343  0.76933  Biso   1.000  H
  C230     1.0000 0.23297  0.40123  0.80543  Biso   1.000  C
  N24      1.0000 0.94863  0.78397  0.11237  Biso   1.000  N
  O47      1.0000 0.96996  0.55894  0.04411  Biso   1.000  O
  O48      1.0000 0.89015  0.51845  0.99710  Biso   1.000  O
  C231     1.0000 0.90823  0.54727  0.02709  Biso   1.000  C
  C232     1.0000 0.84893  0.56897  0.04424  Biso   1.000  C
  C233     1.0000 0.86263  0.59747  0.07836  Biso   1.000  C
  H139     1.0000 0.91043  0.60657  0.08977  Biso   1.000  H
  C234     1.0000 0.77633  0.60977  0.15487  Biso   1.000  C
  H140     1.0000 0.72983  0.55887  0.14717  Biso   1.000  H
  C235     1.0000 0.79133  0.63557  0.18907  Biso   1.000  C
  H141     1.0000 0.75563  0.59827  0.20597  Biso   1.000  H
  C236     1.0000 0.91573  0.75927  0.17307  Biso   1.000  C
  C237     1.0000 0.98373  0.83617  0.18087  Biso   1.000  C
  H142     1.0000 0.99733  0.85197  0.20377  Biso   1.000  H
  C238     1.0000 0.02993  0.88927  0.15437  Biso   1.000  C
  H143     1.0000 0.06933  0.94137  0.15947  Biso   1.000  H
  C239     1.0000 0.01733  0.86267  0.12047  Biso   1.000  C
  H144     1.0000 0.05513  0.89677  0.10267  Biso   1.000  H
  C240     1.0000 0.89963  0.73457  0.13877  Biso   1.000  C
  N25      1.0000 0.88270  0.49800  0.44570  Biso   1.000  N
  O49      1.0000 0.10773  0.74436  0.37744  Biso   1.000  O
  O50      1.0000 0.14822  0.70504  0.33043  Biso   1.000  O
  C241     1.0000 0.11940  0.69430  0.36042  Biso   1.000  C
  C242     1.0000 0.09770  0.61330  0.37757  Biso   1.000  C
  C243     1.0000 0.06920  0.59850  0.41169  Biso   1.000  C
  H145     1.0000 0.06010  0.63720  0.42310  Biso   1.000  H
  C244     1.0000 0.05690  0.49990  0.48820  Biso   1.000  C
  H146     1.0000 0.10780  0.50430  0.48050  Biso   1.000  H
  C245     1.0000 0.03110  0.48910  0.52240  Biso   1.000  C
  H147     1.0000 0.06840  0.49070  0.53930  Biso   1.000  H
  C246     1.0000 0.90740  0.48980  0.50640  Biso   1.000  C
  C247     1.0000 0.83050  0.48090  0.51420  Biso   1.000  C
  H148     1.0000 0.81470  0.47870  0.53710  Biso   1.000  H
  C248     1.0000 0.77740  0.47400  0.48770  Biso   1.000  C
  H149     1.0000 0.72530  0.46130  0.49280  Biso   1.000  H
  C249     1.0000 0.80400  0.48800  0.45380  Biso   1.000  C
  H150     1.0000 0.76990  0.49170  0.43600  Biso   1.000  H
  C250     1.0000 0.93210  0.49840  0.47210  Biso   1.000  C
  N26      1.0000 0.54937  0.83133  0.77903  Biso   1.000  N
  O51      1.0000 0.77440  0.07769  0.71077  Biso   1.000  O
  O52      1.0000 0.81489  0.03837  0.66376  Biso   1.000  O
  C251     1.0000 0.78607  0.02763  0.69375  Biso   1.000  C
  C252     1.0000 0.76437  0.94663  0.71090  Biso   1.000  C
  C253     1.0000 0.73587  0.93183  0.74502  Biso   1.000  C
  H151     1.0000 0.72677  0.97053  0.75643  Biso   1.000  H
  C254     1.0000 0.72357  0.83323  0.82153  Biso   1.000  C
  H152     1.0000 0.77447  0.83763  0.81383  Biso   1.000  H
  C255     1.0000 0.69777  0.82243  0.85573  Biso   1.000  C
  H153     1.0000 0.73507  0.82403  0.87263  Biso   1.000  H
  C256     1.0000 0.57407  0.82313  0.83973  Biso   1.000  C
  C257     1.0000 0.49717  0.81423  0.84753  Biso   1.000  C
  H154     1.0000 0.48137  0.81203  0.87043  Biso   1.000  H
  C258     1.0000 0.44407  0.80733  0.82103  Biso   1.000  C
  H155     1.0000 0.39197  0.79463  0.82613  Biso   1.000  H
  C259     1.0000 0.47067  0.82133  0.78713  Biso   1.000  C
  H156     1.0000 0.43657  0.82503  0.76933  Biso   1.000  H
  C260     1.0000 0.59877  0.83173  0.80543  Biso   1.000  C
  N27      1.0000 0.21603  0.16467  0.11237  Biso   1.000  N
  O53      1.0000 0.44106  0.41103  0.04411  Biso   1.000  O
  O54      1.0000 0.48155  0.37171  0.99710  Biso   1.000  O
  C261     1.0000 0.45273  0.36097  0.02709  Biso   1.000  C
  C262     1.0000 0.43103  0.27997  0.04424  Biso   1.000  C
  C263     1.0000 0.40253  0.26517  0.07836  Biso   1.000  C
  H157     1.0000 0.39343  0.30387  0.08977  Biso   1.000  H
  C264     1.0000 0.39023  0.16657  0.15487  Biso   1.000  C
  H158     1.0000 0.44113  0.17097  0.14717  Biso   1.000  H
  C265     1.0000 0.36443  0.15577  0.18907  Biso   1.000  C
  H159     1.0000 0.40173  0.15737  0.20597  Biso   1.000  H
  C266     1.0000 0.24073  0.15647  0.17307  Biso   1.000  C
  C267     1.0000 0.16383  0.14757  0.18087  Biso   1.000  C
  H160     1.0000 0.14803  0.14537  0.20377  Biso   1.000  H
  C268     1.0000 0.11073  0.14067  0.15437  Biso   1.000  C
  H161     1.0000 0.05863  0.12797  0.15947  Biso   1.000  H
  C269     1.0000 0.13733  0.15467  0.12047  Biso   1.000  C
  H162     1.0000 0.10323  0.15837  0.10267  Biso   1.000  H
  C270     1.0000 0.26543  0.16507  0.13877  Biso   1.000  C
  N28      1.0000 0.38470  0.50200  0.55430  Biso   1.000  N
  O55      1.0000 0.36337  0.25564  0.62256  Biso   1.000  O
  O56      1.0000 0.44318  0.29496  0.66957  Biso   1.000  O
  C271     1.0000 0.42510  0.30570  0.63958  Biso   1.000  C
  C272     1.0000 0.48440  0.38670  0.62243  Biso   1.000  C
  C273     1.0000 0.47070  0.40150  0.58831  Biso   1.000  C
  H163     1.0000 0.42290  0.36280  0.57690  Biso   1.000  H
  C274     1.0000 0.55700  0.50010  0.51180  Biso   1.000  C
  H164     1.0000 0.60350  0.49570  0.51950  Biso   1.000  H
  C275     1.0000 0.54200  0.51090  0.47760  Biso   1.000  C
  H165     1.0000 0.57770  0.50930  0.46070  Biso   1.000  H
  C276     1.0000 0.41760  0.51020  0.49360  Biso   1.000  C
  C277     1.0000 0.34960  0.51910  0.48580  Biso   1.000  C
  H166     1.0000 0.33600  0.52130  0.46290  Biso   1.000  H
  C278     1.0000 0.30340  0.52600  0.51230  Biso   1.000  C
  H167     1.0000 0.26400  0.53870  0.50720  Biso   1.000  H
  C279     1.0000 0.31600  0.51200  0.54620  Biso   1.000  C
  H168     1.0000 0.27820  0.50830  0.56400  Biso   1.000  H
  C280     1.0000 0.43370  0.50160  0.52790  Biso   1.000  C
  N29      1.0000 0.05137  0.83533  0.88763  Biso   1.000  N
  O57      1.0000 0.03004  0.58897  0.95589  Biso   1.000  O
  O58      1.0000 0.10985  0.62829  0.00290  Biso   1.000  O
  C281     1.0000 0.09177  0.63903  0.97291  Biso   1.000  C
  C282     1.0000 0.15107  0.72003  0.95576  Biso   1.000  C
  C283     1.0000 0.13737  0.73483  0.92164  Biso   1.000  C
  H169     1.0000 0.08957  0.69613  0.91023  Biso   1.000  H
  C284     1.0000 0.22367  0.83343  0.84513  Biso   1.000  C
  H170     1.0000 0.27017  0.82903  0.85283  Biso   1.000  H
  C285     1.0000 0.20867  0.84423  0.81093  Biso   1.000  C
  H171     1.0000 0.24437  0.84263  0.79403  Biso   1.000  H
  C286     1.0000 0.08427  0.84353  0.82693  Biso   1.000  C
  C287     1.0000 0.01627  0.85243  0.81913  Biso   1.000  C
  H172     1.0000 0.00267  0.85463  0.79623  Biso   1.000  H
  C288     1.0000 0.97007  0.85933  0.84563  Biso   1.000  C
  H173     1.0000 0.93067  0.87203  0.84053  Biso   1.000  H
  C289     1.0000 0.98267  0.84533  0.87953  Biso   1.000  C
  H174     1.0000 0.94487  0.84163  0.89733  Biso   1.000  H
  C290     1.0000 0.10037  0.83493  0.86123  Biso   1.000  C
  N30      1.0000 0.71803  0.16867  0.22097  Biso   1.000  N
  O59      1.0000 0.69670  0.92231  0.28923  Biso   1.000  O
  O60      1.0000 0.77651  0.96163  0.33624  Biso   1.000  O
  C291     1.0000 0.75843  0.97237  0.30625  Biso   1.000  C
  C292     1.0000 0.81773  0.05337  0.28910  Biso   1.000  C
  C293     1.0000 0.80403  0.06817  0.25498  Biso   1.000  C
  H175     1.0000 0.75623  0.02947  0.24357  Biso   1.000  H
  C294     1.0000 0.89033  0.16677  0.17847  Biso   1.000  C
  H176     1.0000 0.93683  0.16237  0.18617  Biso   1.000  H
  C295     1.0000 0.87533  0.17757  0.14427  Biso   1.000  C
  H177     1.0000 0.91103  0.17597  0.12737  Biso   1.000  H
  C296     1.0000 0.75093  0.17687  0.16027  Biso   1.000  C
  C297     1.0000 0.68293  0.18577  0.15247  Biso   1.000  C
  H178     1.0000 0.66933  0.18797  0.12957  Biso   1.000  H
  C298     1.0000 0.63673  0.19267  0.17897  Biso   1.000  C
  H179     1.0000 0.59733  0.20537  0.17387  Biso   1.000  H
  C299     1.0000 0.64933  0.17867  0.21287  Biso   1.000  C
  H180     1.0000 0.61153  0.17497  0.23067  Biso   1.000  H
  C300     1.0000 0.76703  0.16827  0.19457  Biso   1.000  C
  N31      1.0000 0.11730  0.61530  0.55430  Biso   1.000  N
  O61      1.0000 0.89227  0.63663  0.62256  Biso   1.000  O
  O62      1.0000 0.85178  0.55682  0.66957  Biso   1.000  O
  C301     1.0000 0.88060  0.57490  0.63958  Biso   1.000  C
  C302     1.0000 0.90230  0.51560  0.62243  Biso   1.000  C
  C303     1.0000 0.93080  0.52930  0.58831  Biso   1.000  C
  H181     1.0000 0.93990  0.57710  0.57690  Biso   1.000  H
  C304     1.0000 0.94310  0.44300  0.51180  Biso   1.000  C
  H182     1.0000 0.89220  0.39650  0.51950  Biso   1.000  H
  C305     1.0000 0.96890  0.45800  0.47760  Biso   1.000  C
  H183     1.0000 0.93160  0.42230  0.46070  Biso   1.000  H
  C306     1.0000 0.09260  0.58240  0.49360  Biso   1.000  C
  C307     1.0000 0.16950  0.65040  0.48580  Biso   1.000  C
  H184     1.0000 0.18530  0.66400  0.46290  Biso   1.000  H
  C308     1.0000 0.22260  0.69660  0.51230  Biso   1.000  C
  H185     1.0000 0.27470  0.73600  0.50720  Biso   1.000  H
  C309     1.0000 0.19600  0.68400  0.54620  Biso   1.000  C
  H186     1.0000 0.23010  0.72180  0.56400  Biso   1.000  H
  C310     1.0000 0.06790  0.56630  0.52790  Biso   1.000  C
  N32      1.0000 0.78397  0.94863  0.88763  Biso   1.000  N
  O63      1.0000 0.55894  0.96996  0.95589  Biso   1.000  O
  O64      1.0000 0.51845  0.89015  0.00290  Biso   1.000  O
  C311     1.0000 0.54727  0.90823  0.97291  Biso   1.000  C
  C312     1.0000 0.56897  0.84893  0.95576  Biso   1.000  C
  C313     1.0000 0.59747  0.86263  0.92164  Biso   1.000  C
  H187     1.0000 0.60657  0.91043  0.91023  Biso   1.000  H
  C314     1.0000 0.60977  0.77633  0.84513  Biso   1.000  C
  H188     1.0000 0.55887  0.72983  0.85283  Biso   1.000  H
  C315     1.0000 0.63557  0.79133  0.81093  Biso   1.000  C
  H189     1.0000 0.59827  0.75563  0.79403  Biso   1.000  H
  C316     1.0000 0.75927  0.91573  0.82693  Biso   1.000  C
  C317     1.0000 0.83617  0.98373  0.81913  Biso   1.000  C
  H190     1.0000 0.85197  0.99733  0.79623  Biso   1.000  H
  C318     1.0000 0.88927  0.02993  0.84563  Biso   1.000  C
  H191     1.0000 0.94137  0.06933  0.84053  Biso   1.000  H
  C319     1.0000 0.86267  0.01733  0.87953  Biso   1.000  C
  H192     1.0000 0.89677  0.05513  0.89733  Biso   1.000  H
  C320     1.0000 0.73457  0.89963  0.86123  Biso   1.000  C
  N33      1.0000 0.45063  0.28197  0.22097  Biso   1.000  N
  O65      1.0000 0.22560  0.30330  0.28923  Biso   1.000  O
  O66      1.0000 0.18511  0.22349  0.33624  Biso   1.000  O
  C321     1.0000 0.21393  0.24157  0.30625  Biso   1.000  C
  C322     1.0000 0.23563  0.18227  0.28910  Biso   1.000  C
  C323     1.0000 0.26413  0.19597  0.25498  Biso   1.000  C
  H193     1.0000 0.27323  0.24377  0.24357  Biso   1.000  H
  C324     1.0000 0.27643  0.10967  0.17847  Biso   1.000  C
  H194     1.0000 0.22553  0.06317  0.18617  Biso   1.000  H
  C325     1.0000 0.30223  0.12467  0.14427  Biso   1.000  C
  H195     1.0000 0.26493  0.08897  0.12737  Biso   1.000  H
  C326     1.0000 0.42593  0.24907  0.16027  Biso   1.000  C
  C327     1.0000 0.50283  0.31707  0.15247  Biso   1.000  C
  H196     1.0000 0.51863  0.33067  0.12957  Biso   1.000  H
  C328     1.0000 0.55593  0.36327  0.17897  Biso   1.000  C
  H197     1.0000 0.60803  0.40267  0.17387  Biso   1.000  H
  C329     1.0000 0.52933  0.35067  0.21287  Biso   1.000  C
  H198     1.0000 0.56343  0.38847  0.23067  Biso   1.000  H
  C330     1.0000 0.40123  0.23297  0.19457  Biso   1.000  C
  N34      1.0000 0.49800  0.88270  0.55430  Biso   1.000  N
  O67      1.0000 0.74436  0.10773  0.62256  Biso   1.000  O
  O68      1.0000 0.70504  0.14822  0.66957  Biso   1.000  O
  C331     1.0000 0.69430  0.11940  0.63958  Biso   1.000  C
  C332     1.0000 0.61330  0.09770  0.62243  Biso   1.000  C
  C333     1.0000 0.59850  0.06920  0.58831  Biso   1.000  C
  H199     1.0000 0.63720  0.06010  0.57690  Biso   1.000  H
  C334     1.0000 0.49990  0.05690  0.51180  Biso   1.000  C
  H200     1.0000 0.50430  0.10780  0.51950  Biso   1.000  H
  C335     1.0000 0.48910  0.03110  0.47760  Biso   1.000  C
  H201     1.0000 0.49070  0.06840  0.46070  Biso   1.000  H
  C336     1.0000 0.48980  0.90740  0.49360  Biso   1.000  C
  C337     1.0000 0.48090  0.83050  0.48580  Biso   1.000  C
  H202     1.0000 0.47870  0.81470  0.46290  Biso   1.000  H
  C338     1.0000 0.47400  0.77740  0.51230  Biso   1.000  C
  H203     1.0000 0.46130  0.72530  0.50720  Biso   1.000  H
  C339     1.0000 0.48800  0.80400  0.54620  Biso   1.000  C
  H204     1.0000 0.49170  0.76990  0.56400  Biso   1.000  H
  C340     1.0000 0.49840  0.93210  0.52790  Biso   1.000  C
  N35      1.0000 0.16467  0.21603  0.88763  Biso   1.000  N
  O69      1.0000 0.41103  0.44106  0.95589  Biso   1.000  O
  O70      1.0000 0.37171  0.48155  0.00290  Biso   1.000  O
  C341     1.0000 0.36097  0.45273  0.97291  Biso   1.000  C
  C342     1.0000 0.27997  0.43103  0.95576  Biso   1.000  C
  C343     1.0000 0.26517  0.40253  0.92164  Biso   1.000  C
  H205     1.0000 0.30387  0.39343  0.91023  Biso   1.000  H
  C344     1.0000 0.16657  0.39023  0.84513  Biso   1.000  C
  H206     1.0000 0.17097  0.44113  0.85283  Biso   1.000  H
  C345     1.0000 0.15577  0.36443  0.81093  Biso   1.000  C
  H207     1.0000 0.15737  0.40173  0.79403  Biso   1.000  H
  C346     1.0000 0.15647  0.24073  0.82693  Biso   1.000  C
  C347     1.0000 0.14757  0.16383  0.81913  Biso   1.000  C
  H208     1.0000 0.14537  0.14803  0.79623  Biso   1.000  H
  C348     1.0000 0.14067  0.11073  0.84563  Biso   1.000  C
  H209     1.0000 0.12797  0.05863  0.84053  Biso   1.000  H
  C349     1.0000 0.15467  0.13733  0.87953  Biso   1.000  C
  H210     1.0000 0.15837  0.10323  0.89733  Biso   1.000  H
  C350     1.0000 0.16507  0.26543  0.86123  Biso   1.000  C
  N36      1.0000 0.83133  0.54937  0.22097  Biso   1.000  N
  O71      1.0000 0.07769  0.77440  0.28923  Biso   1.000  O
  O72      1.0000 0.03837  0.81489  0.33624  Biso   1.000  O
  C351     1.0000 0.02763  0.78607  0.30625  Biso   1.000  C
  C352     1.0000 0.94663  0.76437  0.28910  Biso   1.000  C
  C353     1.0000 0.93183  0.73587  0.25498  Biso   1.000  C
  H211     1.0000 0.97053  0.72677  0.24357  Biso   1.000  H
  C354     1.0000 0.83323  0.72357  0.17847  Biso   1.000  C
  H212     1.0000 0.83763  0.77447  0.18617  Biso   1.000  H
  C355     1.0000 0.82243  0.69777  0.14427  Biso   1.000  C
  H213     1.0000 0.82403  0.73507  0.12737  Biso   1.000  H
  C356     1.0000 0.82313  0.57407  0.16027  Biso   1.000  C
  C357     1.0000 0.81423  0.49717  0.15247  Biso   1.000  C
  H214     1.0000 0.81203  0.48137  0.12957  Biso   1.000  H
  C358     1.0000 0.80733  0.44407  0.17897  Biso   1.000  C
  H215     1.0000 0.79463  0.39197  0.17387  Biso   1.000  H
  C359     1.0000 0.82133  0.47067  0.21287  Biso   1.000  C
  H216     1.0000 0.82503  0.43657  0.23067  Biso   1.000  H
  C360     1.0000 0.83173  0.59877  0.19457  Biso   1.000  C
  Cu1      1.0000 0.85703  0.71406  0.63876  Biso   1.000  Cu
  Cu2      1.0000 0.52370  0.04739  0.97209  Biso   1.000  Cu
  Cu3      1.0000 0.19036  0.38073  0.30542  Biso   1.000  Cu
  Cu4      1.0000 0.28594  0.14297  0.63876  Biso   1.000  Cu
  Cu5      1.0000 0.95261  0.47630  0.97209  Biso   1.000  Cu
  Cu6      1.0000 0.61927  0.80964  0.30542  Biso   1.000  Cu
  Cu7      1.0000 0.85703  0.14297  0.63876  Biso   1.000  Cu
  Cu8      1.0000 0.52370  0.47630  0.97209  Biso   1.000  Cu
  Cu9      1.0000 0.19036  0.80964  0.30542  Biso   1.000  Cu
  Cu10     1.0000 0.71406  0.85703  0.36124  Biso   1.000  Cu
  Cu11     1.0000 0.38073  0.19036  0.69458  Biso   1.000  Cu
  Cu12     1.0000 0.04739  0.52370  0.02791  Biso   1.000  Cu
  Cu13     1.0000 0.14297  0.28594  0.36124  Biso   1.000  Cu
  Cu14     1.0000 0.80964  0.61927  0.69458  Biso   1.000  Cu
  Cu15     1.0000 0.47630  0.95261  0.02791  Biso   1.000  Cu
  Cu16     1.0000 0.14297  0.85703  0.36124  Biso   1.000  Cu
  Cu17     1.0000 0.80964  0.19036  0.69458  Biso   1.000  Cu
  Cu18     1.0000 0.47630  0.52370  0.02791  Biso   1.000  Cu
  C361     1.0000 0.55584  0.44416  0.63924  Biso   1.000  C
  H217     1.0000 0.56530  0.43470  0.66200  Biso   1.000  H
  C362     1.0000 0.52720  0.47280  0.57140  Biso   1.000  C
  C363     1.0000 0.50290  0.49710  0.53730  Biso   1.000  C
  C364     1.0000 0.47770  0.52230  0.46840  Biso   1.000  C
  C365     1.0000 0.22251  0.77749  0.97257  Biso   1.000  C
  H218     1.0000 0.23197  0.76803  0.99533  Biso   1.000  H
  C366     1.0000 0.19387  0.80613  0.90473  Biso   1.000  C
  C367     1.0000 0.16957  0.83043  0.87063  Biso   1.000  C
  C368     1.0000 0.14437  0.85563  0.80173  Biso   1.000  C
  C369     1.0000 0.88917  0.11083  0.30591  Biso   1.000  C
  H219     1.0000 0.89863  0.10137  0.32867  Biso   1.000  H
  C370     1.0000 0.86053  0.13947  0.23807  Biso   1.000  C
  C371     1.0000 0.83623  0.16377  0.20397  Biso   1.000  C
  C372     1.0000 0.81103  0.18897  0.13507  Biso   1.000  C
  C373     1.0000 0.55584  0.11168  0.63924  Biso   1.000  C
  H220     1.0000 0.56530  0.13060  0.66200  Biso   1.000  H
  C374     1.0000 0.52720  0.05440  0.57140  Biso   1.000  C
  C375     1.0000 0.50290  0.00580  0.53730  Biso   1.000  C
  C376     1.0000 0.47770  0.95540  0.46840  Biso   1.000  C
  C377     1.0000 0.22251  0.44501  0.97257  Biso   1.000  C
  H221     1.0000 0.23197  0.46393  0.99533  Biso   1.000  H
  C378     1.0000 0.19387  0.38773  0.90473  Biso   1.000  C
  C379     1.0000 0.16957  0.33913  0.87063  Biso   1.000  C
  C380     1.0000 0.14437  0.28873  0.80173  Biso   1.000  C
  C381     1.0000 0.88917  0.77835  0.30591  Biso   1.000  C
  H222     1.0000 0.89863  0.79727  0.32867  Biso   1.000  H
  C382     1.0000 0.86053  0.72107  0.23807  Biso   1.000  C
  C383     1.0000 0.83623  0.67247  0.20397  Biso   1.000  C
  C384     1.0000 0.81103  0.62207  0.13507  Biso   1.000  C
  C385     1.0000 0.88832  0.44416  0.63924  Biso   1.000  C
  H223     1.0000 0.86940  0.43470  0.66200  Biso   1.000  H
  C386     1.0000 0.94560  0.47280  0.57140  Biso   1.000  C
  C387     1.0000 0.99420  0.49710  0.53730  Biso   1.000  C
  C388     1.0000 0.04460  0.52230  0.46840  Biso   1.000  C
  C389     1.0000 0.55499  0.77749  0.97257  Biso   1.000  C
  H224     1.0000 0.53607  0.76803  0.99533  Biso   1.000  H
  C390     1.0000 0.61227  0.80613  0.90473  Biso   1.000  C
  C391     1.0000 0.66087  0.83043  0.87063  Biso   1.000  C
  C392     1.0000 0.71127  0.85563  0.80173  Biso   1.000  C
  C393     1.0000 0.22165  0.11083  0.30591  Biso   1.000  C
  H225     1.0000 0.20273  0.10137  0.32867  Biso   1.000  H
  C394     1.0000 0.27893  0.13947  0.23807  Biso   1.000  C
  C395     1.0000 0.32753  0.16377  0.20397  Biso   1.000  C
  C396     1.0000 0.37793  0.18897  0.13507  Biso   1.000  C
  C397     1.0000 0.44416  0.55584  0.36076  Biso   1.000  C
  H226     1.0000 0.43470  0.56530  0.33800  Biso   1.000  H
  C398     1.0000 0.47280  0.52720  0.42860  Biso   1.000  C
  C399     1.0000 0.49710  0.50290  0.46270  Biso   1.000  C
  C400     1.0000 0.52230  0.47770  0.53160  Biso   1.000  C
  C401     1.0000 0.11083  0.88917  0.69409  Biso   1.000  C
  H227     1.0000 0.10137  0.89863  0.67133  Biso   1.000  H
  C402     1.0000 0.13947  0.86053  0.76193  Biso   1.000  C
  C403     1.0000 0.16377  0.83623  0.79603  Biso   1.000  C
  C404     1.0000 0.18897  0.81103  0.86493  Biso   1.000  C
  C405     1.0000 0.77749  0.22251  0.02743  Biso   1.000  C
  H228     1.0000 0.76803  0.23197  0.00467  Biso   1.000  H
  C406     1.0000 0.80613  0.19387  0.09527  Biso   1.000  C
  C407     1.0000 0.83043  0.16957  0.12937  Biso   1.000  C
  C408     1.0000 0.85563  0.14437  0.19827  Biso   1.000  C
  C409     1.0000 0.11168  0.55584  0.36076  Biso   1.000  C
  H229     1.0000 0.13060  0.56530  0.33800  Biso   1.000  H
  C410     1.0000 0.05440  0.52720  0.42860  Biso   1.000  C
  C411     1.0000 0.00580  0.50290  0.46270  Biso   1.000  C
  C412     1.0000 0.95540  0.47770  0.53160  Biso   1.000  C
  C413     1.0000 0.77835  0.88917  0.69409  Biso   1.000  C
  H230     1.0000 0.79727  0.89863  0.67133  Biso   1.000  H
  C414     1.0000 0.72107  0.86053  0.76193  Biso   1.000  C
  C415     1.0000 0.67247  0.83623  0.79603  Biso   1.000  C
  C416     1.0000 0.62207  0.81103  0.86493  Biso   1.000  C
  C417     1.0000 0.44501  0.22251  0.02743  Biso   1.000  C
  H231     1.0000 0.46393  0.23197  0.00467  Biso   1.000  H
  C418     1.0000 0.38773  0.19387  0.09527  Biso   1.000  C
  C419     1.0000 0.33913  0.16957  0.12937  Biso   1.000  C
  C420     1.0000 0.28873  0.14437  0.19827  Biso   1.000  C
  C421     1.0000 0.44416  0.88832  0.36076  Biso   1.000  C
  H232     1.0000 0.43470  0.86940  0.33800  Biso   1.000  H
  C422     1.0000 0.47280  0.94560  0.42860  Biso   1.000  C
  C423     1.0000 0.49710  0.99420  0.46270  Biso   1.000  C
  C424     1.0000 0.52230  0.04460  0.53160  Biso   1.000  C
  C425     1.0000 0.11083  0.22165  0.69409  Biso   1.000  C
  H233     1.0000 0.10137  0.20273  0.67133  Biso   1.000  H
  C426     1.0000 0.13947  0.27893  0.76193  Biso   1.000  C
  C427     1.0000 0.16377  0.32753  0.79603  Biso   1.000  C
  C428     1.0000 0.18897  0.37793  0.86493  Biso   1.000  C
  C429     1.0000 0.77749  0.55499  0.02743  Biso   1.000  C
  H234     1.0000 0.76803  0.53607  0.00467  Biso   1.000  H
  C430     1.0000 0.80613  0.61227  0.09527  Biso   1.000  C
  C431     1.0000 0.83043  0.66087  0.12937  Biso   1.000  C
  C432     1.0000 0.85563  0.71127  0.19827  Biso   1.000  C
