data_image0
_cell_length_a       31.535
_cell_length_b       31.535
_cell_length_c       31.535
_cell_angle_alpha    90
_cell_angle_beta     90
_cell_angle_gamma    90

_symmetry_space_group_name_H-M    "P 1"
_symmetry_int_tables_number       1

loop_
  _symmetry_equiv_pos_as_xyz
  'x, y, z'

loop_
  _atom_site_label
  _atom_site_occupancy
  _atom_site_fract_x
  _atom_site_fract_y
  _atom_site_fract_z
  _atom_site_thermal_displace_type
  _atom_site_B_iso_or_equiv
  _atom_site_type_symbol
  N1       1.0000 0.97160  0.70545  0.15900  Biso   1.000  N
  C1       1.0000 0.98435  0.66507  0.16780  Biso   1.000  C
  H1       1.0000 0.00960  0.65260  0.15900  Biso   1.000  H
  N2       1.0000 0.95360  0.64624  0.19160  Biso   1.000  N
  C2       1.0000 0.92190  0.67500  0.19760  Biso   1.000  C
  H2       1.0000 0.89700  0.67040  0.21280  Biso   1.000  H
  C3       1.0000 0.93300  0.71157  0.17750  Biso   1.000  C
  H3       1.0000 0.91700  0.73630  0.17650  Biso   1.000  H
  C4       1.0000 0.95320  0.60010  0.20320  Biso   1.000  C
  C5       1.0000 0.91540  0.58020  0.21350  Biso   1.000  C
  H4       1.0000 0.88970  0.59410  0.20920  Biso   1.000  H
  C6       1.0000 0.91580  0.53950  0.23020  Biso   1.000  C
  H5       1.0000 0.89040  0.52610  0.23720  Biso   1.000  H
  C7       1.0000 0.95400  0.51880  0.23660  Biso   1.000  C
  C8       1.0000 0.99190  0.53870  0.22630  Biso   1.000  C
  H6       1.0000 0.01750  0.52470  0.23060  Biso   1.000  H
  C9       1.0000 0.99140  0.57930  0.20960  Biso   1.000  C
  H7       1.0000 0.01680  0.59270  0.20270  Biso   1.000  H
  C10      1.0000 0.95770  0.60770  0.21240  Biso   1.000  C
  C11      1.0000 0.93380  0.59780  0.24790  Biso   1.000  C
  H8       1.0000 0.91680  0.61840  0.26050  Biso   1.000  H
  C12      1.0000 0.93540  0.55730  0.26480  Biso   1.000  C
  H9       1.0000 0.91940  0.55060  0.28870  Biso   1.000  H
  C13      1.0000 0.96070  0.52660  0.24610  Biso   1.000  C
  C14      1.0000 0.98460  0.53660  0.21050  Biso   1.000  C
  H10      1.0000 0.00160  0.51600  0.19800  Biso   1.000  H
  C15      1.0000 0.98300  0.57710  0.19370  Biso   1.000  C
  H11      1.0000 0.99900  0.58380  0.16980  Biso   1.000  H
  N3       1.0000 0.47160  0.20545  0.65900  Biso   1.000  N
  C16      1.0000 0.48435  0.16507  0.66780  Biso   1.000  C
  H12      1.0000 0.50960  0.15260  0.65900  Biso   1.000  H
  N4       1.0000 0.45360  0.14624  0.69160  Biso   1.000  N
  C17      1.0000 0.42190  0.17500  0.69760  Biso   1.000  C
  H13      1.0000 0.39700  0.17040  0.71280  Biso   1.000  H
  C18      1.0000 0.43300  0.21157  0.67750  Biso   1.000  C
  H14      1.0000 0.41700  0.23630  0.67650  Biso   1.000  H
  C19      1.0000 0.45320  0.10010  0.70320  Biso   1.000  C
  C20      1.0000 0.41540  0.08020  0.71350  Biso   1.000  C
  H15      1.0000 0.38970  0.09410  0.70920  Biso   1.000  H
  C21      1.0000 0.41580  0.03950  0.73020  Biso   1.000  C
  H16      1.0000 0.39040  0.02610  0.73720  Biso   1.000  H
  C22      1.0000 0.45400  0.01880  0.73660  Biso   1.000  C
  C23      1.0000 0.49190  0.03870  0.72630  Biso   1.000  C
  H17      1.0000 0.51750  0.02470  0.73060  Biso   1.000  H
  C24      1.0000 0.49140  0.07930  0.70960  Biso   1.000  C
  H18      1.0000 0.51680  0.09270  0.70270  Biso   1.000  H
  C25      1.0000 0.45770  0.10770  0.71240  Biso   1.000  C
  C26      1.0000 0.43380  0.09780  0.74790  Biso   1.000  C
  H19      1.0000 0.41680  0.11840  0.76050  Biso   1.000  H
  C27      1.0000 0.43540  0.05730  0.76480  Biso   1.000  C
  H20      1.0000 0.41940  0.05060  0.78870  Biso   1.000  H
  C28      1.0000 0.46070  0.02660  0.74610  Biso   1.000  C
  C29      1.0000 0.48460  0.03660  0.71050  Biso   1.000  C
  H21      1.0000 0.50160  0.01600  0.69800  Biso   1.000  H
  C30      1.0000 0.48300  0.07710  0.69370  Biso   1.000  C
  H22      1.0000 0.49900  0.08380  0.66980  Biso   1.000  H
  N5       1.0000 0.52840  0.29455  0.65900  Biso   1.000  N
  C31      1.0000 0.51565  0.33493  0.66780  Biso   1.000  C
  H23      1.0000 0.49040  0.34740  0.65900  Biso   1.000  H
  N6       1.0000 0.54640  0.35376  0.69160  Biso   1.000  N
  C32      1.0000 0.57810  0.32500  0.69760  Biso   1.000  C
  H24      1.0000 0.60300  0.32960  0.71280  Biso   1.000  H
  C33      1.0000 0.56700  0.28843  0.67750  Biso   1.000  C
  H25      1.0000 0.58300  0.26370  0.67650  Biso   1.000  H
  C34      1.0000 0.54680  0.39990  0.70320  Biso   1.000  C
  C35      1.0000 0.58460  0.41980  0.71350  Biso   1.000  C
  H26      1.0000 0.61030  0.40590  0.70920  Biso   1.000  H
  C36      1.0000 0.58420  0.46050  0.73020  Biso   1.000  C
  H27      1.0000 0.60960  0.47390  0.73720  Biso   1.000  H
  C37      1.0000 0.54600  0.48120  0.73660  Biso   1.000  C
  C38      1.0000 0.50810  0.46130  0.72630  Biso   1.000  C
  H28      1.0000 0.48250  0.47530  0.73060  Biso   1.000  H
  C39      1.0000 0.50860  0.42070  0.70960  Biso   1.000  C
  H29      1.0000 0.48320  0.40730  0.70270  Biso   1.000  H
  C40      1.0000 0.54230  0.39230  0.71240  Biso   1.000  C
  C41      1.0000 0.56620  0.40220  0.74790  Biso   1.000  C
  H30      1.0000 0.58320  0.38160  0.76050  Biso   1.000  H
  C42      1.0000 0.56460  0.44270  0.76480  Biso   1.000  C
  H31      1.0000 0.58060  0.44940  0.78870  Biso   1.000  H
  C43      1.0000 0.53930  0.47340  0.74610  Biso   1.000  C
  C44      1.0000 0.51540  0.46340  0.71050  Biso   1.000  C
  H32      1.0000 0.49840  0.48400  0.69800  Biso   1.000  H
  C45      1.0000 0.51700  0.42290  0.69370  Biso   1.000  C
  H33      1.0000 0.50100  0.41620  0.66980  Biso   1.000  H
  N7       1.0000 0.02840  0.79455  0.15900  Biso   1.000  N
  C46      1.0000 0.01565  0.83493  0.16780  Biso   1.000  C
  H34      1.0000 0.99040  0.84740  0.15900  Biso   1.000  H
  N8       1.0000 0.04640  0.85376  0.19160  Biso   1.000  N
  C47      1.0000 0.07810  0.82500  0.19760  Biso   1.000  C
  H35      1.0000 0.10300  0.82960  0.21280  Biso   1.000  H
  C48      1.0000 0.06700  0.78843  0.17750  Biso   1.000  C
  H36      1.0000 0.08300  0.76370  0.17650  Biso   1.000  H
  C49      1.0000 0.04680  0.89990  0.20320  Biso   1.000  C
  C50      1.0000 0.08460  0.91980  0.21350  Biso   1.000  C
  H37      1.0000 0.11030  0.90590  0.20920  Biso   1.000  H
  C51      1.0000 0.08420  0.96050  0.23020  Biso   1.000  C
  H38      1.0000 0.10960  0.97390  0.23720  Biso   1.000  H
  C52      1.0000 0.04600  0.98120  0.23660  Biso   1.000  C
  C53      1.0000 0.00810  0.96130  0.22630  Biso   1.000  C
  H39      1.0000 0.98250  0.97530  0.23060  Biso   1.000  H
  C54      1.0000 0.00860  0.92070  0.20960  Biso   1.000  C
  H40      1.0000 0.98320  0.90730  0.20270  Biso   1.000  H
  C55      1.0000 0.04230  0.89230  0.21240  Biso   1.000  C
  C56      1.0000 0.06620  0.90220  0.24790  Biso   1.000  C
  H41      1.0000 0.08320  0.88160  0.26050  Biso   1.000  H
  C57      1.0000 0.06460  0.94270  0.26480  Biso   1.000  C
  H42      1.0000 0.08060  0.94940  0.28870  Biso   1.000  H
  C58      1.0000 0.03930  0.97340  0.24610  Biso   1.000  C
  C59      1.0000 0.01540  0.96340  0.21050  Biso   1.000  C
  H43      1.0000 0.99840  0.98400  0.19800  Biso   1.000  H
  C60      1.0000 0.01700  0.92290  0.19370  Biso   1.000  C
  H44      1.0000 0.00100  0.91620  0.16980  Biso   1.000  H
  N9       1.0000 0.02840  0.20545  0.34100  Biso   1.000  N
  C61      1.0000 0.01565  0.16507  0.33220  Biso   1.000  C
  H45      1.0000 0.99040  0.15260  0.34100  Biso   1.000  H
  N10      1.0000 0.04640  0.14624  0.30840  Biso   1.000  N
  C62      1.0000 0.07810  0.17500  0.30240  Biso   1.000  C
  H46      1.0000 0.10300  0.17040  0.28720  Biso   1.000  H
  C63      1.0000 0.06700  0.21157  0.32250  Biso   1.000  C
  H47      1.0000 0.08300  0.23630  0.32350  Biso   1.000  H
  C64      1.0000 0.04680  0.10010  0.29680  Biso   1.000  C
  C65      1.0000 0.08460  0.08020  0.28650  Biso   1.000  C
  H48      1.0000 0.11030  0.09410  0.29080  Biso   1.000  H
  C66      1.0000 0.08420  0.03950  0.26980  Biso   1.000  C
  H49      1.0000 0.10960  0.02610  0.26280  Biso   1.000  H
  C67      1.0000 0.04600  0.01880  0.26340  Biso   1.000  C
  C68      1.0000 0.00810  0.03870  0.27370  Biso   1.000  C
  H50      1.0000 0.98250  0.02470  0.26940  Biso   1.000  H
  C69      1.0000 0.00860  0.07930  0.29040  Biso   1.000  C
  H51      1.0000 0.98320  0.09270  0.29730  Biso   1.000  H
  C70      1.0000 0.04230  0.10770  0.28760  Biso   1.000  C
  C71      1.0000 0.06620  0.09780  0.25210  Biso   1.000  C
  H52      1.0000 0.08320  0.11840  0.23950  Biso   1.000  H
  C72      1.0000 0.06460  0.05730  0.23520  Biso   1.000  C
  H53      1.0000 0.08060  0.05060  0.21130  Biso   1.000  H
  C73      1.0000 0.03930  0.02660  0.25390  Biso   1.000  C
  C74      1.0000 0.01540  0.03660  0.28950  Biso   1.000  C
  H54      1.0000 0.99840  0.01600  0.30200  Biso   1.000  H
  C75      1.0000 0.01700  0.07710  0.30630  Biso   1.000  C
  H55      1.0000 0.00100  0.08380  0.33020  Biso   1.000  H
  N11      1.0000 0.52840  0.70545  0.84100  Biso   1.000  N
  C76      1.0000 0.51565  0.66507  0.83220  Biso   1.000  C
  H56      1.0000 0.49040  0.65260  0.84100  Biso   1.000  H
  N12      1.0000 0.54640  0.64624  0.80840  Biso   1.000  N
  C77      1.0000 0.57810  0.67500  0.80240  Biso   1.000  C
  H57      1.0000 0.60300  0.67040  0.78720  Biso   1.000  H
  C78      1.0000 0.56700  0.71157  0.82250  Biso   1.000  C
  H58      1.0000 0.58300  0.73630  0.82350  Biso   1.000  H
  C79      1.0000 0.54680  0.60010  0.79680  Biso   1.000  C
  C80      1.0000 0.58460  0.58020  0.78650  Biso   1.000  C
  H59      1.0000 0.61030  0.59410  0.79080  Biso   1.000  H
  C81      1.0000 0.58420  0.53950  0.76980  Biso   1.000  C
  H60      1.0000 0.60960  0.52610  0.76280  Biso   1.000  H
  C82      1.0000 0.54600  0.51880  0.76340  Biso   1.000  C
  C83      1.0000 0.50810  0.53870  0.77370  Biso   1.000  C
  H61      1.0000 0.48250  0.52470  0.76940  Biso   1.000  H
  C84      1.0000 0.50860  0.57930  0.79040  Biso   1.000  C
  H62      1.0000 0.48320  0.59270  0.79730  Biso   1.000  H
  C85      1.0000 0.54230  0.60770  0.78760  Biso   1.000  C
  C86      1.0000 0.56620  0.59780  0.75210  Biso   1.000  C
  H63      1.0000 0.58320  0.61840  0.73950  Biso   1.000  H
  C87      1.0000 0.56460  0.55730  0.73520  Biso   1.000  C
  H64      1.0000 0.58060  0.55060  0.71130  Biso   1.000  H
  C88      1.0000 0.53930  0.52660  0.75390  Biso   1.000  C
  C89      1.0000 0.51540  0.53660  0.78950  Biso   1.000  C
  H65      1.0000 0.49840  0.51600  0.80200  Biso   1.000  H
  C90      1.0000 0.51700  0.57710  0.80630  Biso   1.000  C
  H66      1.0000 0.50100  0.58380  0.83020  Biso   1.000  H
  N13      1.0000 0.47160  0.79455  0.84100  Biso   1.000  N
  C91      1.0000 0.48435  0.83493  0.83220  Biso   1.000  C
  H67      1.0000 0.50960  0.84740  0.84100  Biso   1.000  H
  N14      1.0000 0.45360  0.85376  0.80840  Biso   1.000  N
  C92      1.0000 0.42190  0.82500  0.80240  Biso   1.000  C
  H68      1.0000 0.39700  0.82960  0.78720  Biso   1.000  H
  C93      1.0000 0.43300  0.78843  0.82250  Biso   1.000  C
  H69      1.0000 0.41700  0.76370  0.82350  Biso   1.000  H
  C94      1.0000 0.45320  0.89990  0.79680  Biso   1.000  C
  C95      1.0000 0.41540  0.91980  0.78650  Biso   1.000  C
  H70      1.0000 0.38970  0.90590  0.79080  Biso   1.000  H
  C96      1.0000 0.41580  0.96050  0.76980  Biso   1.000  C
  H71      1.0000 0.39040  0.97390  0.76280  Biso   1.000  H
  C97      1.0000 0.45400  0.98120  0.76340  Biso   1.000  C
  C98      1.0000 0.49190  0.96130  0.77370  Biso   1.000  C
  H72      1.0000 0.51750  0.97530  0.76940  Biso   1.000  H
  C99      1.0000 0.49140  0.92070  0.79040  Biso   1.000  C
  H73      1.0000 0.51680  0.90730  0.79730  Biso   1.000  H
  C100     1.0000 0.45770  0.89230  0.78760  Biso   1.000  C
  C101     1.0000 0.43380  0.90220  0.75210  Biso   1.000  C
  H74      1.0000 0.41680  0.88160  0.73950  Biso   1.000  H
  C102     1.0000 0.43540  0.94270  0.73520  Biso   1.000  C
  H75      1.0000 0.41940  0.94940  0.71130  Biso   1.000  H
  C103     1.0000 0.46070  0.97340  0.75390  Biso   1.000  C
  C104     1.0000 0.48460  0.96340  0.78950  Biso   1.000  C
  H76      1.0000 0.50160  0.98400  0.80200  Biso   1.000  H
  C105     1.0000 0.48300  0.92290  0.80630  Biso   1.000  C
  H77      1.0000 0.49900  0.91620  0.83020  Biso   1.000  H
  N15      1.0000 0.97160  0.29455  0.34100  Biso   1.000  N
  C106     1.0000 0.98435  0.33493  0.33220  Biso   1.000  C
  H78      1.0000 0.00960  0.34740  0.34100  Biso   1.000  H
  N16      1.0000 0.95360  0.35376  0.30840  Biso   1.000  N
  C107     1.0000 0.92190  0.32500  0.30240  Biso   1.000  C
  H79      1.0000 0.89700  0.32960  0.28720  Biso   1.000  H
  C108     1.0000 0.93300  0.28843  0.32250  Biso   1.000  C
  H80      1.0000 0.91700  0.26370  0.32350  Biso   1.000  H
  C109     1.0000 0.95320  0.39990  0.29680  Biso   1.000  C
  C110     1.0000 0.91540  0.41980  0.28650  Biso   1.000  C
  H81      1.0000 0.88970  0.40590  0.29080  Biso   1.000  H
  C111     1.0000 0.91580  0.46050  0.26980  Biso   1.000  C
  H82      1.0000 0.89040  0.47390  0.26280  Biso   1.000  H
  C112     1.0000 0.95400  0.48120  0.26340  Biso   1.000  C
  C113     1.0000 0.99190  0.46130  0.27370  Biso   1.000  C
  H83      1.0000 0.01750  0.47530  0.26940  Biso   1.000  H
  C114     1.0000 0.99140  0.42070  0.29040  Biso   1.000  C
  H84      1.0000 0.01680  0.40730  0.29730  Biso   1.000  H
  C115     1.0000 0.95770  0.39230  0.28760  Biso   1.000  C
  C116     1.0000 0.93380  0.40220  0.25210  Biso   1.000  C
  H85      1.0000 0.91680  0.38160  0.23950  Biso   1.000  H
  C117     1.0000 0.93540  0.44270  0.23520  Biso   1.000  C
  H86      1.0000 0.91940  0.44940  0.21130  Biso   1.000  H
  C118     1.0000 0.96070  0.47340  0.25390  Biso   1.000  C
  C119     1.0000 0.98460  0.46340  0.28950  Biso   1.000  C
  H87      1.0000 0.00160  0.48400  0.30200  Biso   1.000  H
  C120     1.0000 0.98300  0.42290  0.30630  Biso   1.000  C
  H88      1.0000 0.99900  0.41620  0.33020  Biso   1.000  H
  N17      1.0000 0.54455  0.77840  0.90900  Biso   1.000  N
  C121     1.0000 0.58493  0.76565  0.91780  Biso   1.000  C
  H89      1.0000 0.59740  0.74040  0.90900  Biso   1.000  H
  N18      1.0000 0.60376  0.79640  0.94160  Biso   1.000  N
  C122     1.0000 0.57500  0.82810  0.94760  Biso   1.000  C
  H90      1.0000 0.57960  0.85300  0.96280  Biso   1.000  H
  C123     1.0000 0.53843  0.81700  0.92750  Biso   1.000  C
  H91      1.0000 0.51370  0.83300  0.92650  Biso   1.000  H
  C124     1.0000 0.64990  0.79680  0.95320  Biso   1.000  C
  C125     1.0000 0.66980  0.83460  0.96350  Biso   1.000  C
  H92      1.0000 0.65590  0.86030  0.95920  Biso   1.000  H
  C126     1.0000 0.71050  0.83420  0.98020  Biso   1.000  C
  H93      1.0000 0.72390  0.85960  0.98720  Biso   1.000  H
  C127     1.0000 0.73120  0.79600  0.98660  Biso   1.000  C
  C128     1.0000 0.71130  0.75810  0.97630  Biso   1.000  C
  H94      1.0000 0.72530  0.73250  0.98060  Biso   1.000  H
  C129     1.0000 0.67070  0.75860  0.95960  Biso   1.000  C
  H95      1.0000 0.65730  0.73320  0.95270  Biso   1.000  H
  C130     1.0000 0.64230  0.79230  0.96240  Biso   1.000  C
  C131     1.0000 0.65220  0.81620  0.99790  Biso   1.000  C
  H96      1.0000 0.63160  0.83320  0.01050  Biso   1.000  H
  C132     1.0000 0.69270  0.81460  0.01480  Biso   1.000  C
  H97      1.0000 0.69940  0.83060  0.03870  Biso   1.000  H
  C133     1.0000 0.72340  0.78930  0.99610  Biso   1.000  C
  C134     1.0000 0.71340  0.76540  0.96050  Biso   1.000  C
  H98      1.0000 0.73400  0.74840  0.94800  Biso   1.000  H
  C135     1.0000 0.67290  0.76700  0.94370  Biso   1.000  C
  H99      1.0000 0.66620  0.75100  0.91980  Biso   1.000  H
  N19      1.0000 0.04455  0.27840  0.40900  Biso   1.000  N
  C136     1.0000 0.08493  0.26565  0.41780  Biso   1.000  C
  H100     1.0000 0.09740  0.24040  0.40900  Biso   1.000  H
  N20      1.0000 0.10376  0.29640  0.44160  Biso   1.000  N
  C137     1.0000 0.07500  0.32810  0.44760  Biso   1.000  C
  H101     1.0000 0.07960  0.35300  0.46280  Biso   1.000  H
  C138     1.0000 0.03843  0.31700  0.42750  Biso   1.000  C
  H102     1.0000 0.01370  0.33300  0.42650  Biso   1.000  H
  C139     1.0000 0.14990  0.29680  0.45320  Biso   1.000  C
  C140     1.0000 0.16980  0.33460  0.46350  Biso   1.000  C
  H103     1.0000 0.15590  0.36030  0.45920  Biso   1.000  H
  C141     1.0000 0.21050  0.33420  0.48020  Biso   1.000  C
  H104     1.0000 0.22390  0.35960  0.48720  Biso   1.000  H
  C142     1.0000 0.23120  0.29600  0.48660  Biso   1.000  C
  C143     1.0000 0.21130  0.25810  0.47630  Biso   1.000  C
  H105     1.0000 0.22530  0.23250  0.48060  Biso   1.000  H
  C144     1.0000 0.17070  0.25860  0.45960  Biso   1.000  C
  H106     1.0000 0.15730  0.23320  0.45270  Biso   1.000  H
  C145     1.0000 0.14230  0.29230  0.46240  Biso   1.000  C
  C146     1.0000 0.15220  0.31620  0.49790  Biso   1.000  C
  H107     1.0000 0.13160  0.33320  0.51050  Biso   1.000  H
  C147     1.0000 0.19270  0.31460  0.51480  Biso   1.000  C
  H108     1.0000 0.19940  0.33060  0.53870  Biso   1.000  H
  C148     1.0000 0.22340  0.28930  0.49610  Biso   1.000  C
  C149     1.0000 0.21340  0.26540  0.46050  Biso   1.000  C
  H109     1.0000 0.23400  0.24840  0.44800  Biso   1.000  H
  C150     1.0000 0.17290  0.26700  0.44370  Biso   1.000  C
  H110     1.0000 0.16620  0.25100  0.41980  Biso   1.000  H
  N21      1.0000 0.95545  0.22160  0.40900  Biso   1.000  N
  C151     1.0000 0.91507  0.23435  0.41780  Biso   1.000  C
  H111     1.0000 0.90260  0.25960  0.40900  Biso   1.000  H
  N22      1.0000 0.89624  0.20360  0.44160  Biso   1.000  N
  C152     1.0000 0.92500  0.17190  0.44760  Biso   1.000  C
  H112     1.0000 0.92040  0.14700  0.46280  Biso   1.000  H
  C153     1.0000 0.96157  0.18300  0.42750  Biso   1.000  C
  H113     1.0000 0.98630  0.16700  0.42650  Biso   1.000  H
  C154     1.0000 0.85010  0.20320  0.45320  Biso   1.000  C
  C155     1.0000 0.83020  0.16540  0.46350  Biso   1.000  C
  H114     1.0000 0.84410  0.13970  0.45920  Biso   1.000  H
  C156     1.0000 0.78950  0.16580  0.48020  Biso   1.000  C
  H115     1.0000 0.77610  0.14040  0.48720  Biso   1.000  H
  C157     1.0000 0.76880  0.20400  0.48660  Biso   1.000  C
  C158     1.0000 0.78870  0.24190  0.47630  Biso   1.000  C
  H116     1.0000 0.77470  0.26750  0.48060  Biso   1.000  H
  C159     1.0000 0.82930  0.24140  0.45960  Biso   1.000  C
  H117     1.0000 0.84270  0.26680  0.45270  Biso   1.000  H
  C160     1.0000 0.85770  0.20770  0.46240  Biso   1.000  C
  C161     1.0000 0.84780  0.18380  0.49790  Biso   1.000  C
  H118     1.0000 0.86840  0.16680  0.51050  Biso   1.000  H
  C162     1.0000 0.80730  0.18540  0.51480  Biso   1.000  C
  H119     1.0000 0.80060  0.16940  0.53870  Biso   1.000  H
  C163     1.0000 0.77660  0.21070  0.49610  Biso   1.000  C
  C164     1.0000 0.78660  0.23460  0.46050  Biso   1.000  C
  H120     1.0000 0.76600  0.25160  0.44800  Biso   1.000  H
  C165     1.0000 0.82710  0.23300  0.44370  Biso   1.000  C
  H121     1.0000 0.83380  0.24900  0.41980  Biso   1.000  H
  N23      1.0000 0.45545  0.72160  0.90900  Biso   1.000  N
  C166     1.0000 0.41507  0.73435  0.91780  Biso   1.000  C
  H122     1.0000 0.40260  0.75960  0.90900  Biso   1.000  H
  N24      1.0000 0.39624  0.70360  0.94160  Biso   1.000  N
  C167     1.0000 0.42500  0.67190  0.94760  Biso   1.000  C
  H123     1.0000 0.42040  0.64700  0.96280  Biso   1.000  H
  C168     1.0000 0.46157  0.68300  0.92750  Biso   1.000  C
  H124     1.0000 0.48630  0.66700  0.92650  Biso   1.000  H
  C169     1.0000 0.35010  0.70320  0.95320  Biso   1.000  C
  C170     1.0000 0.33020  0.66540  0.96350  Biso   1.000  C
  H125     1.0000 0.34410  0.63970  0.95920  Biso   1.000  H
  C171     1.0000 0.28950  0.66580  0.98020  Biso   1.000  C
  H126     1.0000 0.27610  0.64040  0.98720  Biso   1.000  H
  C172     1.0000 0.26880  0.70400  0.98660  Biso   1.000  C
  C173     1.0000 0.28870  0.74190  0.97630  Biso   1.000  C
  H127     1.0000 0.27470  0.76750  0.98060  Biso   1.000  H
  C174     1.0000 0.32930  0.74140  0.95960  Biso   1.000  C
  H128     1.0000 0.34270  0.76680  0.95270  Biso   1.000  H
  C175     1.0000 0.35770  0.70770  0.96240  Biso   1.000  C
  C176     1.0000 0.34780  0.68380  0.99790  Biso   1.000  C
  H129     1.0000 0.36840  0.66680  0.01050  Biso   1.000  H
  C177     1.0000 0.30730  0.68540  0.01480  Biso   1.000  C
  H130     1.0000 0.30060  0.66940  0.03870  Biso   1.000  H
  C178     1.0000 0.27660  0.71070  0.99610  Biso   1.000  C
  C179     1.0000 0.28660  0.73460  0.96050  Biso   1.000  C
  H131     1.0000 0.26600  0.75160  0.94800  Biso   1.000  H
  C180     1.0000 0.32710  0.73300  0.94370  Biso   1.000  C
  H132     1.0000 0.33380  0.74900  0.91980  Biso   1.000  H
  N25      1.0000 0.04455  0.72160  0.09100  Biso   1.000  N
  C181     1.0000 0.08493  0.73435  0.08220  Biso   1.000  C
  H133     1.0000 0.09740  0.75960  0.09100  Biso   1.000  H
  N26      1.0000 0.10376  0.70360  0.05840  Biso   1.000  N
  C182     1.0000 0.07500  0.67190  0.05240  Biso   1.000  C
  H134     1.0000 0.07960  0.64700  0.03720  Biso   1.000  H
  C183     1.0000 0.03843  0.68300  0.07250  Biso   1.000  C
  H135     1.0000 0.01370  0.66700  0.07350  Biso   1.000  H
  C184     1.0000 0.14990  0.70320  0.04680  Biso   1.000  C
  C185     1.0000 0.16980  0.66540  0.03650  Biso   1.000  C
  H136     1.0000 0.15590  0.63970  0.04080  Biso   1.000  H
  C186     1.0000 0.21050  0.66580  0.01980  Biso   1.000  C
  H137     1.0000 0.22390  0.64040  0.01280  Biso   1.000  H
  C187     1.0000 0.23120  0.70400  0.01340  Biso   1.000  C
  C188     1.0000 0.21130  0.74190  0.02370  Biso   1.000  C
  H138     1.0000 0.22530  0.76750  0.01940  Biso   1.000  H
  C189     1.0000 0.17070  0.74140  0.04040  Biso   1.000  C
  H139     1.0000 0.15730  0.76680  0.04730  Biso   1.000  H
  C190     1.0000 0.14230  0.70770  0.03760  Biso   1.000  C
  C191     1.0000 0.15220  0.68380  0.00210  Biso   1.000  C
  H140     1.0000 0.13160  0.66680  0.98950  Biso   1.000  H
  C192     1.0000 0.19270  0.68540  0.98520  Biso   1.000  C
  H141     1.0000 0.19940  0.66940  0.96130  Biso   1.000  H
  C193     1.0000 0.22340  0.71070  0.00390  Biso   1.000  C
  C194     1.0000 0.21340  0.73460  0.03950  Biso   1.000  C
  H142     1.0000 0.23400  0.75160  0.05200  Biso   1.000  H
  C195     1.0000 0.17290  0.73300  0.05630  Biso   1.000  C
  H143     1.0000 0.16620  0.74900  0.08020  Biso   1.000  H
  N27      1.0000 0.54455  0.22160  0.59100  Biso   1.000  N
  C196     1.0000 0.58493  0.23435  0.58220  Biso   1.000  C
  H144     1.0000 0.59740  0.25960  0.59100  Biso   1.000  H
  N28      1.0000 0.60376  0.20360  0.55840  Biso   1.000  N
  C197     1.0000 0.57500  0.17190  0.55240  Biso   1.000  C
  H145     1.0000 0.57960  0.14700  0.53720  Biso   1.000  H
  C198     1.0000 0.53843  0.18300  0.57250  Biso   1.000  C
  H146     1.0000 0.51370  0.16700  0.57350  Biso   1.000  H
  C199     1.0000 0.64990  0.20320  0.54680  Biso   1.000  C
  C200     1.0000 0.66980  0.16540  0.53650  Biso   1.000  C
  H147     1.0000 0.65590  0.13970  0.54080  Biso   1.000  H
  C201     1.0000 0.71050  0.16580  0.51980  Biso   1.000  C
  H148     1.0000 0.72390  0.14040  0.51280  Biso   1.000  H
  C202     1.0000 0.73120  0.20400  0.51340  Biso   1.000  C
  C203     1.0000 0.71130  0.24190  0.52370  Biso   1.000  C
  H149     1.0000 0.72530  0.26750  0.51940  Biso   1.000  H
  C204     1.0000 0.67070  0.24140  0.54040  Biso   1.000  C
  H150     1.0000 0.65730  0.26680  0.54730  Biso   1.000  H
  C205     1.0000 0.64230  0.20770  0.53760  Biso   1.000  C
  C206     1.0000 0.65220  0.18380  0.50210  Biso   1.000  C
  H151     1.0000 0.63160  0.16680  0.48950  Biso   1.000  H
  C207     1.0000 0.69270  0.18540  0.48520  Biso   1.000  C
  H152     1.0000 0.69940  0.16940  0.46130  Biso   1.000  H
  C208     1.0000 0.72340  0.21070  0.50390  Biso   1.000  C
  C209     1.0000 0.71340  0.23460  0.53950  Biso   1.000  C
  H153     1.0000 0.73400  0.25160  0.55200  Biso   1.000  H
  C210     1.0000 0.67290  0.23300  0.55630  Biso   1.000  C
  H154     1.0000 0.66620  0.24900  0.58020  Biso   1.000  H
  N29      1.0000 0.45545  0.27840  0.59100  Biso   1.000  N
  C211     1.0000 0.41507  0.26565  0.58220  Biso   1.000  C
  H155     1.0000 0.40260  0.24040  0.59100  Biso   1.000  H
  N30      1.0000 0.39624  0.29640  0.55840  Biso   1.000  N
  C212     1.0000 0.42500  0.32810  0.55240  Biso   1.000  C
  H156     1.0000 0.42040  0.35300  0.53720  Biso   1.000  H
  C213     1.0000 0.46157  0.31700  0.57250  Biso   1.000  C
  H157     1.0000 0.48630  0.33300  0.57350  Biso   1.000  H
  C214     1.0000 0.35010  0.29680  0.54680  Biso   1.000  C
  C215     1.0000 0.33020  0.33460  0.53650  Biso   1.000  C
  H158     1.0000 0.34410  0.36030  0.54080  Biso   1.000  H
  C216     1.0000 0.28950  0.33420  0.51980  Biso   1.000  C
  H159     1.0000 0.27610  0.35960  0.51280  Biso   1.000  H
  C217     1.0000 0.26880  0.29600  0.51340  Biso   1.000  C
  C218     1.0000 0.28870  0.25810  0.52370  Biso   1.000  C
  H160     1.0000 0.27470  0.23250  0.51940  Biso   1.000  H
  C219     1.0000 0.32930  0.25860  0.54040  Biso   1.000  C
  H161     1.0000 0.34270  0.23320  0.54730  Biso   1.000  H
  C220     1.0000 0.35770  0.29230  0.53760  Biso   1.000  C
  C221     1.0000 0.34780  0.31620  0.50210  Biso   1.000  C
  H162     1.0000 0.36840  0.33320  0.48950  Biso   1.000  H
  C222     1.0000 0.30730  0.31460  0.48520  Biso   1.000  C
  H163     1.0000 0.30060  0.33060  0.46130  Biso   1.000  H
  C223     1.0000 0.27660  0.28930  0.50390  Biso   1.000  C
  C224     1.0000 0.28660  0.26540  0.53950  Biso   1.000  C
  H164     1.0000 0.26600  0.24840  0.55200  Biso   1.000  H
  C225     1.0000 0.32710  0.26700  0.55630  Biso   1.000  C
  H165     1.0000 0.33380  0.25100  0.58020  Biso   1.000  H
  N31      1.0000 0.95545  0.77840  0.09100  Biso   1.000  N
  C226     1.0000 0.91507  0.76565  0.08220  Biso   1.000  C
  H166     1.0000 0.90260  0.74040  0.09100  Biso   1.000  H
  N32      1.0000 0.89624  0.79640  0.05840  Biso   1.000  N
  C227     1.0000 0.92500  0.82810  0.05240  Biso   1.000  C
  H167     1.0000 0.92040  0.85300  0.03720  Biso   1.000  H
  C228     1.0000 0.96157  0.81700  0.07250  Biso   1.000  C
  H168     1.0000 0.98630  0.83300  0.07350  Biso   1.000  H
  C229     1.0000 0.85010  0.79680  0.04680  Biso   1.000  C
  C230     1.0000 0.83020  0.83460  0.03650  Biso   1.000  C
  H169     1.0000 0.84410  0.86030  0.04080  Biso   1.000  H
  C231     1.0000 0.78950  0.83420  0.01980  Biso   1.000  C
  H170     1.0000 0.77610  0.85960  0.01280  Biso   1.000  H
  C232     1.0000 0.76880  0.79600  0.01340  Biso   1.000  C
  C233     1.0000 0.78870  0.75810  0.02370  Biso   1.000  C
  H171     1.0000 0.77470  0.73250  0.01940  Biso   1.000  H
  C234     1.0000 0.82930  0.75860  0.04040  Biso   1.000  C
  H172     1.0000 0.84270  0.73320  0.04730  Biso   1.000  H
  C235     1.0000 0.85770  0.79230  0.03760  Biso   1.000  C
  C236     1.0000 0.84780  0.81620  0.00210  Biso   1.000  C
  H173     1.0000 0.86840  0.83320  0.98950  Biso   1.000  H
  C237     1.0000 0.80730  0.81460  0.98520  Biso   1.000  C
  H174     1.0000 0.80060  0.83060  0.96130  Biso   1.000  H
  C238     1.0000 0.77660  0.78930  0.00390  Biso   1.000  C
  C239     1.0000 0.78660  0.76540  0.03950  Biso   1.000  C
  H175     1.0000 0.76600  0.74840  0.05200  Biso   1.000  H
  C240     1.0000 0.82710  0.76700  0.05630  Biso   1.000  C
  H176     1.0000 0.83380  0.75100  0.08020  Biso   1.000  H
  Zn1      1.0000 0.00000  0.75000  0.12500  Biso   1.000  Zn
  Zn2      1.0000 0.50000  0.25000  0.62500  Biso   1.000  Zn
  Zn3      1.0000 0.00000  0.25000  0.37500  Biso   1.000  Zn
  Zn4      1.0000 0.50000  0.75000  0.87500  Biso   1.000  Zn
  N33      1.0000 0.15900  0.97160  0.70545  Biso   1.000  N
  C241     1.0000 0.16780  0.98435  0.66507  Biso   1.000  C
  H177     1.0000 0.15900  0.00960  0.65260  Biso   1.000  H
  N34      1.0000 0.19160  0.95360  0.64624  Biso   1.000  N
  C242     1.0000 0.19760  0.92190  0.67500  Biso   1.000  C
  H178     1.0000 0.21280  0.89700  0.67040  Biso   1.000  H
  C243     1.0000 0.17750  0.93300  0.71157  Biso   1.000  C
  H179     1.0000 0.17650  0.91700  0.73630  Biso   1.000  H
  C244     1.0000 0.20320  0.95320  0.60010  Biso   1.000  C
  C245     1.0000 0.21350  0.91540  0.58020  Biso   1.000  C
  H180     1.0000 0.20920  0.88970  0.59410  Biso   1.000  H
  C246     1.0000 0.23020  0.91580  0.53950  Biso   1.000  C
  H181     1.0000 0.23720  0.89040  0.52610  Biso   1.000  H
  C247     1.0000 0.23660  0.95400  0.51880  Biso   1.000  C
  C248     1.0000 0.22630  0.99190  0.53870  Biso   1.000  C
  H182     1.0000 0.23060  0.01750  0.52470  Biso   1.000  H
  C249     1.0000 0.20960  0.99140  0.57930  Biso   1.000  C
  H183     1.0000 0.20270  0.01680  0.59270  Biso   1.000  H
  C250     1.0000 0.21240  0.95770  0.60770  Biso   1.000  C
  C251     1.0000 0.24790  0.93380  0.59780  Biso   1.000  C
  H184     1.0000 0.26050  0.91680  0.61840  Biso   1.000  H
  C252     1.0000 0.26480  0.93540  0.55730  Biso   1.000  C
  H185     1.0000 0.28870  0.91940  0.55060  Biso   1.000  H
  C253     1.0000 0.24610  0.96070  0.52660  Biso   1.000  C
  C254     1.0000 0.21050  0.98460  0.53660  Biso   1.000  C
  H186     1.0000 0.19800  0.00160  0.51600  Biso   1.000  H
  C255     1.0000 0.19370  0.98300  0.57710  Biso   1.000  C
  H187     1.0000 0.16980  0.99900  0.58380  Biso   1.000  H
  N35      1.0000 0.65900  0.47160  0.20545  Biso   1.000  N
  C256     1.0000 0.66780  0.48435  0.16507  Biso   1.000  C
  H188     1.0000 0.65900  0.50960  0.15260  Biso   1.000  H
  N36      1.0000 0.69160  0.45360  0.14624  Biso   1.000  N
  C257     1.0000 0.69760  0.42190  0.17500  Biso   1.000  C
  H189     1.0000 0.71280  0.39700  0.17040  Biso   1.000  H
  C258     1.0000 0.67750  0.43300  0.21157  Biso   1.000  C
  H190     1.0000 0.67650  0.41700  0.23630  Biso   1.000  H
  C259     1.0000 0.70320  0.45320  0.10010  Biso   1.000  C
  C260     1.0000 0.71350  0.41540  0.08020  Biso   1.000  C
  H191     1.0000 0.70920  0.38970  0.09410  Biso   1.000  H
  C261     1.0000 0.73020  0.41580  0.03950  Biso   1.000  C
  H192     1.0000 0.73720  0.39040  0.02610  Biso   1.000  H
  C262     1.0000 0.73660  0.45400  0.01880  Biso   1.000  C
  C263     1.0000 0.72630  0.49190  0.03870  Biso   1.000  C
  H193     1.0000 0.73060  0.51750  0.02470  Biso   1.000  H
  C264     1.0000 0.70960  0.49140  0.07930  Biso   1.000  C
  H194     1.0000 0.70270  0.51680  0.09270  Biso   1.000  H
  C265     1.0000 0.71240  0.45770  0.10770  Biso   1.000  C
  C266     1.0000 0.74790  0.43380  0.09780  Biso   1.000  C
  H195     1.0000 0.76050  0.41680  0.11840  Biso   1.000  H
  C267     1.0000 0.76480  0.43540  0.05730  Biso   1.000  C
  H196     1.0000 0.78870  0.41940  0.05060  Biso   1.000  H
  C268     1.0000 0.74610  0.46070  0.02660  Biso   1.000  C
  C269     1.0000 0.71050  0.48460  0.03660  Biso   1.000  C
  H197     1.0000 0.69800  0.50160  0.01600  Biso   1.000  H
  C270     1.0000 0.69370  0.48300  0.07710  Biso   1.000  C
  H198     1.0000 0.66980  0.49900  0.08380  Biso   1.000  H
  N37      1.0000 0.65900  0.52840  0.29455  Biso   1.000  N
  C271     1.0000 0.66780  0.51565  0.33493  Biso   1.000  C
  H199     1.0000 0.65900  0.49040  0.34740  Biso   1.000  H
  N38      1.0000 0.69160  0.54640  0.35376  Biso   1.000  N
  C272     1.0000 0.69760  0.57810  0.32500  Biso   1.000  C
  H200     1.0000 0.71280  0.60300  0.32960  Biso   1.000  H
  C273     1.0000 0.67750  0.56700  0.28843  Biso   1.000  C
  H201     1.0000 0.67650  0.58300  0.26370  Biso   1.000  H
  C274     1.0000 0.70320  0.54680  0.39990  Biso   1.000  C
  C275     1.0000 0.71350  0.58460  0.41980  Biso   1.000  C
  H202     1.0000 0.70920  0.61030  0.40590  Biso   1.000  H
  C276     1.0000 0.73020  0.58420  0.46050  Biso   1.000  C
  H203     1.0000 0.73720  0.60960  0.47390  Biso   1.000  H
  C277     1.0000 0.73660  0.54600  0.48120  Biso   1.000  C
  C278     1.0000 0.72630  0.50810  0.46130  Biso   1.000  C
  H204     1.0000 0.73060  0.48250  0.47530  Biso   1.000  H
  C279     1.0000 0.70960  0.50860  0.42070  Biso   1.000  C
  H205     1.0000 0.70270  0.48320  0.40730  Biso   1.000  H
  C280     1.0000 0.71240  0.54230  0.39230  Biso   1.000  C
  C281     1.0000 0.74790  0.56620  0.40220  Biso   1.000  C
  H206     1.0000 0.76050  0.58320  0.38160  Biso   1.000  H
  C282     1.0000 0.76480  0.56460  0.44270  Biso   1.000  C
  H207     1.0000 0.78870  0.58060  0.44940  Biso   1.000  H
  C283     1.0000 0.74610  0.53930  0.47340  Biso   1.000  C
  C284     1.0000 0.71050  0.51540  0.46340  Biso   1.000  C
  H208     1.0000 0.69800  0.49840  0.48400  Biso   1.000  H
  C285     1.0000 0.69370  0.51700  0.42290  Biso   1.000  C
  H209     1.0000 0.66980  0.50100  0.41620  Biso   1.000  H
  N39      1.0000 0.15900  0.02840  0.79455  Biso   1.000  N
  C286     1.0000 0.16780  0.01565  0.83493  Biso   1.000  C
  H210     1.0000 0.15900  0.99040  0.84740  Biso   1.000  H
  N40      1.0000 0.19160  0.04640  0.85376  Biso   1.000  N
  C287     1.0000 0.19760  0.07810  0.82500  Biso   1.000  C
  H211     1.0000 0.21280  0.10300  0.82960  Biso   1.000  H
  C288     1.0000 0.17750  0.06700  0.78843  Biso   1.000  C
  H212     1.0000 0.17650  0.08300  0.76370  Biso   1.000  H
  C289     1.0000 0.20320  0.04680  0.89990  Biso   1.000  C
  C290     1.0000 0.21350  0.08460  0.91980  Biso   1.000  C
  H213     1.0000 0.20920  0.11030  0.90590  Biso   1.000  H
  C291     1.0000 0.23020  0.08420  0.96050  Biso   1.000  C
  H214     1.0000 0.23720  0.10960  0.97390  Biso   1.000  H
  C292     1.0000 0.23660  0.04600  0.98120  Biso   1.000  C
  C293     1.0000 0.22630  0.00810  0.96130  Biso   1.000  C
  H215     1.0000 0.23060  0.98250  0.97530  Biso   1.000  H
  C294     1.0000 0.20960  0.00860  0.92070  Biso   1.000  C
  H216     1.0000 0.20270  0.98320  0.90730  Biso   1.000  H
  C295     1.0000 0.21240  0.04230  0.89230  Biso   1.000  C
  C296     1.0000 0.24790  0.06620  0.90220  Biso   1.000  C
  H217     1.0000 0.26050  0.08320  0.88160  Biso   1.000  H
  C297     1.0000 0.26480  0.06460  0.94270  Biso   1.000  C
  H218     1.0000 0.28870  0.08060  0.94940  Biso   1.000  H
  C298     1.0000 0.24610  0.03930  0.97340  Biso   1.000  C
  C299     1.0000 0.21050  0.01540  0.96340  Biso   1.000  C
  H219     1.0000 0.19800  0.99840  0.98400  Biso   1.000  H
  C300     1.0000 0.19370  0.01700  0.92290  Biso   1.000  C
  H220     1.0000 0.16980  0.00100  0.91620  Biso   1.000  H
  N41      1.0000 0.34100  0.02840  0.20545  Biso   1.000  N
  C301     1.0000 0.33220  0.01565  0.16507  Biso   1.000  C
  H221     1.0000 0.34100  0.99040  0.15260  Biso   1.000  H
  N42      1.0000 0.30840  0.04640  0.14624  Biso   1.000  N
  C302     1.0000 0.30240  0.07810  0.17500  Biso   1.000  C
  H222     1.0000 0.28720  0.10300  0.17040  Biso   1.000  H
  C303     1.0000 0.32250  0.06700  0.21157  Biso   1.000  C
  H223     1.0000 0.32350  0.08300  0.23630  Biso   1.000  H
  C304     1.0000 0.29680  0.04680  0.10010  Biso   1.000  C
  C305     1.0000 0.28650  0.08460  0.08020  Biso   1.000  C
  H224     1.0000 0.29080  0.11030  0.09410  Biso   1.000  H
  C306     1.0000 0.26980  0.08420  0.03950  Biso   1.000  C
  H225     1.0000 0.26280  0.10960  0.02610  Biso   1.000  H
  C307     1.0000 0.26340  0.04600  0.01880  Biso   1.000  C
  C308     1.0000 0.27370  0.00810  0.03870  Biso   1.000  C
  H226     1.0000 0.26940  0.98250  0.02470  Biso   1.000  H
  C309     1.0000 0.29040  0.00860  0.07930  Biso   1.000  C
  H227     1.0000 0.29730  0.98320  0.09270  Biso   1.000  H
  C310     1.0000 0.28760  0.04230  0.10770  Biso   1.000  C
  C311     1.0000 0.25210  0.06620  0.09780  Biso   1.000  C
  H228     1.0000 0.23950  0.08320  0.11840  Biso   1.000  H
  C312     1.0000 0.23520  0.06460  0.05730  Biso   1.000  C
  H229     1.0000 0.21130  0.08060  0.05060  Biso   1.000  H
  C313     1.0000 0.25390  0.03930  0.02660  Biso   1.000  C
  C314     1.0000 0.28950  0.01540  0.03660  Biso   1.000  C
  H230     1.0000 0.30200  0.99840  0.01600  Biso   1.000  H
  C315     1.0000 0.30630  0.01700  0.07710  Biso   1.000  C
  H231     1.0000 0.33020  0.00100  0.08380  Biso   1.000  H
  N43      1.0000 0.84100  0.52840  0.70545  Biso   1.000  N
  C316     1.0000 0.83220  0.51565  0.66507  Biso   1.000  C
  H232     1.0000 0.84100  0.49040  0.65260  Biso   1.000  H
  N44      1.0000 0.80840  0.54640  0.64624  Biso   1.000  N
  C317     1.0000 0.80240  0.57810  0.67500  Biso   1.000  C
  H233     1.0000 0.78720  0.60300  0.67040  Biso   1.000  H
  C318     1.0000 0.82250  0.56700  0.71157  Biso   1.000  C
  H234     1.0000 0.82350  0.58300  0.73630  Biso   1.000  H
  C319     1.0000 0.79680  0.54680  0.60010  Biso   1.000  C
  C320     1.0000 0.78650  0.58460  0.58020  Biso   1.000  C
  H235     1.0000 0.79080  0.61030  0.59410  Biso   1.000  H
  C321     1.0000 0.76980  0.58420  0.53950  Biso   1.000  C
  H236     1.0000 0.76280  0.60960  0.52610  Biso   1.000  H
  C322     1.0000 0.76340  0.54600  0.51880  Biso   1.000  C
  C323     1.0000 0.77370  0.50810  0.53870  Biso   1.000  C
  H237     1.0000 0.76940  0.48250  0.52470  Biso   1.000  H
  C324     1.0000 0.79040  0.50860  0.57930  Biso   1.000  C
  H238     1.0000 0.79730  0.48320  0.59270  Biso   1.000  H
  C325     1.0000 0.78760  0.54230  0.60770  Biso   1.000  C
  C326     1.0000 0.75210  0.56620  0.59780  Biso   1.000  C
  H239     1.0000 0.73950  0.58320  0.61840  Biso   1.000  H
  C327     1.0000 0.73520  0.56460  0.55730  Biso   1.000  C
  H240     1.0000 0.71130  0.58060  0.55060  Biso   1.000  H
  C328     1.0000 0.75390  0.53930  0.52660  Biso   1.000  C
  C329     1.0000 0.78950  0.51540  0.53660  Biso   1.000  C
  H241     1.0000 0.80200  0.49840  0.51600  Biso   1.000  H
  C330     1.0000 0.80630  0.51700  0.57710  Biso   1.000  C
  H242     1.0000 0.83020  0.50100  0.58380  Biso   1.000  H
  N45      1.0000 0.84100  0.47160  0.79455  Biso   1.000  N
  C331     1.0000 0.83220  0.48435  0.83493  Biso   1.000  C
  H243     1.0000 0.84100  0.50960  0.84740  Biso   1.000  H
  N46      1.0000 0.80840  0.45360  0.85376  Biso   1.000  N
  C332     1.0000 0.80240  0.42190  0.82500  Biso   1.000  C
  H244     1.0000 0.78720  0.39700  0.82960  Biso   1.000  H
  C333     1.0000 0.82250  0.43300  0.78843  Biso   1.000  C
  H245     1.0000 0.82350  0.41700  0.76370  Biso   1.000  H
  C334     1.0000 0.79680  0.45320  0.89990  Biso   1.000  C
  C335     1.0000 0.78650  0.41540  0.91980  Biso   1.000  C
  H246     1.0000 0.79080  0.38970  0.90590  Biso   1.000  H
  C336     1.0000 0.76980  0.41580  0.96050  Biso   1.000  C
  H247     1.0000 0.76280  0.39040  0.97390  Biso   1.000  H
  C337     1.0000 0.76340  0.45400  0.98120  Biso   1.000  C
  C338     1.0000 0.77370  0.49190  0.96130  Biso   1.000  C
  H248     1.0000 0.76940  0.51750  0.97530  Biso   1.000  H
  C339     1.0000 0.79040  0.49140  0.92070  Biso   1.000  C
  H249     1.0000 0.79730  0.51680  0.90730  Biso   1.000  H
  C340     1.0000 0.78760  0.45770  0.89230  Biso   1.000  C
  C341     1.0000 0.75210  0.43380  0.90220  Biso   1.000  C
  H250     1.0000 0.73950  0.41680  0.88160  Biso   1.000  H
  C342     1.0000 0.73520  0.43540  0.94270  Biso   1.000  C
  H251     1.0000 0.71130  0.41940  0.94940  Biso   1.000  H
  C343     1.0000 0.75390  0.46070  0.97340  Biso   1.000  C
  C344     1.0000 0.78950  0.48460  0.96340  Biso   1.000  C
  H252     1.0000 0.80200  0.50160  0.98400  Biso   1.000  H
  C345     1.0000 0.80630  0.48300  0.92290  Biso   1.000  C
  H253     1.0000 0.83020  0.49900  0.91620  Biso   1.000  H
  N47      1.0000 0.34100  0.97160  0.29455  Biso   1.000  N
  C346     1.0000 0.33220  0.98435  0.33493  Biso   1.000  C
  H254     1.0000 0.34100  0.00960  0.34740  Biso   1.000  H
  N48      1.0000 0.30840  0.95360  0.35376  Biso   1.000  N
  C347     1.0000 0.30240  0.92190  0.32500  Biso   1.000  C
  H255     1.0000 0.28720  0.89700  0.32960  Biso   1.000  H
  C348     1.0000 0.32250  0.93300  0.28843  Biso   1.000  C
  H256     1.0000 0.32350  0.91700  0.26370  Biso   1.000  H
  C349     1.0000 0.29680  0.95320  0.39990  Biso   1.000  C
  C350     1.0000 0.28650  0.91540  0.41980  Biso   1.000  C
  H257     1.0000 0.29080  0.88970  0.40590  Biso   1.000  H
  C351     1.0000 0.26980  0.91580  0.46050  Biso   1.000  C
  H258     1.0000 0.26280  0.89040  0.47390  Biso   1.000  H
  C352     1.0000 0.26340  0.95400  0.48120  Biso   1.000  C
  C353     1.0000 0.27370  0.99190  0.46130  Biso   1.000  C
  H259     1.0000 0.26940  0.01750  0.47530  Biso   1.000  H
  C354     1.0000 0.29040  0.99140  0.42070  Biso   1.000  C
  H260     1.0000 0.29730  0.01680  0.40730  Biso   1.000  H
  C355     1.0000 0.28760  0.95770  0.39230  Biso   1.000  C
  C356     1.0000 0.25210  0.93380  0.40220  Biso   1.000  C
  H261     1.0000 0.23950  0.91680  0.38160  Biso   1.000  H
  C357     1.0000 0.23520  0.93540  0.44270  Biso   1.000  C
  H262     1.0000 0.21130  0.91940  0.44940  Biso   1.000  H
  C358     1.0000 0.25390  0.96070  0.47340  Biso   1.000  C
  C359     1.0000 0.28950  0.98460  0.46340  Biso   1.000  C
  H263     1.0000 0.30200  0.00160  0.48400  Biso   1.000  H
  C360     1.0000 0.30630  0.98300  0.42290  Biso   1.000  C
  H264     1.0000 0.33020  0.99900  0.41620  Biso   1.000  H
  N49      1.0000 0.09100  0.04455  0.72160  Biso   1.000  N
  C361     1.0000 0.08220  0.08493  0.73435  Biso   1.000  C
  H265     1.0000 0.09100  0.09740  0.75960  Biso   1.000  H
  N50      1.0000 0.05840  0.10376  0.70360  Biso   1.000  N
  C362     1.0000 0.05240  0.07500  0.67190  Biso   1.000  C
  H266     1.0000 0.03720  0.07960  0.64700  Biso   1.000  H
  C363     1.0000 0.07250  0.03843  0.68300  Biso   1.000  C
  H267     1.0000 0.07350  0.01370  0.66700  Biso   1.000  H
  C364     1.0000 0.04680  0.14990  0.70320  Biso   1.000  C
  C365     1.0000 0.03650  0.16980  0.66540  Biso   1.000  C
  H268     1.0000 0.04080  0.15590  0.63970  Biso   1.000  H
  C366     1.0000 0.01980  0.21050  0.66580  Biso   1.000  C
  H269     1.0000 0.01280  0.22390  0.64040  Biso   1.000  H
  C367     1.0000 0.01340  0.23120  0.70400  Biso   1.000  C
  C368     1.0000 0.02370  0.21130  0.74190  Biso   1.000  C
  H270     1.0000 0.01940  0.22530  0.76750  Biso   1.000  H
  C369     1.0000 0.04040  0.17070  0.74140  Biso   1.000  C
  H271     1.0000 0.04730  0.15730  0.76680  Biso   1.000  H
  C370     1.0000 0.03760  0.14230  0.70770  Biso   1.000  C
  C371     1.0000 0.00210  0.15220  0.68380  Biso   1.000  C
  H272     1.0000 0.98950  0.13160  0.66680  Biso   1.000  H
  C372     1.0000 0.98520  0.19270  0.68540  Biso   1.000  C
  H273     1.0000 0.96130  0.19940  0.66940  Biso   1.000  H
  C373     1.0000 0.00390  0.22340  0.71070  Biso   1.000  C
  C374     1.0000 0.03950  0.21340  0.73460  Biso   1.000  C
  H274     1.0000 0.05200  0.23400  0.75160  Biso   1.000  H
  C375     1.0000 0.05630  0.17290  0.73300  Biso   1.000  C
  H275     1.0000 0.08020  0.16620  0.74900  Biso   1.000  H
  N51      1.0000 0.59100  0.54455  0.22160  Biso   1.000  N
  C376     1.0000 0.58220  0.58493  0.23435  Biso   1.000  C
  H276     1.0000 0.59100  0.59740  0.25960  Biso   1.000  H
  N52      1.0000 0.55840  0.60376  0.20360  Biso   1.000  N
  C377     1.0000 0.55240  0.57500  0.17190  Biso   1.000  C
  H277     1.0000 0.53720  0.57960  0.14700  Biso   1.000  H
  C378     1.0000 0.57250  0.53843  0.18300  Biso   1.000  C
  H278     1.0000 0.57350  0.51370  0.16700  Biso   1.000  H
  C379     1.0000 0.54680  0.64990  0.20320  Biso   1.000  C
  C380     1.0000 0.53650  0.66980  0.16540  Biso   1.000  C
  H279     1.0000 0.54080  0.65590  0.13970  Biso   1.000  H
  C381     1.0000 0.51980  0.71050  0.16580  Biso   1.000  C
  H280     1.0000 0.51280  0.72390  0.14040  Biso   1.000  H
  C382     1.0000 0.51340  0.73120  0.20400  Biso   1.000  C
  C383     1.0000 0.52370  0.71130  0.24190  Biso   1.000  C
  H281     1.0000 0.51940  0.72530  0.26750  Biso   1.000  H
  C384     1.0000 0.54040  0.67070  0.24140  Biso   1.000  C
  H282     1.0000 0.54730  0.65730  0.26680  Biso   1.000  H
  C385     1.0000 0.53760  0.64230  0.20770  Biso   1.000  C
  C386     1.0000 0.50210  0.65220  0.18380  Biso   1.000  C
  H283     1.0000 0.48950  0.63160  0.16680  Biso   1.000  H
  C387     1.0000 0.48520  0.69270  0.18540  Biso   1.000  C
  H284     1.0000 0.46130  0.69940  0.16940  Biso   1.000  H
  C388     1.0000 0.50390  0.72340  0.21070  Biso   1.000  C
  C389     1.0000 0.53950  0.71340  0.23460  Biso   1.000  C
  H285     1.0000 0.55200  0.73400  0.25160  Biso   1.000  H
  C390     1.0000 0.55630  0.67290  0.23300  Biso   1.000  C
  H286     1.0000 0.58020  0.66620  0.24900  Biso   1.000  H
  N53      1.0000 0.59100  0.45545  0.27840  Biso   1.000  N
  C391     1.0000 0.58220  0.41507  0.26565  Biso   1.000  C
  H287     1.0000 0.59100  0.40260  0.24040  Biso   1.000  H
  N54      1.0000 0.55840  0.39624  0.29640  Biso   1.000  N
  C392     1.0000 0.55240  0.42500  0.32810  Biso   1.000  C
  H288     1.0000 0.53720  0.42040  0.35300  Biso   1.000  H
  C393     1.0000 0.57250  0.46157  0.31700  Biso   1.000  C
  H289     1.0000 0.57350  0.48630  0.33300  Biso   1.000  H
  C394     1.0000 0.54680  0.35010  0.29680  Biso   1.000  C
  C395     1.0000 0.53650  0.33020  0.33460  Biso   1.000  C
  H290     1.0000 0.54080  0.34410  0.36030  Biso   1.000  H
  C396     1.0000 0.51980  0.28950  0.33420  Biso   1.000  C
  H291     1.0000 0.51280  0.27610  0.35960  Biso   1.000  H
  C397     1.0000 0.51340  0.26880  0.29600  Biso   1.000  C
  C398     1.0000 0.52370  0.28870  0.25810  Biso   1.000  C
  H292     1.0000 0.51940  0.27470  0.23250  Biso   1.000  H
  C399     1.0000 0.54040  0.32930  0.25860  Biso   1.000  C
  H293     1.0000 0.54730  0.34270  0.23320  Biso   1.000  H
  C400     1.0000 0.53760  0.35770  0.29230  Biso   1.000  C
  C401     1.0000 0.50210  0.34780  0.31620  Biso   1.000  C
  H294     1.0000 0.48950  0.36840  0.33320  Biso   1.000  H
  C402     1.0000 0.48520  0.30730  0.31460  Biso   1.000  C
  H295     1.0000 0.46130  0.30060  0.33060  Biso   1.000  H
  C403     1.0000 0.50390  0.27660  0.28930  Biso   1.000  C
  C404     1.0000 0.53950  0.28660  0.26540  Biso   1.000  C
  H296     1.0000 0.55200  0.26600  0.24840  Biso   1.000  H
  C405     1.0000 0.55630  0.32710  0.26700  Biso   1.000  C
  H297     1.0000 0.58020  0.33380  0.25100  Biso   1.000  H
  N55      1.0000 0.09100  0.95545  0.77840  Biso   1.000  N
  C406     1.0000 0.08220  0.91507  0.76565  Biso   1.000  C
  H298     1.0000 0.09100  0.90260  0.74040  Biso   1.000  H
  N56      1.0000 0.05840  0.89624  0.79640  Biso   1.000  N
  C407     1.0000 0.05240  0.92500  0.82810  Biso   1.000  C
  H299     1.0000 0.03720  0.92040  0.85300  Biso   1.000  H
  C408     1.0000 0.07250  0.96157  0.81700  Biso   1.000  C
  H300     1.0000 0.07350  0.98630  0.83300  Biso   1.000  H
  C409     1.0000 0.04680  0.85010  0.79680  Biso   1.000  C
  C410     1.0000 0.03650  0.83020  0.83460  Biso   1.000  C
  H301     1.0000 0.04080  0.84410  0.86030  Biso   1.000  H
  C411     1.0000 0.01980  0.78950  0.83420  Biso   1.000  C
  H302     1.0000 0.01280  0.77610  0.85960  Biso   1.000  H
  C412     1.0000 0.01340  0.76880  0.79600  Biso   1.000  C
  C413     1.0000 0.02370  0.78870  0.75810  Biso   1.000  C
  H303     1.0000 0.01940  0.77470  0.73250  Biso   1.000  H
  C414     1.0000 0.04040  0.82930  0.75860  Biso   1.000  C
  H304     1.0000 0.04730  0.84270  0.73320  Biso   1.000  H
  C415     1.0000 0.03760  0.85770  0.79230  Biso   1.000  C
  C416     1.0000 0.00210  0.84780  0.81620  Biso   1.000  C
  H305     1.0000 0.98950  0.86840  0.83320  Biso   1.000  H
  C417     1.0000 0.98520  0.80730  0.81460  Biso   1.000  C
  H306     1.0000 0.96130  0.80060  0.83060  Biso   1.000  H
  C418     1.0000 0.00390  0.77660  0.78930  Biso   1.000  C
  C419     1.0000 0.03950  0.78660  0.76540  Biso   1.000  C
  H307     1.0000 0.05200  0.76600  0.74840  Biso   1.000  H
  C420     1.0000 0.05630  0.82710  0.76700  Biso   1.000  C
  H308     1.0000 0.08020  0.83380  0.75100  Biso   1.000  H
  N57      1.0000 0.90900  0.54455  0.77840  Biso   1.000  N
  C421     1.0000 0.91780  0.58493  0.76565  Biso   1.000  C
  H309     1.0000 0.90900  0.59740  0.74040  Biso   1.000  H
  N58      1.0000 0.94160  0.60376  0.79640  Biso   1.000  N
  C422     1.0000 0.94760  0.57500  0.82810  Biso   1.000  C
  H310     1.0000 0.96280  0.57960  0.85300  Biso   1.000  H
  C423     1.0000 0.92750  0.53843  0.81700  Biso   1.000  C
  H311     1.0000 0.92650  0.51370  0.83300  Biso   1.000  H
  C424     1.0000 0.95320  0.64990  0.79680  Biso   1.000  C
  C425     1.0000 0.96350  0.66980  0.83460  Biso   1.000  C
  H312     1.0000 0.95920  0.65590  0.86030  Biso   1.000  H
  C426     1.0000 0.98020  0.71050  0.83420  Biso   1.000  C
  H313     1.0000 0.98720  0.72390  0.85960  Biso   1.000  H
  C427     1.0000 0.98660  0.73120  0.79600  Biso   1.000  C
  C428     1.0000 0.97630  0.71130  0.75810  Biso   1.000  C
  H314     1.0000 0.98060  0.72530  0.73250  Biso   1.000  H
  C429     1.0000 0.95960  0.67070  0.75860  Biso   1.000  C
  H315     1.0000 0.95270  0.65730  0.73320  Biso   1.000  H
  C430     1.0000 0.96240  0.64230  0.79230  Biso   1.000  C
  C431     1.0000 0.99790  0.65220  0.81620  Biso   1.000  C
  H316     1.0000 0.01050  0.63160  0.83320  Biso   1.000  H
  C432     1.0000 0.01480  0.69270  0.81460  Biso   1.000  C
  H317     1.0000 0.03870  0.69940  0.83060  Biso   1.000  H
  C433     1.0000 0.99610  0.72340  0.78930  Biso   1.000  C
  C434     1.0000 0.96050  0.71340  0.76540  Biso   1.000  C
  H318     1.0000 0.94800  0.73400  0.74840  Biso   1.000  H
  C435     1.0000 0.94370  0.67290  0.76700  Biso   1.000  C
  H319     1.0000 0.91980  0.66620  0.75100  Biso   1.000  H
  N59      1.0000 0.40900  0.04455  0.27840  Biso   1.000  N
  C436     1.0000 0.41780  0.08493  0.26565  Biso   1.000  C
  H320     1.0000 0.40900  0.09740  0.24040  Biso   1.000  H
  N60      1.0000 0.44160  0.10376  0.29640  Biso   1.000  N
  C437     1.0000 0.44760  0.07500  0.32810  Biso   1.000  C
  H321     1.0000 0.46280  0.07960  0.35300  Biso   1.000  H
  C438     1.0000 0.42750  0.03843  0.31700  Biso   1.000  C
  H322     1.0000 0.42650  0.01370  0.33300  Biso   1.000  H
  C439     1.0000 0.45320  0.14990  0.29680  Biso   1.000  C
  C440     1.0000 0.46350  0.16980  0.33460  Biso   1.000  C
  H323     1.0000 0.45920  0.15590  0.36030  Biso   1.000  H
  C441     1.0000 0.48020  0.21050  0.33420  Biso   1.000  C
  H324     1.0000 0.48720  0.22390  0.35960  Biso   1.000  H
  C442     1.0000 0.48660  0.23120  0.29600  Biso   1.000  C
  C443     1.0000 0.47630  0.21130  0.25810  Biso   1.000  C
  H325     1.0000 0.48060  0.22530  0.23250  Biso   1.000  H
  C444     1.0000 0.45960  0.17070  0.25860  Biso   1.000  C
  H326     1.0000 0.45270  0.15730  0.23320  Biso   1.000  H
  C445     1.0000 0.46240  0.14230  0.29230  Biso   1.000  C
  C446     1.0000 0.49790  0.15220  0.31620  Biso   1.000  C
  H327     1.0000 0.51050  0.13160  0.33320  Biso   1.000  H
  C447     1.0000 0.51480  0.19270  0.31460  Biso   1.000  C
  H328     1.0000 0.53870  0.19940  0.33060  Biso   1.000  H
  C448     1.0000 0.49610  0.22340  0.28930  Biso   1.000  C
  C449     1.0000 0.46050  0.21340  0.26540  Biso   1.000  C
  H329     1.0000 0.44800  0.23400  0.24840  Biso   1.000  H
  C450     1.0000 0.44370  0.17290  0.26700  Biso   1.000  C
  H330     1.0000 0.41980  0.16620  0.25100  Biso   1.000  H
  N61      1.0000 0.40900  0.95545  0.22160  Biso   1.000  N
  C451     1.0000 0.41780  0.91507  0.23435  Biso   1.000  C
  H331     1.0000 0.40900  0.90260  0.25960  Biso   1.000  H
  N62      1.0000 0.44160  0.89624  0.20360  Biso   1.000  N
  C452     1.0000 0.44760  0.92500  0.17190  Biso   1.000  C
  H332     1.0000 0.46280  0.92040  0.14700  Biso   1.000  H
  C453     1.0000 0.42750  0.96157  0.18300  Biso   1.000  C
  H333     1.0000 0.42650  0.98630  0.16700  Biso   1.000  H
  C454     1.0000 0.45320  0.85010  0.20320  Biso   1.000  C
  C455     1.0000 0.46350  0.83020  0.16540  Biso   1.000  C
  H334     1.0000 0.45920  0.84410  0.13970  Biso   1.000  H
  C456     1.0000 0.48020  0.78950  0.16580  Biso   1.000  C
  H335     1.0000 0.48720  0.77610  0.14040  Biso   1.000  H
  C457     1.0000 0.48660  0.76880  0.20400  Biso   1.000  C
  C458     1.0000 0.47630  0.78870  0.24190  Biso   1.000  C
  H336     1.0000 0.48060  0.77470  0.26750  Biso   1.000  H
  C459     1.0000 0.45960  0.82930  0.24140  Biso   1.000  C
  H337     1.0000 0.45270  0.84270  0.26680  Biso   1.000  H
  C460     1.0000 0.46240  0.85770  0.20770  Biso   1.000  C
  C461     1.0000 0.49790  0.84780  0.18380  Biso   1.000  C
  H338     1.0000 0.51050  0.86840  0.16680  Biso   1.000  H
  C462     1.0000 0.51480  0.80730  0.18540  Biso   1.000  C
  H339     1.0000 0.53870  0.80060  0.16940  Biso   1.000  H
  C463     1.0000 0.49610  0.77660  0.21070  Biso   1.000  C
  C464     1.0000 0.46050  0.78660  0.23460  Biso   1.000  C
  H340     1.0000 0.44800  0.76600  0.25160  Biso   1.000  H
  C465     1.0000 0.44370  0.82710  0.23300  Biso   1.000  C
  H341     1.0000 0.41980  0.83380  0.24900  Biso   1.000  H
  N63      1.0000 0.90900  0.45545  0.72160  Biso   1.000  N
  C466     1.0000 0.91780  0.41507  0.73435  Biso   1.000  C
  H342     1.0000 0.90900  0.40260  0.75960  Biso   1.000  H
  N64      1.0000 0.94160  0.39624  0.70360  Biso   1.000  N
  C467     1.0000 0.94760  0.42500  0.67190  Biso   1.000  C
  H343     1.0000 0.96280  0.42040  0.64700  Biso   1.000  H
  C468     1.0000 0.92750  0.46157  0.68300  Biso   1.000  C
  H344     1.0000 0.92650  0.48630  0.66700  Biso   1.000  H
  C469     1.0000 0.95320  0.35010  0.70320  Biso   1.000  C
  C470     1.0000 0.96350  0.33020  0.66540  Biso   1.000  C
  H345     1.0000 0.95920  0.34410  0.63970  Biso   1.000  H
  C471     1.0000 0.98020  0.28950  0.66580  Biso   1.000  C
  H346     1.0000 0.98720  0.27610  0.64040  Biso   1.000  H
  C472     1.0000 0.98660  0.26880  0.70400  Biso   1.000  C
  C473     1.0000 0.97630  0.28870  0.74190  Biso   1.000  C
  H347     1.0000 0.98060  0.27470  0.76750  Biso   1.000  H
  C474     1.0000 0.95960  0.32930  0.74140  Biso   1.000  C
  H348     1.0000 0.95270  0.34270  0.76680  Biso   1.000  H
  C475     1.0000 0.96240  0.35770  0.70770  Biso   1.000  C
  C476     1.0000 0.99790  0.34780  0.68380  Biso   1.000  C
  H349     1.0000 0.01050  0.36840  0.66680  Biso   1.000  H
  C477     1.0000 0.01480  0.30730  0.68540  Biso   1.000  C
  H350     1.0000 0.03870  0.30060  0.66940  Biso   1.000  H
  C478     1.0000 0.99610  0.27660  0.71070  Biso   1.000  C
  C479     1.0000 0.96050  0.28660  0.73460  Biso   1.000  C
  H351     1.0000 0.94800  0.26600  0.75160  Biso   1.000  H
  C480     1.0000 0.94370  0.32710  0.73300  Biso   1.000  C
  H352     1.0000 0.91980  0.33380  0.74900  Biso   1.000  H
  Zn5      1.0000 0.12500  0.00000  0.75000  Biso   1.000  Zn
  Zn6      1.0000 0.62500  0.50000  0.25000  Biso   1.000  Zn
  Zn7      1.0000 0.37500  0.00000  0.25000  Biso   1.000  Zn
  Zn8      1.0000 0.87500  0.50000  0.75000  Biso   1.000  Zn
  N65      1.0000 0.70545  0.15900  0.97160  Biso   1.000  N
  C481     1.0000 0.66507  0.16780  0.98435  Biso   1.000  C
  H353     1.0000 0.65260  0.15900  0.00960  Biso   1.000  H
  N66      1.0000 0.64624  0.19160  0.95360  Biso   1.000  N
  C482     1.0000 0.67500  0.19760  0.92190  Biso   1.000  C
  H354     1.0000 0.67040  0.21280  0.89700  Biso   1.000  H
  C483     1.0000 0.71157  0.17750  0.93300  Biso   1.000  C
  H355     1.0000 0.73630  0.17650  0.91700  Biso   1.000  H
  C484     1.0000 0.60010  0.20320  0.95320  Biso   1.000  C
  C485     1.0000 0.58020  0.21350  0.91540  Biso   1.000  C
  H356     1.0000 0.59410  0.20920  0.88970  Biso   1.000  H
  C486     1.0000 0.53950  0.23020  0.91580  Biso   1.000  C
  H357     1.0000 0.52610  0.23720  0.89040  Biso   1.000  H
  C487     1.0000 0.51880  0.23660  0.95400  Biso   1.000  C
  C488     1.0000 0.53870  0.22630  0.99190  Biso   1.000  C
  H358     1.0000 0.52470  0.23060  0.01750  Biso   1.000  H
  C489     1.0000 0.57930  0.20960  0.99140  Biso   1.000  C
  H359     1.0000 0.59270  0.20270  0.01680  Biso   1.000  H
  C490     1.0000 0.60770  0.21240  0.95770  Biso   1.000  C
  C491     1.0000 0.59780  0.24790  0.93380  Biso   1.000  C
  H360     1.0000 0.61840  0.26050  0.91680  Biso   1.000  H
  C492     1.0000 0.55730  0.26480  0.93540  Biso   1.000  C
  H361     1.0000 0.55060  0.28870  0.91940  Biso   1.000  H
  C493     1.0000 0.52660  0.24610  0.96070  Biso   1.000  C
  C494     1.0000 0.53660  0.21050  0.98460  Biso   1.000  C
  H362     1.0000 0.51600  0.19800  0.00160  Biso   1.000  H
  C495     1.0000 0.57710  0.19370  0.98300  Biso   1.000  C
  H363     1.0000 0.58380  0.16980  0.99900  Biso   1.000  H
  N67      1.0000 0.20545  0.65900  0.47160  Biso   1.000  N
  C496     1.0000 0.16507  0.66780  0.48435  Biso   1.000  C
  H364     1.0000 0.15260  0.65900  0.50960  Biso   1.000  H
  N68      1.0000 0.14624  0.69160  0.45360  Biso   1.000  N
  C497     1.0000 0.17500  0.69760  0.42190  Biso   1.000  C
  H365     1.0000 0.17040  0.71280  0.39700  Biso   1.000  H
  C498     1.0000 0.21157  0.67750  0.43300  Biso   1.000  C
  H366     1.0000 0.23630  0.67650  0.41700  Biso   1.000  H
  C499     1.0000 0.10010  0.70320  0.45320  Biso   1.000  C
  C500     1.0000 0.08020  0.71350  0.41540  Biso   1.000  C
  H367     1.0000 0.09410  0.70920  0.38970  Biso   1.000  H
  C501     1.0000 0.03950  0.73020  0.41580  Biso   1.000  C
  H368     1.0000 0.02610  0.73720  0.39040  Biso   1.000  H
  C502     1.0000 0.01880  0.73660  0.45400  Biso   1.000  C
  C503     1.0000 0.03870  0.72630  0.49190  Biso   1.000  C
  H369     1.0000 0.02470  0.73060  0.51750  Biso   1.000  H
  C504     1.0000 0.07930  0.70960  0.49140  Biso   1.000  C
  H370     1.0000 0.09270  0.70270  0.51680  Biso   1.000  H
  C505     1.0000 0.10770  0.71240  0.45770  Biso   1.000  C
  C506     1.0000 0.09780  0.74790  0.43380  Biso   1.000  C
  H371     1.0000 0.11840  0.76050  0.41680  Biso   1.000  H
  C507     1.0000 0.05730  0.76480  0.43540  Biso   1.000  C
  H372     1.0000 0.05060  0.78870  0.41940  Biso   1.000  H
  C508     1.0000 0.02660  0.74610  0.46070  Biso   1.000  C
  C509     1.0000 0.03660  0.71050  0.48460  Biso   1.000  C
  H373     1.0000 0.01600  0.69800  0.50160  Biso   1.000  H
  C510     1.0000 0.07710  0.69370  0.48300  Biso   1.000  C
  H374     1.0000 0.08380  0.66980  0.49900  Biso   1.000  H
  N69      1.0000 0.29455  0.65900  0.52840  Biso   1.000  N
  C511     1.0000 0.33493  0.66780  0.51565  Biso   1.000  C
  H375     1.0000 0.34740  0.65900  0.49040  Biso   1.000  H
  N70      1.0000 0.35376  0.69160  0.54640  Biso   1.000  N
  C512     1.0000 0.32500  0.69760  0.57810  Biso   1.000  C
  H376     1.0000 0.32960  0.71280  0.60300  Biso   1.000  H
  C513     1.0000 0.28843  0.67750  0.56700  Biso   1.000  C
  H377     1.0000 0.26370  0.67650  0.58300  Biso   1.000  H
  C514     1.0000 0.39990  0.70320  0.54680  Biso   1.000  C
  C515     1.0000 0.41980  0.71350  0.58460  Biso   1.000  C
  H378     1.0000 0.40590  0.70920  0.61030  Biso   1.000  H
  C516     1.0000 0.46050  0.73020  0.58420  Biso   1.000  C
  H379     1.0000 0.47390  0.73720  0.60960  Biso   1.000  H
  C517     1.0000 0.48120  0.73660  0.54600  Biso   1.000  C
  C518     1.0000 0.46130  0.72630  0.50810  Biso   1.000  C
  H380     1.0000 0.47530  0.73060  0.48250  Biso   1.000  H
  C519     1.0000 0.42070  0.70960  0.50860  Biso   1.000  C
  H381     1.0000 0.40730  0.70270  0.48320  Biso   1.000  H
  C520     1.0000 0.39230  0.71240  0.54230  Biso   1.000  C
  C521     1.0000 0.40220  0.74790  0.56620  Biso   1.000  C
  H382     1.0000 0.38160  0.76050  0.58320  Biso   1.000  H
  C522     1.0000 0.44270  0.76480  0.56460  Biso   1.000  C
  H383     1.0000 0.44940  0.78870  0.58060  Biso   1.000  H
  C523     1.0000 0.47340  0.74610  0.53930  Biso   1.000  C
  C524     1.0000 0.46340  0.71050  0.51540  Biso   1.000  C
  H384     1.0000 0.48400  0.69800  0.49840  Biso   1.000  H
  C525     1.0000 0.42290  0.69370  0.51700  Biso   1.000  C
  H385     1.0000 0.41620  0.66980  0.50100  Biso   1.000  H
  N71      1.0000 0.79455  0.15900  0.02840  Biso   1.000  N
  C526     1.0000 0.83493  0.16780  0.01565  Biso   1.000  C
  H386     1.0000 0.84740  0.15900  0.99040  Biso   1.000  H
  N72      1.0000 0.85376  0.19160  0.04640  Biso   1.000  N
  C527     1.0000 0.82500  0.19760  0.07810  Biso   1.000  C
  H387     1.0000 0.82960  0.21280  0.10300  Biso   1.000  H
  C528     1.0000 0.78843  0.17750  0.06700  Biso   1.000  C
  H388     1.0000 0.76370  0.17650  0.08300  Biso   1.000  H
  C529     1.0000 0.89990  0.20320  0.04680  Biso   1.000  C
  C530     1.0000 0.91980  0.21350  0.08460  Biso   1.000  C
  H389     1.0000 0.90590  0.20920  0.11030  Biso   1.000  H
  C531     1.0000 0.96050  0.23020  0.08420  Biso   1.000  C
  H390     1.0000 0.97390  0.23720  0.10960  Biso   1.000  H
  C532     1.0000 0.98120  0.23660  0.04600  Biso   1.000  C
  C533     1.0000 0.96130  0.22630  0.00810  Biso   1.000  C
  H391     1.0000 0.97530  0.23060  0.98250  Biso   1.000  H
  C534     1.0000 0.92070  0.20960  0.00860  Biso   1.000  C
  H392     1.0000 0.90730  0.20270  0.98320  Biso   1.000  H
  C535     1.0000 0.89230  0.21240  0.04230  Biso   1.000  C
  C536     1.0000 0.90220  0.24790  0.06620  Biso   1.000  C
  H393     1.0000 0.88160  0.26050  0.08320  Biso   1.000  H
  C537     1.0000 0.94270  0.26480  0.06460  Biso   1.000  C
  H394     1.0000 0.94940  0.28870  0.08060  Biso   1.000  H
  C538     1.0000 0.97340  0.24610  0.03930  Biso   1.000  C
  C539     1.0000 0.96340  0.21050  0.01540  Biso   1.000  C
  H395     1.0000 0.98400  0.19800  0.99840  Biso   1.000  H
  C540     1.0000 0.92290  0.19370  0.01700  Biso   1.000  C
  H396     1.0000 0.91620  0.16980  0.00100  Biso   1.000  H
  N73      1.0000 0.20545  0.34100  0.02840  Biso   1.000  N
  C541     1.0000 0.16507  0.33220  0.01565  Biso   1.000  C
  H397     1.0000 0.15260  0.34100  0.99040  Biso   1.000  H
  N74      1.0000 0.14624  0.30840  0.04640  Biso   1.000  N
  C542     1.0000 0.17500  0.30240  0.07810  Biso   1.000  C
  H398     1.0000 0.17040  0.28720  0.10300  Biso   1.000  H
  C543     1.0000 0.21157  0.32250  0.06700  Biso   1.000  C
  H399     1.0000 0.23630  0.32350  0.08300  Biso   1.000  H
  C544     1.0000 0.10010  0.29680  0.04680  Biso   1.000  C
  C545     1.0000 0.08020  0.28650  0.08460  Biso   1.000  C
  H400     1.0000 0.09410  0.29080  0.11030  Biso   1.000  H
  C546     1.0000 0.03950  0.26980  0.08420  Biso   1.000  C
  H401     1.0000 0.02610  0.26280  0.10960  Biso   1.000  H
  C547     1.0000 0.01880  0.26340  0.04600  Biso   1.000  C
  C548     1.0000 0.03870  0.27370  0.00810  Biso   1.000  C
  H402     1.0000 0.02470  0.26940  0.98250  Biso   1.000  H
  C549     1.0000 0.07930  0.29040  0.00860  Biso   1.000  C
  H403     1.0000 0.09270  0.29730  0.98320  Biso   1.000  H
  C550     1.0000 0.10770  0.28760  0.04230  Biso   1.000  C
  C551     1.0000 0.09780  0.25210  0.06620  Biso   1.000  C
  H404     1.0000 0.11840  0.23950  0.08320  Biso   1.000  H
  C552     1.0000 0.05730  0.23520  0.06460  Biso   1.000  C
  H405     1.0000 0.05060  0.21130  0.08060  Biso   1.000  H
  C553     1.0000 0.02660  0.25390  0.03930  Biso   1.000  C
  C554     1.0000 0.03660  0.28950  0.01540  Biso   1.000  C
  H406     1.0000 0.01600  0.30200  0.99840  Biso   1.000  H
  C555     1.0000 0.07710  0.30630  0.01700  Biso   1.000  C
  H407     1.0000 0.08380  0.33020  0.00100  Biso   1.000  H
  N75      1.0000 0.70545  0.84100  0.52840  Biso   1.000  N
  C556     1.0000 0.66507  0.83220  0.51565  Biso   1.000  C
  H408     1.0000 0.65260  0.84100  0.49040  Biso   1.000  H
  N76      1.0000 0.64624  0.80840  0.54640  Biso   1.000  N
  C557     1.0000 0.67500  0.80240  0.57810  Biso   1.000  C
  H409     1.0000 0.67040  0.78720  0.60300  Biso   1.000  H
  C558     1.0000 0.71157  0.82250  0.56700  Biso   1.000  C
  H410     1.0000 0.73630  0.82350  0.58300  Biso   1.000  H
  C559     1.0000 0.60010  0.79680  0.54680  Biso   1.000  C
  C560     1.0000 0.58020  0.78650  0.58460  Biso   1.000  C
  H411     1.0000 0.59410  0.79080  0.61030  Biso   1.000  H
  C561     1.0000 0.53950  0.76980  0.58420  Biso   1.000  C
  H412     1.0000 0.52610  0.76280  0.60960  Biso   1.000  H
  C562     1.0000 0.51880  0.76340  0.54600  Biso   1.000  C
  C563     1.0000 0.53870  0.77370  0.50810  Biso   1.000  C
  H413     1.0000 0.52470  0.76940  0.48250  Biso   1.000  H
  C564     1.0000 0.57930  0.79040  0.50860  Biso   1.000  C
  H414     1.0000 0.59270  0.79730  0.48320  Biso   1.000  H
  C565     1.0000 0.60770  0.78760  0.54230  Biso   1.000  C
  C566     1.0000 0.59780  0.75210  0.56620  Biso   1.000  C
  H415     1.0000 0.61840  0.73950  0.58320  Biso   1.000  H
  C567     1.0000 0.55730  0.73520  0.56460  Biso   1.000  C
  H416     1.0000 0.55060  0.71130  0.58060  Biso   1.000  H
  C568     1.0000 0.52660  0.75390  0.53930  Biso   1.000  C
  C569     1.0000 0.53660  0.78950  0.51540  Biso   1.000  C
  H417     1.0000 0.51600  0.80200  0.49840  Biso   1.000  H
  C570     1.0000 0.57710  0.80630  0.51700  Biso   1.000  C
  H418     1.0000 0.58380  0.83020  0.50100  Biso   1.000  H
  N77      1.0000 0.79455  0.84100  0.47160  Biso   1.000  N
  C571     1.0000 0.83493  0.83220  0.48435  Biso   1.000  C
  H419     1.0000 0.84740  0.84100  0.50960  Biso   1.000  H
  N78      1.0000 0.85376  0.80840  0.45360  Biso   1.000  N
  C572     1.0000 0.82500  0.80240  0.42190  Biso   1.000  C
  H420     1.0000 0.82960  0.78720  0.39700  Biso   1.000  H
  C573     1.0000 0.78843  0.82250  0.43300  Biso   1.000  C
  H421     1.0000 0.76370  0.82350  0.41700  Biso   1.000  H
  C574     1.0000 0.89990  0.79680  0.45320  Biso   1.000  C
  C575     1.0000 0.91980  0.78650  0.41540  Biso   1.000  C
  H422     1.0000 0.90590  0.79080  0.38970  Biso   1.000  H
  C576     1.0000 0.96050  0.76980  0.41580  Biso   1.000  C
  H423     1.0000 0.97390  0.76280  0.39040  Biso   1.000  H
  C577     1.0000 0.98120  0.76340  0.45400  Biso   1.000  C
  C578     1.0000 0.96130  0.77370  0.49190  Biso   1.000  C
  H424     1.0000 0.97530  0.76940  0.51750  Biso   1.000  H
  C579     1.0000 0.92070  0.79040  0.49140  Biso   1.000  C
  H425     1.0000 0.90730  0.79730  0.51680  Biso   1.000  H
  C580     1.0000 0.89230  0.78760  0.45770  Biso   1.000  C
  C581     1.0000 0.90220  0.75210  0.43380  Biso   1.000  C
  H426     1.0000 0.88160  0.73950  0.41680  Biso   1.000  H
  C582     1.0000 0.94270  0.73520  0.43540  Biso   1.000  C
  H427     1.0000 0.94940  0.71130  0.41940  Biso   1.000  H
  C583     1.0000 0.97340  0.75390  0.46070  Biso   1.000  C
  C584     1.0000 0.96340  0.78950  0.48460  Biso   1.000  C
  H428     1.0000 0.98400  0.80200  0.50160  Biso   1.000  H
  C585     1.0000 0.92290  0.80630  0.48300  Biso   1.000  C
  H429     1.0000 0.91620  0.83020  0.49900  Biso   1.000  H
  N79      1.0000 0.29455  0.34100  0.97160  Biso   1.000  N
  C586     1.0000 0.33493  0.33220  0.98435  Biso   1.000  C
  H430     1.0000 0.34740  0.34100  0.00960  Biso   1.000  H
  N80      1.0000 0.35376  0.30840  0.95360  Biso   1.000  N
  C587     1.0000 0.32500  0.30240  0.92190  Biso   1.000  C
  H431     1.0000 0.32960  0.28720  0.89700  Biso   1.000  H
  C588     1.0000 0.28843  0.32250  0.93300  Biso   1.000  C
  H432     1.0000 0.26370  0.32350  0.91700  Biso   1.000  H
  C589     1.0000 0.39990  0.29680  0.95320  Biso   1.000  C
  C590     1.0000 0.41980  0.28650  0.91540  Biso   1.000  C
  H433     1.0000 0.40590  0.29080  0.88970  Biso   1.000  H
  C591     1.0000 0.46050  0.26980  0.91580  Biso   1.000  C
  H434     1.0000 0.47390  0.26280  0.89040  Biso   1.000  H
  C592     1.0000 0.48120  0.26340  0.95400  Biso   1.000  C
  C593     1.0000 0.46130  0.27370  0.99190  Biso   1.000  C
  H435     1.0000 0.47530  0.26940  0.01750  Biso   1.000  H
  C594     1.0000 0.42070  0.29040  0.99140  Biso   1.000  C
  H436     1.0000 0.40730  0.29730  0.01680  Biso   1.000  H
  C595     1.0000 0.39230  0.28760  0.95770  Biso   1.000  C
  C596     1.0000 0.40220  0.25210  0.93380  Biso   1.000  C
  H437     1.0000 0.38160  0.23950  0.91680  Biso   1.000  H
  C597     1.0000 0.44270  0.23520  0.93540  Biso   1.000  C
  H438     1.0000 0.44940  0.21130  0.91940  Biso   1.000  H
  C598     1.0000 0.47340  0.25390  0.96070  Biso   1.000  C
  C599     1.0000 0.46340  0.28950  0.98460  Biso   1.000  C
  H439     1.0000 0.48400  0.30200  0.00160  Biso   1.000  H
  C600     1.0000 0.42290  0.30630  0.98300  Biso   1.000  C
  H440     1.0000 0.41620  0.33020  0.99900  Biso   1.000  H
  N81      1.0000 0.27840  0.59100  0.45545  Biso   1.000  N
  C601     1.0000 0.26565  0.58220  0.41507  Biso   1.000  C
  H441     1.0000 0.24040  0.59100  0.40260  Biso   1.000  H
  N82      1.0000 0.29640  0.55840  0.39624  Biso   1.000  N
  C602     1.0000 0.32810  0.55240  0.42500  Biso   1.000  C
  H442     1.0000 0.35300  0.53720  0.42040  Biso   1.000  H
  C603     1.0000 0.31700  0.57250  0.46157  Biso   1.000  C
  H443     1.0000 0.33300  0.57350  0.48630  Biso   1.000  H
  C604     1.0000 0.29680  0.54680  0.35010  Biso   1.000  C
  C605     1.0000 0.33460  0.53650  0.33020  Biso   1.000  C
  H444     1.0000 0.36030  0.54080  0.34410  Biso   1.000  H
  C606     1.0000 0.33420  0.51980  0.28950  Biso   1.000  C
  H445     1.0000 0.35960  0.51280  0.27610  Biso   1.000  H
  C607     1.0000 0.29600  0.51340  0.26880  Biso   1.000  C
  C608     1.0000 0.25810  0.52370  0.28870  Biso   1.000  C
  H446     1.0000 0.23250  0.51940  0.27470  Biso   1.000  H
  C609     1.0000 0.25860  0.54040  0.32930  Biso   1.000  C
  H447     1.0000 0.23320  0.54730  0.34270  Biso   1.000  H
  C610     1.0000 0.29230  0.53760  0.35770  Biso   1.000  C
  C611     1.0000 0.31620  0.50210  0.34780  Biso   1.000  C
  H448     1.0000 0.33320  0.48950  0.36840  Biso   1.000  H
  C612     1.0000 0.31460  0.48520  0.30730  Biso   1.000  C
  H449     1.0000 0.33060  0.46130  0.30060  Biso   1.000  H
  C613     1.0000 0.28930  0.50390  0.27660  Biso   1.000  C
  C614     1.0000 0.26540  0.53950  0.28660  Biso   1.000  C
  H450     1.0000 0.24840  0.55200  0.26600  Biso   1.000  H
  C615     1.0000 0.26700  0.55630  0.32710  Biso   1.000  C
  H451     1.0000 0.25100  0.58020  0.33380  Biso   1.000  H
  N83      1.0000 0.77840  0.09100  0.95545  Biso   1.000  N
  C616     1.0000 0.76565  0.08220  0.91507  Biso   1.000  C
  H452     1.0000 0.74040  0.09100  0.90260  Biso   1.000  H
  N84      1.0000 0.79640  0.05840  0.89624  Biso   1.000  N
  C617     1.0000 0.82810  0.05240  0.92500  Biso   1.000  C
  H453     1.0000 0.85300  0.03720  0.92040  Biso   1.000  H
  C618     1.0000 0.81700  0.07250  0.96157  Biso   1.000  C
  H454     1.0000 0.83300  0.07350  0.98630  Biso   1.000  H
  C619     1.0000 0.79680  0.04680  0.85010  Biso   1.000  C
  C620     1.0000 0.83460  0.03650  0.83020  Biso   1.000  C
  H455     1.0000 0.86030  0.04080  0.84410  Biso   1.000  H
  C621     1.0000 0.83420  0.01980  0.78950  Biso   1.000  C
  H456     1.0000 0.85960  0.01280  0.77610  Biso   1.000  H
  C622     1.0000 0.79600  0.01340  0.76880  Biso   1.000  C
  C623     1.0000 0.75810  0.02370  0.78870  Biso   1.000  C
  H457     1.0000 0.73250  0.01940  0.77470  Biso   1.000  H
  C624     1.0000 0.75860  0.04040  0.82930  Biso   1.000  C
  H458     1.0000 0.73320  0.04730  0.84270  Biso   1.000  H
  C625     1.0000 0.79230  0.03760  0.85770  Biso   1.000  C
  C626     1.0000 0.81620  0.00210  0.84780  Biso   1.000  C
  H459     1.0000 0.83320  0.98950  0.86840  Biso   1.000  H
  C627     1.0000 0.81460  0.98520  0.80730  Biso   1.000  C
  H460     1.0000 0.83060  0.96130  0.80060  Biso   1.000  H
  C628     1.0000 0.78930  0.00390  0.77660  Biso   1.000  C
  C629     1.0000 0.76540  0.03950  0.78660  Biso   1.000  C
  H461     1.0000 0.74840  0.05200  0.76600  Biso   1.000  H
  C630     1.0000 0.76700  0.05630  0.82710  Biso   1.000  C
  H462     1.0000 0.75100  0.08020  0.83380  Biso   1.000  H
  N85      1.0000 0.72160  0.09100  0.04455  Biso   1.000  N
  C631     1.0000 0.73435  0.08220  0.08493  Biso   1.000  C
  H463     1.0000 0.75960  0.09100  0.09740  Biso   1.000  H
  N86      1.0000 0.70360  0.05840  0.10376  Biso   1.000  N
  C632     1.0000 0.67190  0.05240  0.07500  Biso   1.000  C
  H464     1.0000 0.64700  0.03720  0.07960  Biso   1.000  H
  C633     1.0000 0.68300  0.07250  0.03843  Biso   1.000  C
  H465     1.0000 0.66700  0.07350  0.01370  Biso   1.000  H
  C634     1.0000 0.70320  0.04680  0.14990  Biso   1.000  C
  C635     1.0000 0.66540  0.03650  0.16980  Biso   1.000  C
  H466     1.0000 0.63970  0.04080  0.15590  Biso   1.000  H
  C636     1.0000 0.66580  0.01980  0.21050  Biso   1.000  C
  H467     1.0000 0.64040  0.01280  0.22390  Biso   1.000  H
  C637     1.0000 0.70400  0.01340  0.23120  Biso   1.000  C
  C638     1.0000 0.74190  0.02370  0.21130  Biso   1.000  C
  H468     1.0000 0.76750  0.01940  0.22530  Biso   1.000  H
  C639     1.0000 0.74140  0.04040  0.17070  Biso   1.000  C
  H469     1.0000 0.76680  0.04730  0.15730  Biso   1.000  H
  C640     1.0000 0.70770  0.03760  0.14230  Biso   1.000  C
  C641     1.0000 0.68380  0.00210  0.15220  Biso   1.000  C
  H470     1.0000 0.66680  0.98950  0.13160  Biso   1.000  H
  C642     1.0000 0.68540  0.98520  0.19270  Biso   1.000  C
  H471     1.0000 0.66940  0.96130  0.19940  Biso   1.000  H
  C643     1.0000 0.71070  0.00390  0.22340  Biso   1.000  C
  C644     1.0000 0.73460  0.03950  0.21340  Biso   1.000  C
  H472     1.0000 0.75160  0.05200  0.23400  Biso   1.000  H
  C645     1.0000 0.73300  0.05630  0.17290  Biso   1.000  C
  H473     1.0000 0.74900  0.08020  0.16620  Biso   1.000  H
  N87      1.0000 0.22160  0.59100  0.54455  Biso   1.000  N
  C646     1.0000 0.23435  0.58220  0.58493  Biso   1.000  C
  H474     1.0000 0.25960  0.59100  0.59740  Biso   1.000  H
  N88      1.0000 0.20360  0.55840  0.60376  Biso   1.000  N
  C647     1.0000 0.17190  0.55240  0.57500  Biso   1.000  C
  H475     1.0000 0.14700  0.53720  0.57960  Biso   1.000  H
  C648     1.0000 0.18300  0.57250  0.53843  Biso   1.000  C
  H476     1.0000 0.16700  0.57350  0.51370  Biso   1.000  H
  C649     1.0000 0.20320  0.54680  0.64990  Biso   1.000  C
  C650     1.0000 0.16540  0.53650  0.66980  Biso   1.000  C
  H477     1.0000 0.13970  0.54080  0.65590  Biso   1.000  H
  C651     1.0000 0.16580  0.51980  0.71050  Biso   1.000  C
  H478     1.0000 0.14040  0.51280  0.72390  Biso   1.000  H
  C652     1.0000 0.20400  0.51340  0.73120  Biso   1.000  C
  C653     1.0000 0.24190  0.52370  0.71130  Biso   1.000  C
  H479     1.0000 0.26750  0.51940  0.72530  Biso   1.000  H
  C654     1.0000 0.24140  0.54040  0.67070  Biso   1.000  C
  H480     1.0000 0.26680  0.54730  0.65730  Biso   1.000  H
  C655     1.0000 0.20770  0.53760  0.64230  Biso   1.000  C
  C656     1.0000 0.18380  0.50210  0.65220  Biso   1.000  C
  H481     1.0000 0.16680  0.48950  0.63160  Biso   1.000  H
  C657     1.0000 0.18540  0.48520  0.69270  Biso   1.000  C
  H482     1.0000 0.16940  0.46130  0.69940  Biso   1.000  H
  C658     1.0000 0.21070  0.50390  0.72340  Biso   1.000  C
  C659     1.0000 0.23460  0.53950  0.71340  Biso   1.000  C
  H483     1.0000 0.25160  0.55200  0.73400  Biso   1.000  H
  C660     1.0000 0.23300  0.55630  0.67290  Biso   1.000  C
  H484     1.0000 0.24900  0.58020  0.66620  Biso   1.000  H
  N89      1.0000 0.22160  0.40900  0.95545  Biso   1.000  N
  C661     1.0000 0.23435  0.41780  0.91507  Biso   1.000  C
  H485     1.0000 0.25960  0.40900  0.90260  Biso   1.000  H
  N90      1.0000 0.20360  0.44160  0.89624  Biso   1.000  N
  C662     1.0000 0.17190  0.44760  0.92500  Biso   1.000  C
  H486     1.0000 0.14700  0.46280  0.92040  Biso   1.000  H
  C663     1.0000 0.18300  0.42750  0.96157  Biso   1.000  C
  H487     1.0000 0.16700  0.42650  0.98630  Biso   1.000  H
  C664     1.0000 0.20320  0.45320  0.85010  Biso   1.000  C
  C665     1.0000 0.16540  0.46350  0.83020  Biso   1.000  C
  H488     1.0000 0.13970  0.45920  0.84410  Biso   1.000  H
  C666     1.0000 0.16580  0.48020  0.78950  Biso   1.000  C
  H489     1.0000 0.14040  0.48720  0.77610  Biso   1.000  H
  C667     1.0000 0.20400  0.48660  0.76880  Biso   1.000  C
  C668     1.0000 0.24190  0.47630  0.78870  Biso   1.000  C
  H490     1.0000 0.26750  0.48060  0.77470  Biso   1.000  H
  C669     1.0000 0.24140  0.45960  0.82930  Biso   1.000  C
  H491     1.0000 0.26680  0.45270  0.84270  Biso   1.000  H
  C670     1.0000 0.20770  0.46240  0.85770  Biso   1.000  C
  C671     1.0000 0.18380  0.49790  0.84780  Biso   1.000  C
  H492     1.0000 0.16680  0.51050  0.86840  Biso   1.000  H
  C672     1.0000 0.18540  0.51480  0.80730  Biso   1.000  C
  H493     1.0000 0.16940  0.53870  0.80060  Biso   1.000  H
  C673     1.0000 0.21070  0.49610  0.77660  Biso   1.000  C
  C674     1.0000 0.23460  0.46050  0.78660  Biso   1.000  C
  H494     1.0000 0.25160  0.44800  0.76600  Biso   1.000  H
  C675     1.0000 0.23300  0.44370  0.82710  Biso   1.000  C
  H495     1.0000 0.24900  0.41980  0.83380  Biso   1.000  H
  N91      1.0000 0.72160  0.90900  0.45545  Biso   1.000  N
  C676     1.0000 0.73435  0.91780  0.41507  Biso   1.000  C
  H496     1.0000 0.75960  0.90900  0.40260  Biso   1.000  H
  N92      1.0000 0.70360  0.94160  0.39624  Biso   1.000  N
  C677     1.0000 0.67190  0.94760  0.42500  Biso   1.000  C
  H497     1.0000 0.64700  0.96280  0.42040  Biso   1.000  H
  C678     1.0000 0.68300  0.92750  0.46157  Biso   1.000  C
  H498     1.0000 0.66700  0.92650  0.48630  Biso   1.000  H
  C679     1.0000 0.70320  0.95320  0.35010  Biso   1.000  C
  C680     1.0000 0.66540  0.96350  0.33020  Biso   1.000  C
  H499     1.0000 0.63970  0.95920  0.34410  Biso   1.000  H
  C681     1.0000 0.66580  0.98020  0.28950  Biso   1.000  C
  H500     1.0000 0.64040  0.98720  0.27610  Biso   1.000  H
  C682     1.0000 0.70400  0.98660  0.26880  Biso   1.000  C
  C683     1.0000 0.74190  0.97630  0.28870  Biso   1.000  C
  H501     1.0000 0.76750  0.98060  0.27470  Biso   1.000  H
  C684     1.0000 0.74140  0.95960  0.32930  Biso   1.000  C
  H502     1.0000 0.76680  0.95270  0.34270  Biso   1.000  H
  C685     1.0000 0.70770  0.96240  0.35770  Biso   1.000  C
  C686     1.0000 0.68380  0.99790  0.34780  Biso   1.000  C
  H503     1.0000 0.66680  0.01050  0.36840  Biso   1.000  H
  C687     1.0000 0.68540  0.01480  0.30730  Biso   1.000  C
  H504     1.0000 0.66940  0.03870  0.30060  Biso   1.000  H
  C688     1.0000 0.71070  0.99610  0.27660  Biso   1.000  C
  C689     1.0000 0.73460  0.96050  0.28660  Biso   1.000  C
  H505     1.0000 0.75160  0.94800  0.26600  Biso   1.000  H
  C690     1.0000 0.73300  0.94370  0.32710  Biso   1.000  C
  H506     1.0000 0.74900  0.91980  0.33380  Biso   1.000  H
  N93      1.0000 0.77840  0.90900  0.54455  Biso   1.000  N
  C691     1.0000 0.76565  0.91780  0.58493  Biso   1.000  C
  H507     1.0000 0.74040  0.90900  0.59740  Biso   1.000  H
  N94      1.0000 0.79640  0.94160  0.60376  Biso   1.000  N
  C692     1.0000 0.82810  0.94760  0.57500  Biso   1.000  C
  H508     1.0000 0.85300  0.96280  0.57960  Biso   1.000  H
  C693     1.0000 0.81700  0.92750  0.53843  Biso   1.000  C
  H509     1.0000 0.83300  0.92650  0.51370  Biso   1.000  H
  C694     1.0000 0.79680  0.95320  0.64990  Biso   1.000  C
  C695     1.0000 0.83460  0.96350  0.66980  Biso   1.000  C
  H510     1.0000 0.86030  0.95920  0.65590  Biso   1.000  H
  C696     1.0000 0.83420  0.98020  0.71050  Biso   1.000  C
  H511     1.0000 0.85960  0.98720  0.72390  Biso   1.000  H
  C697     1.0000 0.79600  0.98660  0.73120  Biso   1.000  C
  C698     1.0000 0.75810  0.97630  0.71130  Biso   1.000  C
  H512     1.0000 0.73250  0.98060  0.72530  Biso   1.000  H
  C699     1.0000 0.75860  0.95960  0.67070  Biso   1.000  C
  H513     1.0000 0.73320  0.95270  0.65730  Biso   1.000  H
  C700     1.0000 0.79230  0.96240  0.64230  Biso   1.000  C
  C701     1.0000 0.81620  0.99790  0.65220  Biso   1.000  C
  H514     1.0000 0.83320  0.01050  0.63160  Biso   1.000  H
  C702     1.0000 0.81460  0.01480  0.69270  Biso   1.000  C
  H515     1.0000 0.83060  0.03870  0.69940  Biso   1.000  H
  C703     1.0000 0.78930  0.99610  0.72340  Biso   1.000  C
  C704     1.0000 0.76540  0.96050  0.71340  Biso   1.000  C
  H516     1.0000 0.74840  0.94800  0.73400  Biso   1.000  H
  C705     1.0000 0.76700  0.94370  0.67290  Biso   1.000  C
  H517     1.0000 0.75100  0.91980  0.66620  Biso   1.000  H
  N95      1.0000 0.27840  0.40900  0.04455  Biso   1.000  N
  C706     1.0000 0.26565  0.41780  0.08493  Biso   1.000  C
  H518     1.0000 0.24040  0.40900  0.09740  Biso   1.000  H
  N96      1.0000 0.29640  0.44160  0.10376  Biso   1.000  N
  C707     1.0000 0.32810  0.44760  0.07500  Biso   1.000  C
  H519     1.0000 0.35300  0.46280  0.07960  Biso   1.000  H
  C708     1.0000 0.31700  0.42750  0.03843  Biso   1.000  C
  H520     1.0000 0.33300  0.42650  0.01370  Biso   1.000  H
  C709     1.0000 0.29680  0.45320  0.14990  Biso   1.000  C
  C710     1.0000 0.33460  0.46350  0.16980  Biso   1.000  C
  H521     1.0000 0.36030  0.45920  0.15590  Biso   1.000  H
  C711     1.0000 0.33420  0.48020  0.21050  Biso   1.000  C
  H522     1.0000 0.35960  0.48720  0.22390  Biso   1.000  H
  C712     1.0000 0.29600  0.48660  0.23120  Biso   1.000  C
  C713     1.0000 0.25810  0.47630  0.21130  Biso   1.000  C
  H523     1.0000 0.23250  0.48060  0.22530  Biso   1.000  H
  C714     1.0000 0.25860  0.45960  0.17070  Biso   1.000  C
  H524     1.0000 0.23320  0.45270  0.15730  Biso   1.000  H
  C715     1.0000 0.29230  0.46240  0.14230  Biso   1.000  C
  C716     1.0000 0.31620  0.49790  0.15220  Biso   1.000  C
  H525     1.0000 0.33320  0.51050  0.13160  Biso   1.000  H
  C717     1.0000 0.31460  0.51480  0.19270  Biso   1.000  C
  H526     1.0000 0.33060  0.53870  0.19940  Biso   1.000  H
  C718     1.0000 0.28930  0.49610  0.22340  Biso   1.000  C
  C719     1.0000 0.26540  0.46050  0.21340  Biso   1.000  C
  H527     1.0000 0.24840  0.44800  0.23400  Biso   1.000  H
  C720     1.0000 0.26700  0.44370  0.17290  Biso   1.000  C
  H528     1.0000 0.25100  0.41980  0.16620  Biso   1.000  H
  Zn9      1.0000 0.75000  0.12500  0.00000  Biso   1.000  Zn
  Zn10     1.0000 0.25000  0.62500  0.50000  Biso   1.000  Zn
  Zn11     1.0000 0.25000  0.37500  0.00000  Biso   1.000  Zn
  Zn12     1.0000 0.75000  0.87500  0.50000  Biso   1.000  Zn
  N97      1.0000 0.45545  0.22160  0.09100  Biso   1.000  N
  C721     1.0000 0.41507  0.23435  0.08220  Biso   1.000  C
  H529     1.0000 0.40260  0.25960  0.09100  Biso   1.000  H
  N98      1.0000 0.39624  0.20360  0.05840  Biso   1.000  N
  C722     1.0000 0.42500  0.17190  0.05240  Biso   1.000  C
  H530     1.0000 0.42040  0.14700  0.03720  Biso   1.000  H
  C723     1.0000 0.46157  0.18300  0.07250  Biso   1.000  C
  H531     1.0000 0.48630  0.16700  0.07350  Biso   1.000  H
  C724     1.0000 0.35010  0.20320  0.04680  Biso   1.000  C
  C725     1.0000 0.33020  0.16540  0.03650  Biso   1.000  C
  H532     1.0000 0.34410  0.13970  0.04080  Biso   1.000  H
  C726     1.0000 0.28950  0.16580  0.01980  Biso   1.000  C
  H533     1.0000 0.27610  0.14040  0.01280  Biso   1.000  H
  C727     1.0000 0.26880  0.20400  0.01340  Biso   1.000  C
  C728     1.0000 0.28870  0.24190  0.02370  Biso   1.000  C
  H534     1.0000 0.27470  0.26750  0.01940  Biso   1.000  H
  C729     1.0000 0.32930  0.24140  0.04040  Biso   1.000  C
  H535     1.0000 0.34270  0.26680  0.04730  Biso   1.000  H
  C730     1.0000 0.35770  0.20770  0.03760  Biso   1.000  C
  C731     1.0000 0.34780  0.18380  0.00210  Biso   1.000  C
  H536     1.0000 0.36840  0.16680  0.98950  Biso   1.000  H
  C732     1.0000 0.30730  0.18540  0.98520  Biso   1.000  C
  H537     1.0000 0.30060  0.16940  0.96130  Biso   1.000  H
  C733     1.0000 0.27660  0.21070  0.00390  Biso   1.000  C
  C734     1.0000 0.28660  0.23460  0.03950  Biso   1.000  C
  H538     1.0000 0.26600  0.25160  0.05200  Biso   1.000  H
  C735     1.0000 0.32710  0.23300  0.05630  Biso   1.000  C
  H539     1.0000 0.33380  0.24900  0.08020  Biso   1.000  H
  N99      1.0000 0.95545  0.72160  0.59100  Biso   1.000  N
  C736     1.0000 0.91507  0.73435  0.58220  Biso   1.000  C
  H540     1.0000 0.90260  0.75960  0.59100  Biso   1.000  H
  N100     1.0000 0.89624  0.70360  0.55840  Biso   1.000  N
  C737     1.0000 0.92500  0.67190  0.55240  Biso   1.000  C
  H541     1.0000 0.92040  0.64700  0.53720  Biso   1.000  H
  C738     1.0000 0.96157  0.68300  0.57250  Biso   1.000  C
  H542     1.0000 0.98630  0.66700  0.57350  Biso   1.000  H
  C739     1.0000 0.85010  0.70320  0.54680  Biso   1.000  C
  C740     1.0000 0.83020  0.66540  0.53650  Biso   1.000  C
  H543     1.0000 0.84410  0.63970  0.54080  Biso   1.000  H
  C741     1.0000 0.78950  0.66580  0.51980  Biso   1.000  C
  H544     1.0000 0.77610  0.64040  0.51280  Biso   1.000  H
  C742     1.0000 0.76880  0.70400  0.51340  Biso   1.000  C
  C743     1.0000 0.78870  0.74190  0.52370  Biso   1.000  C
  H545     1.0000 0.77470  0.76750  0.51940  Biso   1.000  H
  C744     1.0000 0.82930  0.74140  0.54040  Biso   1.000  C
  H546     1.0000 0.84270  0.76680  0.54730  Biso   1.000  H
  C745     1.0000 0.85770  0.70770  0.53760  Biso   1.000  C
  C746     1.0000 0.84780  0.68380  0.50210  Biso   1.000  C
  H547     1.0000 0.86840  0.66680  0.48950  Biso   1.000  H
  C747     1.0000 0.80730  0.68540  0.48520  Biso   1.000  C
  H548     1.0000 0.80060  0.66940  0.46130  Biso   1.000  H
  C748     1.0000 0.77660  0.71070  0.50390  Biso   1.000  C
  C749     1.0000 0.78660  0.73460  0.53950  Biso   1.000  C
  H549     1.0000 0.76600  0.75160  0.55200  Biso   1.000  H
  C750     1.0000 0.82710  0.73300  0.55630  Biso   1.000  C
  H550     1.0000 0.83380  0.74900  0.58020  Biso   1.000  H
  N101     1.0000 0.04455  0.77840  0.59100  Biso   1.000  N
  C751     1.0000 0.08493  0.76565  0.58220  Biso   1.000  C
  H551     1.0000 0.09740  0.74040  0.59100  Biso   1.000  H
  N102     1.0000 0.10376  0.79640  0.55840  Biso   1.000  N
  C752     1.0000 0.07500  0.82810  0.55240  Biso   1.000  C
  H552     1.0000 0.07960  0.85300  0.53720  Biso   1.000  H
  C753     1.0000 0.03843  0.81700  0.57250  Biso   1.000  C
  H553     1.0000 0.01370  0.83300  0.57350  Biso   1.000  H
  C754     1.0000 0.14990  0.79680  0.54680  Biso   1.000  C
  C755     1.0000 0.16980  0.83460  0.53650  Biso   1.000  C
  H554     1.0000 0.15590  0.86030  0.54080  Biso   1.000  H
  C756     1.0000 0.21050  0.83420  0.51980  Biso   1.000  C
  H555     1.0000 0.22390  0.85960  0.51280  Biso   1.000  H
  C757     1.0000 0.23120  0.79600  0.51340  Biso   1.000  C
  C758     1.0000 0.21130  0.75810  0.52370  Biso   1.000  C
  H556     1.0000 0.22530  0.73250  0.51940  Biso   1.000  H
  C759     1.0000 0.17070  0.75860  0.54040  Biso   1.000  C
  H557     1.0000 0.15730  0.73320  0.54730  Biso   1.000  H
  C760     1.0000 0.14230  0.79230  0.53760  Biso   1.000  C
  C761     1.0000 0.15220  0.81620  0.50210  Biso   1.000  C
  H558     1.0000 0.13160  0.83320  0.48950  Biso   1.000  H
  C762     1.0000 0.19270  0.81460  0.48520  Biso   1.000  C
  H559     1.0000 0.19940  0.83060  0.46130  Biso   1.000  H
  C763     1.0000 0.22340  0.78930  0.50390  Biso   1.000  C
  C764     1.0000 0.21340  0.76540  0.53950  Biso   1.000  C
  H560     1.0000 0.23400  0.74840  0.55200  Biso   1.000  H
  C765     1.0000 0.17290  0.76700  0.55630  Biso   1.000  C
  H561     1.0000 0.16620  0.75100  0.58020  Biso   1.000  H
  N103     1.0000 0.54455  0.27840  0.09100  Biso   1.000  N
  C766     1.0000 0.58493  0.26565  0.08220  Biso   1.000  C
  H562     1.0000 0.59740  0.24040  0.09100  Biso   1.000  H
  N104     1.0000 0.60376  0.29640  0.05840  Biso   1.000  N
  C767     1.0000 0.57500  0.32810  0.05240  Biso   1.000  C
  H563     1.0000 0.57960  0.35300  0.03720  Biso   1.000  H
  C768     1.0000 0.53843  0.31700  0.07250  Biso   1.000  C
  H564     1.0000 0.51370  0.33300  0.07350  Biso   1.000  H
  C769     1.0000 0.64990  0.29680  0.04680  Biso   1.000  C
  C770     1.0000 0.66980  0.33460  0.03650  Biso   1.000  C
  H565     1.0000 0.65590  0.36030  0.04080  Biso   1.000  H
  C771     1.0000 0.71050  0.33420  0.01980  Biso   1.000  C
  H566     1.0000 0.72390  0.35960  0.01280  Biso   1.000  H
  C772     1.0000 0.73120  0.29600  0.01340  Biso   1.000  C
  C773     1.0000 0.71130  0.25810  0.02370  Biso   1.000  C
  H567     1.0000 0.72530  0.23250  0.01940  Biso   1.000  H
  C774     1.0000 0.67070  0.25860  0.04040  Biso   1.000  C
  H568     1.0000 0.65730  0.23320  0.04730  Biso   1.000  H
  C775     1.0000 0.64230  0.29230  0.03760  Biso   1.000  C
  C776     1.0000 0.65220  0.31620  0.00210  Biso   1.000  C
  H569     1.0000 0.63160  0.33320  0.98950  Biso   1.000  H
  C777     1.0000 0.69270  0.31460  0.98520  Biso   1.000  C
  H570     1.0000 0.69940  0.33060  0.96130  Biso   1.000  H
  C778     1.0000 0.72340  0.28930  0.00390  Biso   1.000  C
  C779     1.0000 0.71340  0.26540  0.03950  Biso   1.000  C
  H571     1.0000 0.73400  0.24840  0.05200  Biso   1.000  H
  C780     1.0000 0.67290  0.26700  0.05630  Biso   1.000  C
  H572     1.0000 0.66620  0.25100  0.08020  Biso   1.000  H
  N105     1.0000 0.95545  0.27840  0.90900  Biso   1.000  N
  C781     1.0000 0.91507  0.26565  0.91780  Biso   1.000  C
  H573     1.0000 0.90260  0.24040  0.90900  Biso   1.000  H
  N106     1.0000 0.89624  0.29640  0.94160  Biso   1.000  N
  C782     1.0000 0.92500  0.32810  0.94760  Biso   1.000  C
  H574     1.0000 0.92040  0.35300  0.96280  Biso   1.000  H
  C783     1.0000 0.96157  0.31700  0.92750  Biso   1.000  C
  H575     1.0000 0.98630  0.33300  0.92650  Biso   1.000  H
  C784     1.0000 0.85010  0.29680  0.95320  Biso   1.000  C
  C785     1.0000 0.83020  0.33460  0.96350  Biso   1.000  C
  H576     1.0000 0.84410  0.36030  0.95920  Biso   1.000  H
  C786     1.0000 0.78950  0.33420  0.98020  Biso   1.000  C
  H577     1.0000 0.77610  0.35960  0.98720  Biso   1.000  H
  C787     1.0000 0.76880  0.29600  0.98660  Biso   1.000  C
  C788     1.0000 0.78870  0.25810  0.97630  Biso   1.000  C
  H578     1.0000 0.77470  0.23250  0.98060  Biso   1.000  H
  C789     1.0000 0.82930  0.25860  0.95960  Biso   1.000  C
  H579     1.0000 0.84270  0.23320  0.95270  Biso   1.000  H
  C790     1.0000 0.85770  0.29230  0.96240  Biso   1.000  C
  C791     1.0000 0.84780  0.31620  0.99790  Biso   1.000  C
  H580     1.0000 0.86840  0.33320  0.01050  Biso   1.000  H
  C792     1.0000 0.80730  0.31460  0.01480  Biso   1.000  C
  H581     1.0000 0.80060  0.33060  0.03870  Biso   1.000  H
  C793     1.0000 0.77660  0.28930  0.99610  Biso   1.000  C
  C794     1.0000 0.78660  0.26540  0.96050  Biso   1.000  C
  H582     1.0000 0.76600  0.24840  0.94800  Biso   1.000  H
  C795     1.0000 0.82710  0.26700  0.94370  Biso   1.000  C
  H583     1.0000 0.83380  0.25100  0.91980  Biso   1.000  H
  N107     1.0000 0.45545  0.77840  0.40900  Biso   1.000  N
  C796     1.0000 0.41507  0.76565  0.41780  Biso   1.000  C
  H584     1.0000 0.40260  0.74040  0.40900  Biso   1.000  H
  N108     1.0000 0.39624  0.79640  0.44160  Biso   1.000  N
  C797     1.0000 0.42500  0.82810  0.44760  Biso   1.000  C
  H585     1.0000 0.42040  0.85300  0.46280  Biso   1.000  H
  C798     1.0000 0.46157  0.81700  0.42750  Biso   1.000  C
  H586     1.0000 0.48630  0.83300  0.42650  Biso   1.000  H
  C799     1.0000 0.35010  0.79680  0.45320  Biso   1.000  C
  C800     1.0000 0.33020  0.83460  0.46350  Biso   1.000  C
  H587     1.0000 0.34410  0.86030  0.45920  Biso   1.000  H
  C801     1.0000 0.28950  0.83420  0.48020  Biso   1.000  C
  H588     1.0000 0.27610  0.85960  0.48720  Biso   1.000  H
  C802     1.0000 0.26880  0.79600  0.48660  Biso   1.000  C
  C803     1.0000 0.28870  0.75810  0.47630  Biso   1.000  C
  H589     1.0000 0.27470  0.73250  0.48060  Biso   1.000  H
  C804     1.0000 0.32930  0.75860  0.45960  Biso   1.000  C
  H590     1.0000 0.34270  0.73320  0.45270  Biso   1.000  H
  C805     1.0000 0.35770  0.79230  0.46240  Biso   1.000  C
  C806     1.0000 0.34780  0.81620  0.49790  Biso   1.000  C
  H591     1.0000 0.36840  0.83320  0.51050  Biso   1.000  H
  C807     1.0000 0.30730  0.81460  0.51480  Biso   1.000  C
  H592     1.0000 0.30060  0.83060  0.53870  Biso   1.000  H
  C808     1.0000 0.27660  0.78930  0.49610  Biso   1.000  C
  C809     1.0000 0.28660  0.76540  0.46050  Biso   1.000  C
  H593     1.0000 0.26600  0.74840  0.44800  Biso   1.000  H
  C810     1.0000 0.32710  0.76700  0.44370  Biso   1.000  C
  H594     1.0000 0.33380  0.75100  0.41980  Biso   1.000  H
  N109     1.0000 0.54455  0.72160  0.40900  Biso   1.000  N
  C811     1.0000 0.58493  0.73435  0.41780  Biso   1.000  C
  H595     1.0000 0.59740  0.75960  0.40900  Biso   1.000  H
  N110     1.0000 0.60376  0.70360  0.44160  Biso   1.000  N
  C812     1.0000 0.57500  0.67190  0.44760  Biso   1.000  C
  H596     1.0000 0.57960  0.64700  0.46280  Biso   1.000  H
  C813     1.0000 0.53843  0.68300  0.42750  Biso   1.000  C
  H597     1.0000 0.51370  0.66700  0.42650  Biso   1.000  H
  C814     1.0000 0.64990  0.70320  0.45320  Biso   1.000  C
  C815     1.0000 0.66980  0.66540  0.46350  Biso   1.000  C
  H598     1.0000 0.65590  0.63970  0.45920  Biso   1.000  H
  C816     1.0000 0.71050  0.66580  0.48020  Biso   1.000  C
  H599     1.0000 0.72390  0.64040  0.48720  Biso   1.000  H
  C817     1.0000 0.73120  0.70400  0.48660  Biso   1.000  C
  C818     1.0000 0.71130  0.74190  0.47630  Biso   1.000  C
  H600     1.0000 0.72530  0.76750  0.48060  Biso   1.000  H
  C819     1.0000 0.67070  0.74140  0.45960  Biso   1.000  C
  H601     1.0000 0.65730  0.76680  0.45270  Biso   1.000  H
  C820     1.0000 0.64230  0.70770  0.46240  Biso   1.000  C
  C821     1.0000 0.65220  0.68380  0.49790  Biso   1.000  C
  H602     1.0000 0.63160  0.66680  0.51050  Biso   1.000  H
  C822     1.0000 0.69270  0.68540  0.51480  Biso   1.000  C
  H603     1.0000 0.69940  0.66940  0.53870  Biso   1.000  H
  C823     1.0000 0.72340  0.71070  0.49610  Biso   1.000  C
  C824     1.0000 0.71340  0.73460  0.46050  Biso   1.000  C
  H604     1.0000 0.73400  0.75160  0.44800  Biso   1.000  H
  C825     1.0000 0.67290  0.73300  0.44370  Biso   1.000  C
  H605     1.0000 0.66620  0.74900  0.41980  Biso   1.000  H
  N111     1.0000 0.04455  0.22160  0.90900  Biso   1.000  N
  C826     1.0000 0.08493  0.23435  0.91780  Biso   1.000  C
  H606     1.0000 0.09740  0.25960  0.90900  Biso   1.000  H
  N112     1.0000 0.10376  0.20360  0.94160  Biso   1.000  N
  C827     1.0000 0.07500  0.17190  0.94760  Biso   1.000  C
  H607     1.0000 0.07960  0.14700  0.96280  Biso   1.000  H
  C828     1.0000 0.03843  0.18300  0.92750  Biso   1.000  C
  H608     1.0000 0.01370  0.16700  0.92650  Biso   1.000  H
  C829     1.0000 0.14990  0.20320  0.95320  Biso   1.000  C
  C830     1.0000 0.16980  0.16540  0.96350  Biso   1.000  C
  H609     1.0000 0.15590  0.13970  0.95920  Biso   1.000  H
  C831     1.0000 0.21050  0.16580  0.98020  Biso   1.000  C
  H610     1.0000 0.22390  0.14040  0.98720  Biso   1.000  H
  C832     1.0000 0.23120  0.20400  0.98660  Biso   1.000  C
  C833     1.0000 0.21130  0.24190  0.97630  Biso   1.000  C
  H611     1.0000 0.22530  0.26750  0.98060  Biso   1.000  H
  C834     1.0000 0.17070  0.24140  0.95960  Biso   1.000  C
  H612     1.0000 0.15730  0.26680  0.95270  Biso   1.000  H
  C835     1.0000 0.14230  0.20770  0.96240  Biso   1.000  C
  C836     1.0000 0.15220  0.18380  0.99790  Biso   1.000  C
  H613     1.0000 0.13160  0.16680  0.01050  Biso   1.000  H
  C837     1.0000 0.19270  0.18540  0.01480  Biso   1.000  C
  H614     1.0000 0.19940  0.16940  0.03870  Biso   1.000  H
  C838     1.0000 0.22340  0.21070  0.99610  Biso   1.000  C
  C839     1.0000 0.21340  0.23460  0.96050  Biso   1.000  C
  H615     1.0000 0.23400  0.25160  0.94800  Biso   1.000  H
  C840     1.0000 0.17290  0.23300  0.94370  Biso   1.000  C
  H616     1.0000 0.16620  0.24900  0.91980  Biso   1.000  H
  N113     1.0000 0.02840  0.29455  0.84100  Biso   1.000  N
  C841     1.0000 0.01565  0.33493  0.83220  Biso   1.000  C
  H617     1.0000 0.99040  0.34740  0.84100  Biso   1.000  H
  N114     1.0000 0.04640  0.35376  0.80840  Biso   1.000  N
  C842     1.0000 0.07810  0.32500  0.80240  Biso   1.000  C
  H618     1.0000 0.10300  0.32960  0.78720  Biso   1.000  H
  C843     1.0000 0.06700  0.28843  0.82250  Biso   1.000  C
  H619     1.0000 0.08300  0.26370  0.82350  Biso   1.000  H
  C844     1.0000 0.04680  0.39990  0.79680  Biso   1.000  C
  C845     1.0000 0.08460  0.41980  0.78650  Biso   1.000  C
  H620     1.0000 0.11030  0.40590  0.79080  Biso   1.000  H
  C846     1.0000 0.08420  0.46050  0.76980  Biso   1.000  C
  H621     1.0000 0.10960  0.47390  0.76280  Biso   1.000  H
  C847     1.0000 0.04600  0.48120  0.76340  Biso   1.000  C
  C848     1.0000 0.00810  0.46130  0.77370  Biso   1.000  C
  H622     1.0000 0.98250  0.47530  0.76940  Biso   1.000  H
  C849     1.0000 0.00860  0.42070  0.79040  Biso   1.000  C
  H623     1.0000 0.98320  0.40730  0.79730  Biso   1.000  H
  C850     1.0000 0.04230  0.39230  0.78760  Biso   1.000  C
  C851     1.0000 0.06620  0.40220  0.75210  Biso   1.000  C
  H624     1.0000 0.08320  0.38160  0.73950  Biso   1.000  H
  C852     1.0000 0.06460  0.44270  0.73520  Biso   1.000  C
  H625     1.0000 0.08060  0.44940  0.71130  Biso   1.000  H
  C853     1.0000 0.03930  0.47340  0.75390  Biso   1.000  C
  C854     1.0000 0.01540  0.46340  0.78950  Biso   1.000  C
  H626     1.0000 0.99840  0.48400  0.80200  Biso   1.000  H
  C855     1.0000 0.01700  0.42290  0.80630  Biso   1.000  C
  H627     1.0000 0.00100  0.41620  0.83020  Biso   1.000  H
  N115     1.0000 0.52840  0.79455  0.34100  Biso   1.000  N
  C856     1.0000 0.51565  0.83493  0.33220  Biso   1.000  C
  H628     1.0000 0.49040  0.84740  0.34100  Biso   1.000  H
  N116     1.0000 0.54640  0.85376  0.30840  Biso   1.000  N
  C857     1.0000 0.57810  0.82500  0.30240  Biso   1.000  C
  H629     1.0000 0.60300  0.82960  0.28720  Biso   1.000  H
  C858     1.0000 0.56700  0.78843  0.32250  Biso   1.000  C
  H630     1.0000 0.58300  0.76370  0.32350  Biso   1.000  H
  C859     1.0000 0.54680  0.89990  0.29680  Biso   1.000  C
  C860     1.0000 0.58460  0.91980  0.28650  Biso   1.000  C
  H631     1.0000 0.61030  0.90590  0.29080  Biso   1.000  H
  C861     1.0000 0.58420  0.96050  0.26980  Biso   1.000  C
  H632     1.0000 0.60960  0.97390  0.26280  Biso   1.000  H
  C862     1.0000 0.54600  0.98120  0.26340  Biso   1.000  C
  C863     1.0000 0.50810  0.96130  0.27370  Biso   1.000  C
  H633     1.0000 0.48250  0.97530  0.26940  Biso   1.000  H
  C864     1.0000 0.50860  0.92070  0.29040  Biso   1.000  C
  H634     1.0000 0.48320  0.90730  0.29730  Biso   1.000  H
  C865     1.0000 0.54230  0.89230  0.28760  Biso   1.000  C
  C866     1.0000 0.56620  0.90220  0.25210  Biso   1.000  C
  H635     1.0000 0.58320  0.88160  0.23950  Biso   1.000  H
  C867     1.0000 0.56460  0.94270  0.23520  Biso   1.000  C
  H636     1.0000 0.58060  0.94940  0.21130  Biso   1.000  H
  C868     1.0000 0.53930  0.97340  0.25390  Biso   1.000  C
  C869     1.0000 0.51540  0.96340  0.28950  Biso   1.000  C
  H637     1.0000 0.49840  0.98400  0.30200  Biso   1.000  H
  C870     1.0000 0.51700  0.92290  0.30630  Biso   1.000  C
  H638     1.0000 0.50100  0.91620  0.33020  Biso   1.000  H
  N117     1.0000 0.47160  0.70545  0.34100  Biso   1.000  N
  C871     1.0000 0.48435  0.66507  0.33220  Biso   1.000  C
  H639     1.0000 0.50960  0.65260  0.34100  Biso   1.000  H
  N118     1.0000 0.45360  0.64624  0.30840  Biso   1.000  N
  C872     1.0000 0.42190  0.67500  0.30240  Biso   1.000  C
  H640     1.0000 0.39700  0.67040  0.28720  Biso   1.000  H
  C873     1.0000 0.43300  0.71157  0.32250  Biso   1.000  C
  H641     1.0000 0.41700  0.73630  0.32350  Biso   1.000  H
  C874     1.0000 0.45320  0.60010  0.29680  Biso   1.000  C
  C875     1.0000 0.41540  0.58020  0.28650  Biso   1.000  C
  H642     1.0000 0.38970  0.59410  0.29080  Biso   1.000  H
  C876     1.0000 0.41580  0.53950  0.26980  Biso   1.000  C
  H643     1.0000 0.39040  0.52610  0.26280  Biso   1.000  H
  C877     1.0000 0.45400  0.51880  0.26340  Biso   1.000  C
  C878     1.0000 0.49190  0.53870  0.27370  Biso   1.000  C
  H644     1.0000 0.51750  0.52470  0.26940  Biso   1.000  H
  C879     1.0000 0.49140  0.57930  0.29040  Biso   1.000  C
  H645     1.0000 0.51680  0.59270  0.29730  Biso   1.000  H
  C880     1.0000 0.45770  0.60770  0.28760  Biso   1.000  C
  C881     1.0000 0.43380  0.59780  0.25210  Biso   1.000  C
  H646     1.0000 0.41680  0.61840  0.23950  Biso   1.000  H
  C882     1.0000 0.43540  0.55730  0.23520  Biso   1.000  C
  H647     1.0000 0.41940  0.55060  0.21130  Biso   1.000  H
  C883     1.0000 0.46070  0.52660  0.25390  Biso   1.000  C
  C884     1.0000 0.48460  0.53660  0.28950  Biso   1.000  C
  H648     1.0000 0.50160  0.51600  0.30200  Biso   1.000  H
  C885     1.0000 0.48300  0.57710  0.30630  Biso   1.000  C
  H649     1.0000 0.49900  0.58380  0.33020  Biso   1.000  H
  N119     1.0000 0.97160  0.20545  0.84100  Biso   1.000  N
  C886     1.0000 0.98435  0.16507  0.83220  Biso   1.000  C
  H650     1.0000 0.00960  0.15260  0.84100  Biso   1.000  H
  N120     1.0000 0.95360  0.14624  0.80840  Biso   1.000  N
  C887     1.0000 0.92190  0.17500  0.80240  Biso   1.000  C
  H651     1.0000 0.89700  0.17040  0.78720  Biso   1.000  H
  C888     1.0000 0.93300  0.21157  0.82250  Biso   1.000  C
  H652     1.0000 0.91700  0.23630  0.82350  Biso   1.000  H
  C889     1.0000 0.95320  0.10010  0.79680  Biso   1.000  C
  C890     1.0000 0.91540  0.08020  0.78650  Biso   1.000  C
  H653     1.0000 0.88970  0.09410  0.79080  Biso   1.000  H
  C891     1.0000 0.91580  0.03950  0.76980  Biso   1.000  C
  H654     1.0000 0.89040  0.02610  0.76280  Biso   1.000  H
  C892     1.0000 0.95400  0.01880  0.76340  Biso   1.000  C
  C893     1.0000 0.99190  0.03870  0.77370  Biso   1.000  C
  H655     1.0000 0.01750  0.02470  0.76940  Biso   1.000  H
  C894     1.0000 0.99140  0.07930  0.79040  Biso   1.000  C
  H656     1.0000 0.01680  0.09270  0.79730  Biso   1.000  H
  C895     1.0000 0.95770  0.10770  0.78760  Biso   1.000  C
  C896     1.0000 0.93380  0.09780  0.75210  Biso   1.000  C
  H657     1.0000 0.91680  0.11840  0.73950  Biso   1.000  H
  C897     1.0000 0.93540  0.05730  0.73520  Biso   1.000  C
  H658     1.0000 0.91940  0.05060  0.71130  Biso   1.000  H
  C898     1.0000 0.96070  0.02660  0.75390  Biso   1.000  C
  C899     1.0000 0.98460  0.03660  0.78950  Biso   1.000  C
  H659     1.0000 0.00160  0.01600  0.80200  Biso   1.000  H
  C900     1.0000 0.98300  0.07710  0.80630  Biso   1.000  C
  H660     1.0000 0.99900  0.08380  0.83020  Biso   1.000  H
  N121     1.0000 0.97160  0.79455  0.65900  Biso   1.000  N
  C901     1.0000 0.98435  0.83493  0.66780  Biso   1.000  C
  H661     1.0000 0.00960  0.84740  0.65900  Biso   1.000  H
  N122     1.0000 0.95360  0.85376  0.69160  Biso   1.000  N
  C902     1.0000 0.92190  0.82500  0.69760  Biso   1.000  C
  H662     1.0000 0.89700  0.82960  0.71280  Biso   1.000  H
  C903     1.0000 0.93300  0.78843  0.67750  Biso   1.000  C
  H663     1.0000 0.91700  0.76370  0.67650  Biso   1.000  H
  C904     1.0000 0.95320  0.89990  0.70320  Biso   1.000  C
  C905     1.0000 0.91540  0.91980  0.71350  Biso   1.000  C
  H664     1.0000 0.88970  0.90590  0.70920  Biso   1.000  H
  C906     1.0000 0.91580  0.96050  0.73020  Biso   1.000  C
  H665     1.0000 0.89040  0.97390  0.73720  Biso   1.000  H
  C907     1.0000 0.95400  0.98120  0.73660  Biso   1.000  C
  C908     1.0000 0.99190  0.96130  0.72630  Biso   1.000  C
  H666     1.0000 0.01750  0.97530  0.73060  Biso   1.000  H
  C909     1.0000 0.99140  0.92070  0.70960  Biso   1.000  C
  H667     1.0000 0.01680  0.90730  0.70270  Biso   1.000  H
  C910     1.0000 0.95770  0.89230  0.71240  Biso   1.000  C
  C911     1.0000 0.93380  0.90220  0.74790  Biso   1.000  C
  H668     1.0000 0.91680  0.88160  0.76050  Biso   1.000  H
  C912     1.0000 0.93540  0.94270  0.76480  Biso   1.000  C
  H669     1.0000 0.91940  0.94940  0.78870  Biso   1.000  H
  C913     1.0000 0.96070  0.97340  0.74610  Biso   1.000  C
  C914     1.0000 0.98460  0.96340  0.71050  Biso   1.000  C
  H670     1.0000 0.00160  0.98400  0.69800  Biso   1.000  H
  C915     1.0000 0.98300  0.92290  0.69370  Biso   1.000  C
  H671     1.0000 0.99900  0.91620  0.66980  Biso   1.000  H
  N123     1.0000 0.47160  0.29455  0.15900  Biso   1.000  N
  C916     1.0000 0.48435  0.33493  0.16780  Biso   1.000  C
  H672     1.0000 0.50960  0.34740  0.15900  Biso   1.000  H
  N124     1.0000 0.45360  0.35376  0.19160  Biso   1.000  N
  C917     1.0000 0.42190  0.32500  0.19760  Biso   1.000  C
  H673     1.0000 0.39700  0.32960  0.21280  Biso   1.000  H
  C918     1.0000 0.43300  0.28843  0.17750  Biso   1.000  C
  H674     1.0000 0.41700  0.26370  0.17650  Biso   1.000  H
  C919     1.0000 0.45320  0.39990  0.20320  Biso   1.000  C
  C920     1.0000 0.41540  0.41980  0.21350  Biso   1.000  C
  H675     1.0000 0.38970  0.40590  0.20920  Biso   1.000  H
  C921     1.0000 0.41580  0.46050  0.23020  Biso   1.000  C
  H676     1.0000 0.39040  0.47390  0.23720  Biso   1.000  H
  C922     1.0000 0.45400  0.48120  0.23660  Biso   1.000  C
  C923     1.0000 0.49190  0.46130  0.22630  Biso   1.000  C
  H677     1.0000 0.51750  0.47530  0.23060  Biso   1.000  H
  C924     1.0000 0.49140  0.42070  0.20960  Biso   1.000  C
  H678     1.0000 0.51680  0.40730  0.20270  Biso   1.000  H
  C925     1.0000 0.45770  0.39230  0.21240  Biso   1.000  C
  C926     1.0000 0.43380  0.40220  0.24790  Biso   1.000  C
  H679     1.0000 0.41680  0.38160  0.26050  Biso   1.000  H
  C927     1.0000 0.43540  0.44270  0.26480  Biso   1.000  C
  H680     1.0000 0.41940  0.44940  0.28870  Biso   1.000  H
  C928     1.0000 0.46070  0.47340  0.24610  Biso   1.000  C
  C929     1.0000 0.48460  0.46340  0.21050  Biso   1.000  C
  H681     1.0000 0.50160  0.48400  0.19800  Biso   1.000  H
  C930     1.0000 0.48300  0.42290  0.19370  Biso   1.000  C
  H682     1.0000 0.49900  0.41620  0.16980  Biso   1.000  H
  N125     1.0000 0.52840  0.20545  0.15900  Biso   1.000  N
  C931     1.0000 0.51565  0.16507  0.16780  Biso   1.000  C
  H683     1.0000 0.49040  0.15260  0.15900  Biso   1.000  H
  N126     1.0000 0.54640  0.14624  0.19160  Biso   1.000  N
  C932     1.0000 0.57810  0.17500  0.19760  Biso   1.000  C
  H684     1.0000 0.60300  0.17040  0.21280  Biso   1.000  H
  C933     1.0000 0.56700  0.21157  0.17750  Biso   1.000  C
  H685     1.0000 0.58300  0.23630  0.17650  Biso   1.000  H
  C934     1.0000 0.54680  0.10010  0.20320  Biso   1.000  C
  C935     1.0000 0.58460  0.08020  0.21350  Biso   1.000  C
  H686     1.0000 0.61030  0.09410  0.20920  Biso   1.000  H
  C936     1.0000 0.58420  0.03950  0.23020  Biso   1.000  C
  H687     1.0000 0.60960  0.02610  0.23720  Biso   1.000  H
  C937     1.0000 0.54600  0.01880  0.23660  Biso   1.000  C
  C938     1.0000 0.50810  0.03870  0.22630  Biso   1.000  C
  H688     1.0000 0.48250  0.02470  0.23060  Biso   1.000  H
  C939     1.0000 0.50860  0.07930  0.20960  Biso   1.000  C
  H689     1.0000 0.48320  0.09270  0.20270  Biso   1.000  H
  C940     1.0000 0.54230  0.10770  0.21240  Biso   1.000  C
  C941     1.0000 0.56620  0.09780  0.24790  Biso   1.000  C
  H690     1.0000 0.58320  0.11840  0.26050  Biso   1.000  H
  C942     1.0000 0.56460  0.05730  0.26480  Biso   1.000  C
  H691     1.0000 0.58060  0.05060  0.28870  Biso   1.000  H
  C943     1.0000 0.53930  0.02660  0.24610  Biso   1.000  C
  C944     1.0000 0.51540  0.03660  0.21050  Biso   1.000  C
  H692     1.0000 0.49840  0.01600  0.19800  Biso   1.000  H
  C945     1.0000 0.51700  0.07710  0.19370  Biso   1.000  C
  H693     1.0000 0.50100  0.08380  0.16980  Biso   1.000  H
  N127     1.0000 0.02840  0.70545  0.65900  Biso   1.000  N
  C946     1.0000 0.01565  0.66507  0.66780  Biso   1.000  C
  H694     1.0000 0.99040  0.65260  0.65900  Biso   1.000  H
  N128     1.0000 0.04640  0.64624  0.69160  Biso   1.000  N
  C947     1.0000 0.07810  0.67500  0.69760  Biso   1.000  C
  H695     1.0000 0.10300  0.67040  0.71280  Biso   1.000  H
  C948     1.0000 0.06700  0.71157  0.67750  Biso   1.000  C
  H696     1.0000 0.08300  0.73630  0.67650  Biso   1.000  H
  C949     1.0000 0.04680  0.60010  0.70320  Biso   1.000  C
  C950     1.0000 0.08460  0.58020  0.71350  Biso   1.000  C
  H697     1.0000 0.11030  0.59410  0.70920  Biso   1.000  H
  C951     1.0000 0.08420  0.53950  0.73020  Biso   1.000  C
  H698     1.0000 0.10960  0.52610  0.73720  Biso   1.000  H
  C952     1.0000 0.04600  0.51880  0.73660  Biso   1.000  C
  C953     1.0000 0.00810  0.53870  0.72630  Biso   1.000  C
  H699     1.0000 0.98250  0.52470  0.73060  Biso   1.000  H
  C954     1.0000 0.00860  0.57930  0.70960  Biso   1.000  C
  H700     1.0000 0.98320  0.59270  0.70270  Biso   1.000  H
  C955     1.0000 0.04230  0.60770  0.71240  Biso   1.000  C
  C956     1.0000 0.06620  0.59780  0.74790  Biso   1.000  C
  H701     1.0000 0.08320  0.61840  0.76050  Biso   1.000  H
  C957     1.0000 0.06460  0.55730  0.76480  Biso   1.000  C
  H702     1.0000 0.08060  0.55060  0.78870  Biso   1.000  H
  C958     1.0000 0.03930  0.52660  0.74610  Biso   1.000  C
  C959     1.0000 0.01540  0.53660  0.71050  Biso   1.000  C
  H703     1.0000 0.99840  0.51600  0.69800  Biso   1.000  H
  C960     1.0000 0.01700  0.57710  0.69370  Biso   1.000  C
  H704     1.0000 0.00100  0.58380  0.66980  Biso   1.000  H
  Zn13     1.0000 0.50000  0.25000  0.12500  Biso   1.000  Zn
  Zn14     1.0000 0.00000  0.75000  0.62500  Biso   1.000  Zn
  Zn15     1.0000 0.00000  0.25000  0.87500  Biso   1.000  Zn
  Zn16     1.0000 0.50000  0.75000  0.37500  Biso   1.000  Zn
  N129     1.0000 0.72160  0.40900  0.54455  Biso   1.000  N
  C961     1.0000 0.73435  0.41780  0.58493  Biso   1.000  C
  H705     1.0000 0.75960  0.40900  0.59740  Biso   1.000  H
  N130     1.0000 0.70360  0.44160  0.60376  Biso   1.000  N
  C962     1.0000 0.67190  0.44760  0.57500  Biso   1.000  C
  H706     1.0000 0.64700  0.46280  0.57960  Biso   1.000  H
  C963     1.0000 0.68300  0.42750  0.53843  Biso   1.000  C
  H707     1.0000 0.66700  0.42650  0.51370  Biso   1.000  H
  C964     1.0000 0.70320  0.45320  0.64990  Biso   1.000  C
  C965     1.0000 0.66540  0.46350  0.66980  Biso   1.000  C
  H708     1.0000 0.63970  0.45920  0.65590  Biso   1.000  H
  C966     1.0000 0.66580  0.48020  0.71050  Biso   1.000  C
  H709     1.0000 0.64040  0.48720  0.72390  Biso   1.000  H
  C967     1.0000 0.70400  0.48660  0.73120  Biso   1.000  C
  C968     1.0000 0.74190  0.47630  0.71130  Biso   1.000  C
  H710     1.0000 0.76750  0.48060  0.72530  Biso   1.000  H
  C969     1.0000 0.74140  0.45960  0.67070  Biso   1.000  C
  H711     1.0000 0.76680  0.45270  0.65730  Biso   1.000  H
  C970     1.0000 0.70770  0.46240  0.64230  Biso   1.000  C
  C971     1.0000 0.68380  0.49790  0.65220  Biso   1.000  C
  H712     1.0000 0.66680  0.51050  0.63160  Biso   1.000  H
  C972     1.0000 0.68540  0.51480  0.69270  Biso   1.000  C
  H713     1.0000 0.66940  0.53870  0.69940  Biso   1.000  H
  C973     1.0000 0.71070  0.49610  0.72340  Biso   1.000  C
  C974     1.0000 0.73460  0.46050  0.71340  Biso   1.000  C
  H714     1.0000 0.75160  0.44800  0.73400  Biso   1.000  H
  C975     1.0000 0.73300  0.44370  0.67290  Biso   1.000  C
  H715     1.0000 0.74900  0.41980  0.66620  Biso   1.000  H
  N131     1.0000 0.22160  0.90900  0.04455  Biso   1.000  N
  C976     1.0000 0.23435  0.91780  0.08493  Biso   1.000  C
  H716     1.0000 0.25960  0.90900  0.09740  Biso   1.000  H
  N132     1.0000 0.20360  0.94160  0.10376  Biso   1.000  N
  C977     1.0000 0.17190  0.94760  0.07500  Biso   1.000  C
  H717     1.0000 0.14700  0.96280  0.07960  Biso   1.000  H
  C978     1.0000 0.18300  0.92750  0.03843  Biso   1.000  C
  H718     1.0000 0.16700  0.92650  0.01370  Biso   1.000  H
  C979     1.0000 0.20320  0.95320  0.14990  Biso   1.000  C
  C980     1.0000 0.16540  0.96350  0.16980  Biso   1.000  C
  H719     1.0000 0.13970  0.95920  0.15590  Biso   1.000  H
  C981     1.0000 0.16580  0.98020  0.21050  Biso   1.000  C
  H720     1.0000 0.14040  0.98720  0.22390  Biso   1.000  H
  C982     1.0000 0.20400  0.98660  0.23120  Biso   1.000  C
  C983     1.0000 0.24190  0.97630  0.21130  Biso   1.000  C
  H721     1.0000 0.26750  0.98060  0.22530  Biso   1.000  H
  C984     1.0000 0.24140  0.95960  0.17070  Biso   1.000  C
  H722     1.0000 0.26680  0.95270  0.15730  Biso   1.000  H
  C985     1.0000 0.20770  0.96240  0.14230  Biso   1.000  C
  C986     1.0000 0.18380  0.99790  0.15220  Biso   1.000  C
  H723     1.0000 0.16680  0.01050  0.13160  Biso   1.000  H
  C987     1.0000 0.18540  0.01480  0.19270  Biso   1.000  C
  H724     1.0000 0.16940  0.03870  0.19940  Biso   1.000  H
  C988     1.0000 0.21070  0.99610  0.22340  Biso   1.000  C
  C989     1.0000 0.23460  0.96050  0.21340  Biso   1.000  C
  H725     1.0000 0.25160  0.94800  0.23400  Biso   1.000  H
  C990     1.0000 0.23300  0.94370  0.17290  Biso   1.000  C
  H726     1.0000 0.24900  0.91980  0.16620  Biso   1.000  H
  N133     1.0000 0.27840  0.90900  0.95545  Biso   1.000  N
  C991     1.0000 0.26565  0.91780  0.91507  Biso   1.000  C
  H727     1.0000 0.24040  0.90900  0.90260  Biso   1.000  H
  N134     1.0000 0.29640  0.94160  0.89624  Biso   1.000  N
  C992     1.0000 0.32810  0.94760  0.92500  Biso   1.000  C
  H728     1.0000 0.35300  0.96280  0.92040  Biso   1.000  H
  C993     1.0000 0.31700  0.92750  0.96157  Biso   1.000  C
  H729     1.0000 0.33300  0.92650  0.98630  Biso   1.000  H
  C994     1.0000 0.29680  0.95320  0.85010  Biso   1.000  C
  C995     1.0000 0.33460  0.96350  0.83020  Biso   1.000  C
  H730     1.0000 0.36030  0.95920  0.84410  Biso   1.000  H
  C996     1.0000 0.33420  0.98020  0.78950  Biso   1.000  C
  H731     1.0000 0.35960  0.98720  0.77610  Biso   1.000  H
  C997     1.0000 0.29600  0.98660  0.76880  Biso   1.000  C
  C998     1.0000 0.25810  0.97630  0.78870  Biso   1.000  C
  H732     1.0000 0.23250  0.98060  0.77470  Biso   1.000  H
  C999     1.0000 0.25860  0.95960  0.82930  Biso   1.000  C
  H733     1.0000 0.23320  0.95270  0.84270  Biso   1.000  H
  C1000    1.0000 0.29230  0.96240  0.85770  Biso   1.000  C
  C1001    1.0000 0.31620  0.99790  0.84780  Biso   1.000  C
  H734     1.0000 0.33320  0.01050  0.86840  Biso   1.000  H
  C1002    1.0000 0.31460  0.01480  0.80730  Biso   1.000  C
  H735     1.0000 0.33060  0.03870  0.80060  Biso   1.000  H
  C1003    1.0000 0.28930  0.99610  0.77660  Biso   1.000  C
  C1004    1.0000 0.26540  0.96050  0.78660  Biso   1.000  C
  H736     1.0000 0.24840  0.94800  0.76600  Biso   1.000  H
  C1005    1.0000 0.26700  0.94370  0.82710  Biso   1.000  C
  H737     1.0000 0.25100  0.91980  0.83380  Biso   1.000  H
  N135     1.0000 0.77840  0.40900  0.45545  Biso   1.000  N
  C1006    1.0000 0.76565  0.41780  0.41507  Biso   1.000  C
  H738     1.0000 0.74040  0.40900  0.40260  Biso   1.000  H
  N136     1.0000 0.79640  0.44160  0.39624  Biso   1.000  N
  C1007    1.0000 0.82810  0.44760  0.42500  Biso   1.000  C
  H739     1.0000 0.85300  0.46280  0.42040  Biso   1.000  H
  C1008    1.0000 0.81700  0.42750  0.46157  Biso   1.000  C
  H740     1.0000 0.83300  0.42650  0.48630  Biso   1.000  H
  C1009    1.0000 0.79680  0.45320  0.35010  Biso   1.000  C
  C1010    1.0000 0.83460  0.46350  0.33020  Biso   1.000  C
  H741     1.0000 0.86030  0.45920  0.34410  Biso   1.000  H
  C1011    1.0000 0.83420  0.48020  0.28950  Biso   1.000  C
  H742     1.0000 0.85960  0.48720  0.27610  Biso   1.000  H
  C1012    1.0000 0.79600  0.48660  0.26880  Biso   1.000  C
  C1013    1.0000 0.75810  0.47630  0.28870  Biso   1.000  C
  H743     1.0000 0.73250  0.48060  0.27470  Biso   1.000  H
  C1014    1.0000 0.75860  0.45960  0.32930  Biso   1.000  C
  H744     1.0000 0.73320  0.45270  0.34270  Biso   1.000  H
  C1015    1.0000 0.79230  0.46240  0.35770  Biso   1.000  C
  C1016    1.0000 0.81620  0.49790  0.34780  Biso   1.000  C
  H745     1.0000 0.83320  0.51050  0.36840  Biso   1.000  H
  C1017    1.0000 0.81460  0.51480  0.30730  Biso   1.000  C
  H746     1.0000 0.83060  0.53870  0.30060  Biso   1.000  H
  C1018    1.0000 0.78930  0.49610  0.27660  Biso   1.000  C
  C1019    1.0000 0.76540  0.46050  0.28660  Biso   1.000  C
  H747     1.0000 0.74840  0.44800  0.26600  Biso   1.000  H
  C1020    1.0000 0.76700  0.44370  0.32710  Biso   1.000  C
  H748     1.0000 0.75100  0.41980  0.33380  Biso   1.000  H
  N137     1.0000 0.77840  0.59100  0.04455  Biso   1.000  N
  C1021    1.0000 0.76565  0.58220  0.08493  Biso   1.000  C
  H749     1.0000 0.74040  0.59100  0.09740  Biso   1.000  H
  N138     1.0000 0.79640  0.55840  0.10376  Biso   1.000  N
  C1022    1.0000 0.82810  0.55240  0.07500  Biso   1.000  C
  H750     1.0000 0.85300  0.53720  0.07960  Biso   1.000  H
  C1023    1.0000 0.81700  0.57250  0.03843  Biso   1.000  C
  H751     1.0000 0.83300  0.57350  0.01370  Biso   1.000  H
  C1024    1.0000 0.79680  0.54680  0.14990  Biso   1.000  C
  C1025    1.0000 0.83460  0.53650  0.16980  Biso   1.000  C
  H752     1.0000 0.86030  0.54080  0.15590  Biso   1.000  H
  C1026    1.0000 0.83420  0.51980  0.21050  Biso   1.000  C
  H753     1.0000 0.85960  0.51280  0.22390  Biso   1.000  H
  C1027    1.0000 0.79600  0.51340  0.23120  Biso   1.000  C
  C1028    1.0000 0.75810  0.52370  0.21130  Biso   1.000  C
  H754     1.0000 0.73250  0.51940  0.22530  Biso   1.000  H
  C1029    1.0000 0.75860  0.54040  0.17070  Biso   1.000  C
  H755     1.0000 0.73320  0.54730  0.15730  Biso   1.000  H
  C1030    1.0000 0.79230  0.53760  0.14230  Biso   1.000  C
  C1031    1.0000 0.81620  0.50210  0.15220  Biso   1.000  C
  H756     1.0000 0.83320  0.48950  0.13160  Biso   1.000  H
  C1032    1.0000 0.81460  0.48520  0.19270  Biso   1.000  C
  H757     1.0000 0.83060  0.46130  0.19940  Biso   1.000  H
  C1033    1.0000 0.78930  0.50390  0.22340  Biso   1.000  C
  C1034    1.0000 0.76540  0.53950  0.21340  Biso   1.000  C
  H758     1.0000 0.74840  0.55200  0.23400  Biso   1.000  H
  C1035    1.0000 0.76700  0.55630  0.17290  Biso   1.000  C
  H759     1.0000 0.75100  0.58020  0.16620  Biso   1.000  H
  N139     1.0000 0.27840  0.09100  0.54455  Biso   1.000  N
  C1036    1.0000 0.26565  0.08220  0.58493  Biso   1.000  C
  H760     1.0000 0.24040  0.09100  0.59740  Biso   1.000  H
  N140     1.0000 0.29640  0.05840  0.60376  Biso   1.000  N
  C1037    1.0000 0.32810  0.05240  0.57500  Biso   1.000  C
  H761     1.0000 0.35300  0.03720  0.57960  Biso   1.000  H
  C1038    1.0000 0.31700  0.07250  0.53843  Biso   1.000  C
  H762     1.0000 0.33300  0.07350  0.51370  Biso   1.000  H
  C1039    1.0000 0.29680  0.04680  0.64990  Biso   1.000  C
  C1040    1.0000 0.33460  0.03650  0.66980  Biso   1.000  C
  H763     1.0000 0.36030  0.04080  0.65590  Biso   1.000  H
  C1041    1.0000 0.33420  0.01980  0.71050  Biso   1.000  C
  H764     1.0000 0.35960  0.01280  0.72390  Biso   1.000  H
  C1042    1.0000 0.29600  0.01340  0.73120  Biso   1.000  C
  C1043    1.0000 0.25810  0.02370  0.71130  Biso   1.000  C
  H765     1.0000 0.23250  0.01940  0.72530  Biso   1.000  H
  C1044    1.0000 0.25860  0.04040  0.67070  Biso   1.000  C
  H766     1.0000 0.23320  0.04730  0.65730  Biso   1.000  H
  C1045    1.0000 0.29230  0.03760  0.64230  Biso   1.000  C
  C1046    1.0000 0.31620  0.00210  0.65220  Biso   1.000  C
  H767     1.0000 0.33320  0.98950  0.63160  Biso   1.000  H
  C1047    1.0000 0.31460  0.98520  0.69270  Biso   1.000  C
  H768     1.0000 0.33060  0.96130  0.69940  Biso   1.000  H
  C1048    1.0000 0.28930  0.00390  0.72340  Biso   1.000  C
  C1049    1.0000 0.26540  0.03950  0.71340  Biso   1.000  C
  H769     1.0000 0.24840  0.05200  0.73400  Biso   1.000  H
  C1050    1.0000 0.26700  0.05630  0.67290  Biso   1.000  C
  H770     1.0000 0.25100  0.08020  0.66620  Biso   1.000  H
  N141     1.0000 0.22160  0.09100  0.45545  Biso   1.000  N
  C1051    1.0000 0.23435  0.08220  0.41507  Biso   1.000  C
  H771     1.0000 0.25960  0.09100  0.40260  Biso   1.000  H
  N142     1.0000 0.20360  0.05840  0.39624  Biso   1.000  N
  C1052    1.0000 0.17190  0.05240  0.42500  Biso   1.000  C
  H772     1.0000 0.14700  0.03720  0.42040  Biso   1.000  H
  C1053    1.0000 0.18300  0.07250  0.46157  Biso   1.000  C
  H773     1.0000 0.16700  0.07350  0.48630  Biso   1.000  H
  C1054    1.0000 0.20320  0.04680  0.35010  Biso   1.000  C
  C1055    1.0000 0.16540  0.03650  0.33020  Biso   1.000  C
  H774     1.0000 0.13970  0.04080  0.34410  Biso   1.000  H
  C1056    1.0000 0.16580  0.01980  0.28950  Biso   1.000  C
  H775     1.0000 0.14040  0.01280  0.27610  Biso   1.000  H
  C1057    1.0000 0.20400  0.01340  0.26880  Biso   1.000  C
  C1058    1.0000 0.24190  0.02370  0.28870  Biso   1.000  C
  H776     1.0000 0.26750  0.01940  0.27470  Biso   1.000  H
  C1059    1.0000 0.24140  0.04040  0.32930  Biso   1.000  C
  H777     1.0000 0.26680  0.04730  0.34270  Biso   1.000  H
  C1060    1.0000 0.20770  0.03760  0.35770  Biso   1.000  C
  C1061    1.0000 0.18380  0.00210  0.34780  Biso   1.000  C
  H778     1.0000 0.16680  0.98950  0.36840  Biso   1.000  H
  C1062    1.0000 0.18540  0.98520  0.30730  Biso   1.000  C
  H779     1.0000 0.16940  0.96130  0.30060  Biso   1.000  H
  C1063    1.0000 0.21070  0.00390  0.27660  Biso   1.000  C
  C1064    1.0000 0.23460  0.03950  0.28660  Biso   1.000  C
  H780     1.0000 0.25160  0.05200  0.26600  Biso   1.000  H
  C1065    1.0000 0.23300  0.05630  0.32710  Biso   1.000  C
  H781     1.0000 0.24900  0.08020  0.33380  Biso   1.000  H
  N143     1.0000 0.72160  0.59100  0.95545  Biso   1.000  N
  C1066    1.0000 0.73435  0.58220  0.91507  Biso   1.000  C
  H782     1.0000 0.75960  0.59100  0.90260  Biso   1.000  H
  N144     1.0000 0.70360  0.55840  0.89624  Biso   1.000  N
  C1067    1.0000 0.67190  0.55240  0.92500  Biso   1.000  C
  H783     1.0000 0.64700  0.53720  0.92040  Biso   1.000  H
  C1068    1.0000 0.68300  0.57250  0.96157  Biso   1.000  C
  H784     1.0000 0.66700  0.57350  0.98630  Biso   1.000  H
  C1069    1.0000 0.70320  0.54680  0.85010  Biso   1.000  C
  C1070    1.0000 0.66540  0.53650  0.83020  Biso   1.000  C
  H785     1.0000 0.63970  0.54080  0.84410  Biso   1.000  H
  C1071    1.0000 0.66580  0.51980  0.78950  Biso   1.000  C
  H786     1.0000 0.64040  0.51280  0.77610  Biso   1.000  H
  C1072    1.0000 0.70400  0.51340  0.76880  Biso   1.000  C
  C1073    1.0000 0.74190  0.52370  0.78870  Biso   1.000  C
  H787     1.0000 0.76750  0.51940  0.77470  Biso   1.000  H
  C1074    1.0000 0.74140  0.54040  0.82930  Biso   1.000  C
  H788     1.0000 0.76680  0.54730  0.84270  Biso   1.000  H
  C1075    1.0000 0.70770  0.53760  0.85770  Biso   1.000  C
  C1076    1.0000 0.68380  0.50210  0.84780  Biso   1.000  C
  H789     1.0000 0.66680  0.48950  0.86840  Biso   1.000  H
  C1077    1.0000 0.68540  0.48520  0.80730  Biso   1.000  C
  H790     1.0000 0.66940  0.46130  0.80060  Biso   1.000  H
  C1078    1.0000 0.71070  0.50390  0.77660  Biso   1.000  C
  C1079    1.0000 0.73460  0.53950  0.78660  Biso   1.000  C
  H791     1.0000 0.75160  0.55200  0.76600  Biso   1.000  H
  C1080    1.0000 0.73300  0.55630  0.82710  Biso   1.000  C
  H792     1.0000 0.74900  0.58020  0.83380  Biso   1.000  H
  N145     1.0000 0.29455  0.84100  0.02840  Biso   1.000  N
  C1081    1.0000 0.33493  0.83220  0.01565  Biso   1.000  C
  H793     1.0000 0.34740  0.84100  0.99040  Biso   1.000  H
  N146     1.0000 0.35376  0.80840  0.04640  Biso   1.000  N
  C1082    1.0000 0.32500  0.80240  0.07810  Biso   1.000  C
  H794     1.0000 0.32960  0.78720  0.10300  Biso   1.000  H
  C1083    1.0000 0.28843  0.82250  0.06700  Biso   1.000  C
  H795     1.0000 0.26370  0.82350  0.08300  Biso   1.000  H
  C1084    1.0000 0.39990  0.79680  0.04680  Biso   1.000  C
  C1085    1.0000 0.41980  0.78650  0.08460  Biso   1.000  C
  H796     1.0000 0.40590  0.79080  0.11030  Biso   1.000  H
  C1086    1.0000 0.46050  0.76980  0.08420  Biso   1.000  C
  H797     1.0000 0.47390  0.76280  0.10960  Biso   1.000  H
  C1087    1.0000 0.48120  0.76340  0.04600  Biso   1.000  C
  C1088    1.0000 0.46130  0.77370  0.00810  Biso   1.000  C
  H798     1.0000 0.47530  0.76940  0.98250  Biso   1.000  H
  C1089    1.0000 0.42070  0.79040  0.00860  Biso   1.000  C
  H799     1.0000 0.40730  0.79730  0.98320  Biso   1.000  H
  C1090    1.0000 0.39230  0.78760  0.04230  Biso   1.000  C
  C1091    1.0000 0.40220  0.75210  0.06620  Biso   1.000  C
  H800     1.0000 0.38160  0.73950  0.08320  Biso   1.000  H
  C1092    1.0000 0.44270  0.73520  0.06460  Biso   1.000  C
  H801     1.0000 0.44940  0.71130  0.08060  Biso   1.000  H
  C1093    1.0000 0.47340  0.75390  0.03930  Biso   1.000  C
  C1094    1.0000 0.46340  0.78950  0.01540  Biso   1.000  C
  H802     1.0000 0.48400  0.80200  0.99840  Biso   1.000  H
  C1095    1.0000 0.42290  0.80630  0.01700  Biso   1.000  C
  H803     1.0000 0.41620  0.83020  0.00100  Biso   1.000  H
  N147     1.0000 0.79455  0.34100  0.52840  Biso   1.000  N
  C1096    1.0000 0.83493  0.33220  0.51565  Biso   1.000  C
  H804     1.0000 0.84740  0.34100  0.49040  Biso   1.000  H
  N148     1.0000 0.85376  0.30840  0.54640  Biso   1.000  N
  C1097    1.0000 0.82500  0.30240  0.57810  Biso   1.000  C
  H805     1.0000 0.82960  0.28720  0.60300  Biso   1.000  H
  C1098    1.0000 0.78843  0.32250  0.56700  Biso   1.000  C
  H806     1.0000 0.76370  0.32350  0.58300  Biso   1.000  H
  C1099    1.0000 0.89990  0.29680  0.54680  Biso   1.000  C
  C1100    1.0000 0.91980  0.28650  0.58460  Biso   1.000  C
  H807     1.0000 0.90590  0.29080  0.61030  Biso   1.000  H
  C1101    1.0000 0.96050  0.26980  0.58420  Biso   1.000  C
  H808     1.0000 0.97390  0.26280  0.60960  Biso   1.000  H
  C1102    1.0000 0.98120  0.26340  0.54600  Biso   1.000  C
  C1103    1.0000 0.96130  0.27370  0.50810  Biso   1.000  C
  H809     1.0000 0.97530  0.26940  0.48250  Biso   1.000  H
  C1104    1.0000 0.92070  0.29040  0.50860  Biso   1.000  C
  H810     1.0000 0.90730  0.29730  0.48320  Biso   1.000  H
  C1105    1.0000 0.89230  0.28760  0.54230  Biso   1.000  C
  C1106    1.0000 0.90220  0.25210  0.56620  Biso   1.000  C
  H811     1.0000 0.88160  0.23950  0.58320  Biso   1.000  H
  C1107    1.0000 0.94270  0.23520  0.56460  Biso   1.000  C
  H812     1.0000 0.94940  0.21130  0.58060  Biso   1.000  H
  C1108    1.0000 0.97340  0.25390  0.53930  Biso   1.000  C
  C1109    1.0000 0.96340  0.28950  0.51540  Biso   1.000  C
  H813     1.0000 0.98400  0.30200  0.49840  Biso   1.000  H
  C1110    1.0000 0.92290  0.30630  0.51700  Biso   1.000  C
  H814     1.0000 0.91620  0.33020  0.50100  Biso   1.000  H
  N149     1.0000 0.70545  0.34100  0.47160  Biso   1.000  N
  C1111    1.0000 0.66507  0.33220  0.48435  Biso   1.000  C
  H815     1.0000 0.65260  0.34100  0.50960  Biso   1.000  H
  N150     1.0000 0.64624  0.30840  0.45360  Biso   1.000  N
  C1112    1.0000 0.67500  0.30240  0.42190  Biso   1.000  C
  H816     1.0000 0.67040  0.28720  0.39700  Biso   1.000  H
  C1113    1.0000 0.71157  0.32250  0.43300  Biso   1.000  C
  H817     1.0000 0.73630  0.32350  0.41700  Biso   1.000  H
  C1114    1.0000 0.60010  0.29680  0.45320  Biso   1.000  C
  C1115    1.0000 0.58020  0.28650  0.41540  Biso   1.000  C
  H818     1.0000 0.59410  0.29080  0.38970  Biso   1.000  H
  C1116    1.0000 0.53950  0.26980  0.41580  Biso   1.000  C
  H819     1.0000 0.52610  0.26280  0.39040  Biso   1.000  H
  C1117    1.0000 0.51880  0.26340  0.45400  Biso   1.000  C
  C1118    1.0000 0.53870  0.27370  0.49190  Biso   1.000  C
  H820     1.0000 0.52470  0.26940  0.51750  Biso   1.000  H
  C1119    1.0000 0.57930  0.29040  0.49140  Biso   1.000  C
  H821     1.0000 0.59270  0.29730  0.51680  Biso   1.000  H
  C1120    1.0000 0.60770  0.28760  0.45770  Biso   1.000  C
  C1121    1.0000 0.59780  0.25210  0.43380  Biso   1.000  C
  H822     1.0000 0.61840  0.23950  0.41680  Biso   1.000  H
  C1122    1.0000 0.55730  0.23520  0.43540  Biso   1.000  C
  H823     1.0000 0.55060  0.21130  0.41940  Biso   1.000  H
  C1123    1.0000 0.52660  0.25390  0.46070  Biso   1.000  C
  C1124    1.0000 0.53660  0.28950  0.48460  Biso   1.000  C
  H824     1.0000 0.51600  0.30200  0.50160  Biso   1.000  H
  C1125    1.0000 0.57710  0.30630  0.48300  Biso   1.000  C
  H825     1.0000 0.58380  0.33020  0.49900  Biso   1.000  H
  N151     1.0000 0.20545  0.84100  0.97160  Biso   1.000  N
  C1126    1.0000 0.16507  0.83220  0.98435  Biso   1.000  C
  H826     1.0000 0.15260  0.84100  0.00960  Biso   1.000  H
  N152     1.0000 0.14624  0.80840  0.95360  Biso   1.000  N
  C1127    1.0000 0.17500  0.80240  0.92190  Biso   1.000  C
  H827     1.0000 0.17040  0.78720  0.89700  Biso   1.000  H
  C1128    1.0000 0.21157  0.82250  0.93300  Biso   1.000  C
  H828     1.0000 0.23630  0.82350  0.91700  Biso   1.000  H
  C1129    1.0000 0.10010  0.79680  0.95320  Biso   1.000  C
  C1130    1.0000 0.08020  0.78650  0.91540  Biso   1.000  C
  H829     1.0000 0.09410  0.79080  0.88970  Biso   1.000  H
  C1131    1.0000 0.03950  0.76980  0.91580  Biso   1.000  C
  H830     1.0000 0.02610  0.76280  0.89040  Biso   1.000  H
  C1132    1.0000 0.01880  0.76340  0.95400  Biso   1.000  C
  C1133    1.0000 0.03870  0.77370  0.99190  Biso   1.000  C
  H831     1.0000 0.02470  0.76940  0.01750  Biso   1.000  H
  C1134    1.0000 0.07930  0.79040  0.99140  Biso   1.000  C
  H832     1.0000 0.09270  0.79730  0.01680  Biso   1.000  H
  C1135    1.0000 0.10770  0.78760  0.95770  Biso   1.000  C
  C1136    1.0000 0.09780  0.75210  0.93380  Biso   1.000  C
  H833     1.0000 0.11840  0.73950  0.91680  Biso   1.000  H
  C1137    1.0000 0.05730  0.73520  0.93540  Biso   1.000  C
  H834     1.0000 0.05060  0.71130  0.91940  Biso   1.000  H
  C1138    1.0000 0.02660  0.75390  0.96070  Biso   1.000  C
  C1139    1.0000 0.03660  0.78950  0.98460  Biso   1.000  C
  H835     1.0000 0.01600  0.80200  0.00160  Biso   1.000  H
  C1140    1.0000 0.07710  0.80630  0.98300  Biso   1.000  C
  H836     1.0000 0.08380  0.83020  0.99900  Biso   1.000  H
  N153     1.0000 0.79455  0.65900  0.97160  Biso   1.000  N
  C1141    1.0000 0.83493  0.66780  0.98435  Biso   1.000  C
  H837     1.0000 0.84740  0.65900  0.00960  Biso   1.000  H
  N154     1.0000 0.85376  0.69160  0.95360  Biso   1.000  N
  C1142    1.0000 0.82500  0.69760  0.92190  Biso   1.000  C
  H838     1.0000 0.82960  0.71280  0.89700  Biso   1.000  H
  C1143    1.0000 0.78843  0.67750  0.93300  Biso   1.000  C
  H839     1.0000 0.76370  0.67650  0.91700  Biso   1.000  H
  C1144    1.0000 0.89990  0.70320  0.95320  Biso   1.000  C
  C1145    1.0000 0.91980  0.71350  0.91540  Biso   1.000  C
  H840     1.0000 0.90590  0.70920  0.88970  Biso   1.000  H
  C1146    1.0000 0.96050  0.73020  0.91580  Biso   1.000  C
  H841     1.0000 0.97390  0.73720  0.89040  Biso   1.000  H
  C1147    1.0000 0.98120  0.73660  0.95400  Biso   1.000  C
  C1148    1.0000 0.96130  0.72630  0.99190  Biso   1.000  C
  H842     1.0000 0.97530  0.73060  0.01750  Biso   1.000  H
  C1149    1.0000 0.92070  0.70960  0.99140  Biso   1.000  C
  H843     1.0000 0.90730  0.70270  0.01680  Biso   1.000  H
  C1150    1.0000 0.89230  0.71240  0.95770  Biso   1.000  C
  C1151    1.0000 0.90220  0.74790  0.93380  Biso   1.000  C
  H844     1.0000 0.88160  0.76050  0.91680  Biso   1.000  H
  C1152    1.0000 0.94270  0.76480  0.93540  Biso   1.000  C
  H845     1.0000 0.94940  0.78870  0.91940  Biso   1.000  H
  C1153    1.0000 0.97340  0.74610  0.96070  Biso   1.000  C
  C1154    1.0000 0.96340  0.71050  0.98460  Biso   1.000  C
  H846     1.0000 0.98400  0.69800  0.00160  Biso   1.000  H
  C1155    1.0000 0.92290  0.69370  0.98300  Biso   1.000  C
  H847     1.0000 0.91620  0.66980  0.99900  Biso   1.000  H
  N155     1.0000 0.29455  0.15900  0.47160  Biso   1.000  N
  C1156    1.0000 0.33493  0.16780  0.48435  Biso   1.000  C
  H848     1.0000 0.34740  0.15900  0.50960  Biso   1.000  H
  N156     1.0000 0.35376  0.19160  0.45360  Biso   1.000  N
  C1157    1.0000 0.32500  0.19760  0.42190  Biso   1.000  C
  H849     1.0000 0.32960  0.21280  0.39700  Biso   1.000  H
  C1158    1.0000 0.28843  0.17750  0.43300  Biso   1.000  C
  H850     1.0000 0.26370  0.17650  0.41700  Biso   1.000  H
  C1159    1.0000 0.39990  0.20320  0.45320  Biso   1.000  C
  C1160    1.0000 0.41980  0.21350  0.41540  Biso   1.000  C
  H851     1.0000 0.40590  0.20920  0.38970  Biso   1.000  H
  C1161    1.0000 0.46050  0.23020  0.41580  Biso   1.000  C
  H852     1.0000 0.47390  0.23720  0.39040  Biso   1.000  H
  C1162    1.0000 0.48120  0.23660  0.45400  Biso   1.000  C
  C1163    1.0000 0.46130  0.22630  0.49190  Biso   1.000  C
  H853     1.0000 0.47530  0.23060  0.51750  Biso   1.000  H
  C1164    1.0000 0.42070  0.20960  0.49140  Biso   1.000  C
  H854     1.0000 0.40730  0.20270  0.51680  Biso   1.000  H
  C1165    1.0000 0.39230  0.21240  0.45770  Biso   1.000  C
  C1166    1.0000 0.40220  0.24790  0.43380  Biso   1.000  C
  H855     1.0000 0.38160  0.26050  0.41680  Biso   1.000  H
  C1167    1.0000 0.44270  0.26480  0.43540  Biso   1.000  C
  H856     1.0000 0.44940  0.28870  0.41940  Biso   1.000  H
  C1168    1.0000 0.47340  0.24610  0.46070  Biso   1.000  C
  C1169    1.0000 0.46340  0.21050  0.48460  Biso   1.000  C
  H857     1.0000 0.48400  0.19800  0.50160  Biso   1.000  H
  C1170    1.0000 0.42290  0.19370  0.48300  Biso   1.000  C
  H858     1.0000 0.41620  0.16980  0.49900  Biso   1.000  H
  N157     1.0000 0.20545  0.15900  0.52840  Biso   1.000  N
  C1171    1.0000 0.16507  0.16780  0.51565  Biso   1.000  C
  H859     1.0000 0.15260  0.15900  0.49040  Biso   1.000  H
  N158     1.0000 0.14624  0.19160  0.54640  Biso   1.000  N
  C1172    1.0000 0.17500  0.19760  0.57810  Biso   1.000  C
  H860     1.0000 0.17040  0.21280  0.60300  Biso   1.000  H
  C1173    1.0000 0.21157  0.17750  0.56700  Biso   1.000  C
  H861     1.0000 0.23630  0.17650  0.58300  Biso   1.000  H
  C1174    1.0000 0.10010  0.20320  0.54680  Biso   1.000  C
  C1175    1.0000 0.08020  0.21350  0.58460  Biso   1.000  C
  H862     1.0000 0.09410  0.20920  0.61030  Biso   1.000  H
  C1176    1.0000 0.03950  0.23020  0.58420  Biso   1.000  C
  H863     1.0000 0.02610  0.23720  0.60960  Biso   1.000  H
  C1177    1.0000 0.01880  0.23660  0.54600  Biso   1.000  C
  C1178    1.0000 0.03870  0.22630  0.50810  Biso   1.000  C
  H864     1.0000 0.02470  0.23060  0.48250  Biso   1.000  H
  C1179    1.0000 0.07930  0.20960  0.50860  Biso   1.000  C
  H865     1.0000 0.09270  0.20270  0.48320  Biso   1.000  H
  C1180    1.0000 0.10770  0.21240  0.54230  Biso   1.000  C
  C1181    1.0000 0.09780  0.24790  0.56620  Biso   1.000  C
  H866     1.0000 0.11840  0.26050  0.58320  Biso   1.000  H
  C1182    1.0000 0.05730  0.26480  0.56460  Biso   1.000  C
  H867     1.0000 0.05060  0.28870  0.58060  Biso   1.000  H
  C1183    1.0000 0.02660  0.24610  0.53930  Biso   1.000  C
  C1184    1.0000 0.03660  0.21050  0.51540  Biso   1.000  C
  H868     1.0000 0.01600  0.19800  0.49840  Biso   1.000  H
  C1185    1.0000 0.07710  0.19370  0.51700  Biso   1.000  C
  H869     1.0000 0.08380  0.16980  0.50100  Biso   1.000  H
  N159     1.0000 0.70545  0.65900  0.02840  Biso   1.000  N
  C1186    1.0000 0.66507  0.66780  0.01565  Biso   1.000  C
  H870     1.0000 0.65260  0.65900  0.99040  Biso   1.000  H
  N160     1.0000 0.64624  0.69160  0.04640  Biso   1.000  N
  C1187    1.0000 0.67500  0.69760  0.07810  Biso   1.000  C
  H871     1.0000 0.67040  0.71280  0.10300  Biso   1.000  H
  C1188    1.0000 0.71157  0.67750  0.06700  Biso   1.000  C
  H872     1.0000 0.73630  0.67650  0.08300  Biso   1.000  H
  C1189    1.0000 0.60010  0.70320  0.04680  Biso   1.000  C
  C1190    1.0000 0.58020  0.71350  0.08460  Biso   1.000  C
  H873     1.0000 0.59410  0.70920  0.11030  Biso   1.000  H
  C1191    1.0000 0.53950  0.73020  0.08420  Biso   1.000  C
  H874     1.0000 0.52610  0.73720  0.10960  Biso   1.000  H
  C1192    1.0000 0.51880  0.73660  0.04600  Biso   1.000  C
  C1193    1.0000 0.53870  0.72630  0.00810  Biso   1.000  C
  H875     1.0000 0.52470  0.73060  0.98250  Biso   1.000  H
  C1194    1.0000 0.57930  0.70960  0.00860  Biso   1.000  C
  H876     1.0000 0.59270  0.70270  0.98320  Biso   1.000  H
  C1195    1.0000 0.60770  0.71240  0.04230  Biso   1.000  C
  C1196    1.0000 0.59780  0.74790  0.06620  Biso   1.000  C
  H877     1.0000 0.61840  0.76050  0.08320  Biso   1.000  H
  C1197    1.0000 0.55730  0.76480  0.06460  Biso   1.000  C
  H878     1.0000 0.55060  0.78870  0.08060  Biso   1.000  H
  C1198    1.0000 0.52660  0.74610  0.03930  Biso   1.000  C
  C1199    1.0000 0.53660  0.71050  0.01540  Biso   1.000  C
  H879     1.0000 0.51600  0.69800  0.99840  Biso   1.000  H
  C1200    1.0000 0.57710  0.69370  0.01700  Biso   1.000  C
  H880     1.0000 0.58380  0.66980  0.00100  Biso   1.000  H
  Zn17     1.0000 0.75000  0.37500  0.50000  Biso   1.000  Zn
  Zn18     1.0000 0.25000  0.87500  0.00000  Biso   1.000  Zn
  Zn19     1.0000 0.75000  0.62500  0.00000  Biso   1.000  Zn
  Zn20     1.0000 0.25000  0.12500  0.50000  Biso   1.000  Zn
  N161     1.0000 0.90900  0.95545  0.27840  Biso   1.000  N
  C1201    1.0000 0.91780  0.91507  0.26565  Biso   1.000  C
  H881     1.0000 0.90900  0.90260  0.24040  Biso   1.000  H
  N162     1.0000 0.94160  0.89624  0.29640  Biso   1.000  N
  C1202    1.0000 0.94760  0.92500  0.32810  Biso   1.000  C
  H882     1.0000 0.96280  0.92040  0.35300  Biso   1.000  H
  C1203    1.0000 0.92750  0.96157  0.31700  Biso   1.000  C
  H883     1.0000 0.92650  0.98630  0.33300  Biso   1.000  H
  C1204    1.0000 0.95320  0.85010  0.29680  Biso   1.000  C
  C1205    1.0000 0.96350  0.83020  0.33460  Biso   1.000  C
  H884     1.0000 0.95920  0.84410  0.36030  Biso   1.000  H
  C1206    1.0000 0.98020  0.78950  0.33420  Biso   1.000  C
  H885     1.0000 0.98720  0.77610  0.35960  Biso   1.000  H
  C1207    1.0000 0.98660  0.76880  0.29600  Biso   1.000  C
  C1208    1.0000 0.97630  0.78870  0.25810  Biso   1.000  C
  H886     1.0000 0.98060  0.77470  0.23250  Biso   1.000  H
  C1209    1.0000 0.95960  0.82930  0.25860  Biso   1.000  C
  H887     1.0000 0.95270  0.84270  0.23320  Biso   1.000  H
  C1210    1.0000 0.96240  0.85770  0.29230  Biso   1.000  C
  C1211    1.0000 0.99790  0.84780  0.31620  Biso   1.000  C
  H888     1.0000 0.01050  0.86840  0.33320  Biso   1.000  H
  C1212    1.0000 0.01480  0.80730  0.31460  Biso   1.000  C
  H889     1.0000 0.03870  0.80060  0.33060  Biso   1.000  H
  C1213    1.0000 0.99610  0.77660  0.28930  Biso   1.000  C
  C1214    1.0000 0.96050  0.78660  0.26540  Biso   1.000  C
  H890     1.0000 0.94800  0.76600  0.24840  Biso   1.000  H
  C1215    1.0000 0.94370  0.82710  0.26700  Biso   1.000  C
  H891     1.0000 0.91980  0.83380  0.25100  Biso   1.000  H
  N163     1.0000 0.40900  0.45545  0.77840  Biso   1.000  N
  C1216    1.0000 0.41780  0.41507  0.76565  Biso   1.000  C
  H892     1.0000 0.40900  0.40260  0.74040  Biso   1.000  H
  N164     1.0000 0.44160  0.39624  0.79640  Biso   1.000  N
  C1217    1.0000 0.44760  0.42500  0.82810  Biso   1.000  C
  H893     1.0000 0.46280  0.42040  0.85300  Biso   1.000  H
  C1218    1.0000 0.42750  0.46157  0.81700  Biso   1.000  C
  H894     1.0000 0.42650  0.48630  0.83300  Biso   1.000  H
  C1219    1.0000 0.45320  0.35010  0.79680  Biso   1.000  C
  C1220    1.0000 0.46350  0.33020  0.83460  Biso   1.000  C
  H895     1.0000 0.45920  0.34410  0.86030  Biso   1.000  H
  C1221    1.0000 0.48020  0.28950  0.83420  Biso   1.000  C
  H896     1.0000 0.48720  0.27610  0.85960  Biso   1.000  H
  C1222    1.0000 0.48660  0.26880  0.79600  Biso   1.000  C
  C1223    1.0000 0.47630  0.28870  0.75810  Biso   1.000  C
  H897     1.0000 0.48060  0.27470  0.73250  Biso   1.000  H
  C1224    1.0000 0.45960  0.32930  0.75860  Biso   1.000  C
  H898     1.0000 0.45270  0.34270  0.73320  Biso   1.000  H
  C1225    1.0000 0.46240  0.35770  0.79230  Biso   1.000  C
  C1226    1.0000 0.49790  0.34780  0.81620  Biso   1.000  C
  H899     1.0000 0.51050  0.36840  0.83320  Biso   1.000  H
  C1227    1.0000 0.51480  0.30730  0.81460  Biso   1.000  C
  H900     1.0000 0.53870  0.30060  0.83060  Biso   1.000  H
  C1228    1.0000 0.49610  0.27660  0.78930  Biso   1.000  C
  C1229    1.0000 0.46050  0.28660  0.76540  Biso   1.000  C
  H901     1.0000 0.44800  0.26600  0.74840  Biso   1.000  H
  C1230    1.0000 0.44370  0.32710  0.76700  Biso   1.000  C
  H902     1.0000 0.41980  0.33380  0.75100  Biso   1.000  H
  N165     1.0000 0.40900  0.54455  0.72160  Biso   1.000  N
  C1231    1.0000 0.41780  0.58493  0.73435  Biso   1.000  C
  H903     1.0000 0.40900  0.59740  0.75960  Biso   1.000  H
  N166     1.0000 0.44160  0.60376  0.70360  Biso   1.000  N
  C1232    1.0000 0.44760  0.57500  0.67190  Biso   1.000  C
  H904     1.0000 0.46280  0.57960  0.64700  Biso   1.000  H
  C1233    1.0000 0.42750  0.53843  0.68300  Biso   1.000  C
  H905     1.0000 0.42650  0.51370  0.66700  Biso   1.000  H
  C1234    1.0000 0.45320  0.64990  0.70320  Biso   1.000  C
  C1235    1.0000 0.46350  0.66980  0.66540  Biso   1.000  C
  H906     1.0000 0.45920  0.65590  0.63970  Biso   1.000  H
  C1236    1.0000 0.48020  0.71050  0.66580  Biso   1.000  C
  H907     1.0000 0.48720  0.72390  0.64040  Biso   1.000  H
  C1237    1.0000 0.48660  0.73120  0.70400  Biso   1.000  C
  C1238    1.0000 0.47630  0.71130  0.74190  Biso   1.000  C
  H908     1.0000 0.48060  0.72530  0.76750  Biso   1.000  H
  C1239    1.0000 0.45960  0.67070  0.74140  Biso   1.000  C
  H909     1.0000 0.45270  0.65730  0.76680  Biso   1.000  H
  C1240    1.0000 0.46240  0.64230  0.70770  Biso   1.000  C
  C1241    1.0000 0.49790  0.65220  0.68380  Biso   1.000  C
  H910     1.0000 0.51050  0.63160  0.66680  Biso   1.000  H
  C1242    1.0000 0.51480  0.69270  0.68540  Biso   1.000  C
  H911     1.0000 0.53870  0.69940  0.66940  Biso   1.000  H
  C1243    1.0000 0.49610  0.72340  0.71070  Biso   1.000  C
  C1244    1.0000 0.46050  0.71340  0.73460  Biso   1.000  C
  H912     1.0000 0.44800  0.73400  0.75160  Biso   1.000  H
  C1245    1.0000 0.44370  0.67290  0.73300  Biso   1.000  C
  H913     1.0000 0.41980  0.66620  0.74900  Biso   1.000  H
  N167     1.0000 0.90900  0.04455  0.22160  Biso   1.000  N
  C1246    1.0000 0.91780  0.08493  0.23435  Biso   1.000  C
  H914     1.0000 0.90900  0.09740  0.25960  Biso   1.000  H
  N168     1.0000 0.94160  0.10376  0.20360  Biso   1.000  N
  C1247    1.0000 0.94760  0.07500  0.17190  Biso   1.000  C
  H915     1.0000 0.96280  0.07960  0.14700  Biso   1.000  H
  C1248    1.0000 0.92750  0.03843  0.18300  Biso   1.000  C
  H916     1.0000 0.92650  0.01370  0.16700  Biso   1.000  H
  C1249    1.0000 0.95320  0.14990  0.20320  Biso   1.000  C
  C1250    1.0000 0.96350  0.16980  0.16540  Biso   1.000  C
  H917     1.0000 0.95920  0.15590  0.13970  Biso   1.000  H
  C1251    1.0000 0.98020  0.21050  0.16580  Biso   1.000  C
  H918     1.0000 0.98720  0.22390  0.14040  Biso   1.000  H
  C1252    1.0000 0.98660  0.23120  0.20400  Biso   1.000  C
  C1253    1.0000 0.97630  0.21130  0.24190  Biso   1.000  C
  H919     1.0000 0.98060  0.22530  0.26750  Biso   1.000  H
  C1254    1.0000 0.95960  0.17070  0.24140  Biso   1.000  C
  H920     1.0000 0.95270  0.15730  0.26680  Biso   1.000  H
  C1255    1.0000 0.96240  0.14230  0.20770  Biso   1.000  C
  C1256    1.0000 0.99790  0.15220  0.18380  Biso   1.000  C
  H921     1.0000 0.01050  0.13160  0.16680  Biso   1.000  H
  C1257    1.0000 0.01480  0.19270  0.18540  Biso   1.000  C
  H922     1.0000 0.03870  0.19940  0.16940  Biso   1.000  H
  C1258    1.0000 0.99610  0.22340  0.21070  Biso   1.000  C
  C1259    1.0000 0.96050  0.21340  0.23460  Biso   1.000  C
  H923     1.0000 0.94800  0.23400  0.25160  Biso   1.000  H
  C1260    1.0000 0.94370  0.17290  0.23300  Biso   1.000  C
  H924     1.0000 0.91980  0.16620  0.24900  Biso   1.000  H
  N169     1.0000 0.09100  0.45545  0.22160  Biso   1.000  N
  C1261    1.0000 0.08220  0.41507  0.23435  Biso   1.000  C
  H925     1.0000 0.09100  0.40260  0.25960  Biso   1.000  H
  N170     1.0000 0.05840  0.39624  0.20360  Biso   1.000  N
  C1262    1.0000 0.05240  0.42500  0.17190  Biso   1.000  C
  H926     1.0000 0.03720  0.42040  0.14700  Biso   1.000  H
  C1263    1.0000 0.07250  0.46157  0.18300  Biso   1.000  C
  H927     1.0000 0.07350  0.48630  0.16700  Biso   1.000  H
  C1264    1.0000 0.04680  0.35010  0.20320  Biso   1.000  C
  C1265    1.0000 0.03650  0.33020  0.16540  Biso   1.000  C
  H928     1.0000 0.04080  0.34410  0.13970  Biso   1.000  H
  C1266    1.0000 0.01980  0.28950  0.16580  Biso   1.000  C
  H929     1.0000 0.01280  0.27610  0.14040  Biso   1.000  H
  C1267    1.0000 0.01340  0.26880  0.20400  Biso   1.000  C
  C1268    1.0000 0.02370  0.28870  0.24190  Biso   1.000  C
  H930     1.0000 0.01940  0.27470  0.26750  Biso   1.000  H
  C1269    1.0000 0.04040  0.32930  0.24140  Biso   1.000  C
  H931     1.0000 0.04730  0.34270  0.26680  Biso   1.000  H
  C1270    1.0000 0.03760  0.35770  0.20770  Biso   1.000  C
  C1271    1.0000 0.00210  0.34780  0.18380  Biso   1.000  C
  H932     1.0000 0.98950  0.36840  0.16680  Biso   1.000  H
  C1272    1.0000 0.98520  0.30730  0.18540  Biso   1.000  C
  H933     1.0000 0.96130  0.30060  0.16940  Biso   1.000  H
  C1273    1.0000 0.00390  0.27660  0.21070  Biso   1.000  C
  C1274    1.0000 0.03950  0.28660  0.23460  Biso   1.000  C
  H934     1.0000 0.05200  0.26600  0.25160  Biso   1.000  H
  C1275    1.0000 0.05630  0.32710  0.23300  Biso   1.000  C
  H935     1.0000 0.08020  0.33380  0.24900  Biso   1.000  H
  N171     1.0000 0.59100  0.95545  0.72160  Biso   1.000  N
  C1276    1.0000 0.58220  0.91507  0.73435  Biso   1.000  C
  H936     1.0000 0.59100  0.90260  0.75960  Biso   1.000  H
  N172     1.0000 0.55840  0.89624  0.70360  Biso   1.000  N
  C1277    1.0000 0.55240  0.92500  0.67190  Biso   1.000  C
  H937     1.0000 0.53720  0.92040  0.64700  Biso   1.000  H
  C1278    1.0000 0.57250  0.96157  0.68300  Biso   1.000  C
  H938     1.0000 0.57350  0.98630  0.66700  Biso   1.000  H
  C1279    1.0000 0.54680  0.85010  0.70320  Biso   1.000  C
  C1280    1.0000 0.53650  0.83020  0.66540  Biso   1.000  C
  H939     1.0000 0.54080  0.84410  0.63970  Biso   1.000  H
  C1281    1.0000 0.51980  0.78950  0.66580  Biso   1.000  C
  H940     1.0000 0.51280  0.77610  0.64040  Biso   1.000  H
  C1282    1.0000 0.51340  0.76880  0.70400  Biso   1.000  C
  C1283    1.0000 0.52370  0.78870  0.74190  Biso   1.000  C
  H941     1.0000 0.51940  0.77470  0.76750  Biso   1.000  H
  C1284    1.0000 0.54040  0.82930  0.74140  Biso   1.000  C
  H942     1.0000 0.54730  0.84270  0.76680  Biso   1.000  H
  C1285    1.0000 0.53760  0.85770  0.70770  Biso   1.000  C
  C1286    1.0000 0.50210  0.84780  0.68380  Biso   1.000  C
  H943     1.0000 0.48950  0.86840  0.66680  Biso   1.000  H
  C1287    1.0000 0.48520  0.80730  0.68540  Biso   1.000  C
  H944     1.0000 0.46130  0.80060  0.66940  Biso   1.000  H
  C1288    1.0000 0.50390  0.77660  0.71070  Biso   1.000  C
  C1289    1.0000 0.53950  0.78660  0.73460  Biso   1.000  C
  H945     1.0000 0.55200  0.76600  0.75160  Biso   1.000  H
  C1290    1.0000 0.55630  0.82710  0.73300  Biso   1.000  C
  H946     1.0000 0.58020  0.83380  0.74900  Biso   1.000  H
  N173     1.0000 0.59100  0.04455  0.77840  Biso   1.000  N
  C1291    1.0000 0.58220  0.08493  0.76565  Biso   1.000  C
  H947     1.0000 0.59100  0.09740  0.74040  Biso   1.000  H
  N174     1.0000 0.55840  0.10376  0.79640  Biso   1.000  N
  C1292    1.0000 0.55240  0.07500  0.82810  Biso   1.000  C
  H948     1.0000 0.53720  0.07960  0.85300  Biso   1.000  H
  C1293    1.0000 0.57250  0.03843  0.81700  Biso   1.000  C
  H949     1.0000 0.57350  0.01370  0.83300  Biso   1.000  H
  C1294    1.0000 0.54680  0.14990  0.79680  Biso   1.000  C
  C1295    1.0000 0.53650  0.16980  0.83460  Biso   1.000  C
  H950     1.0000 0.54080  0.15590  0.86030  Biso   1.000  H
  C1296    1.0000 0.51980  0.21050  0.83420  Biso   1.000  C
  H951     1.0000 0.51280  0.22390  0.85960  Biso   1.000  H
  C1297    1.0000 0.51340  0.23120  0.79600  Biso   1.000  C
  C1298    1.0000 0.52370  0.21130  0.75810  Biso   1.000  C
  H952     1.0000 0.51940  0.22530  0.73250  Biso   1.000  H
  C1299    1.0000 0.54040  0.17070  0.75860  Biso   1.000  C
  H953     1.0000 0.54730  0.15730  0.73320  Biso   1.000  H
  C1300    1.0000 0.53760  0.14230  0.79230  Biso   1.000  C
  C1301    1.0000 0.50210  0.15220  0.81620  Biso   1.000  C
  H954     1.0000 0.48950  0.13160  0.83320  Biso   1.000  H
  C1302    1.0000 0.48520  0.19270  0.81460  Biso   1.000  C
  H955     1.0000 0.46130  0.19940  0.83060  Biso   1.000  H
  C1303    1.0000 0.50390  0.22340  0.78930  Biso   1.000  C
  C1304    1.0000 0.53950  0.21340  0.76540  Biso   1.000  C
  H956     1.0000 0.55200  0.23400  0.74840  Biso   1.000  H
  C1305    1.0000 0.55630  0.17290  0.76700  Biso   1.000  C
  H957     1.0000 0.58020  0.16620  0.75100  Biso   1.000  H
  N175     1.0000 0.09100  0.54455  0.27840  Biso   1.000  N
  C1306    1.0000 0.08220  0.58493  0.26565  Biso   1.000  C
  H958     1.0000 0.09100  0.59740  0.24040  Biso   1.000  H
  N176     1.0000 0.05840  0.60376  0.29640  Biso   1.000  N
  C1307    1.0000 0.05240  0.57500  0.32810  Biso   1.000  C
  H959     1.0000 0.03720  0.57960  0.35300  Biso   1.000  H
  C1308    1.0000 0.07250  0.53843  0.31700  Biso   1.000  C
  H960     1.0000 0.07350  0.51370  0.33300  Biso   1.000  H
  C1309    1.0000 0.04680  0.64990  0.29680  Biso   1.000  C
  C1310    1.0000 0.03650  0.66980  0.33460  Biso   1.000  C
  H961     1.0000 0.04080  0.65590  0.36030  Biso   1.000  H
  C1311    1.0000 0.01980  0.71050  0.33420  Biso   1.000  C
  H962     1.0000 0.01280  0.72390  0.35960  Biso   1.000  H
  C1312    1.0000 0.01340  0.73120  0.29600  Biso   1.000  C
  C1313    1.0000 0.02370  0.71130  0.25810  Biso   1.000  C
  H963     1.0000 0.01940  0.72530  0.23250  Biso   1.000  H
  C1314    1.0000 0.04040  0.67070  0.25860  Biso   1.000  C
  H964     1.0000 0.04730  0.65730  0.23320  Biso   1.000  H
  C1315    1.0000 0.03760  0.64230  0.29230  Biso   1.000  C
  C1316    1.0000 0.00210  0.65220  0.31620  Biso   1.000  C
  H965     1.0000 0.98950  0.63160  0.33320  Biso   1.000  H
  C1317    1.0000 0.98520  0.69270  0.31460  Biso   1.000  C
  H966     1.0000 0.96130  0.69940  0.33060  Biso   1.000  H
  C1318    1.0000 0.00390  0.72340  0.28930  Biso   1.000  C
  C1319    1.0000 0.03950  0.71340  0.26540  Biso   1.000  C
  H967     1.0000 0.05200  0.73400  0.24840  Biso   1.000  H
  C1320    1.0000 0.05630  0.67290  0.26700  Biso   1.000  C
  H968     1.0000 0.08020  0.66620  0.25100  Biso   1.000  H
  N177     1.0000 0.84100  0.02840  0.29455  Biso   1.000  N
  C1321    1.0000 0.83220  0.01565  0.33493  Biso   1.000  C
  H969     1.0000 0.84100  0.99040  0.34740  Biso   1.000  H
  N178     1.0000 0.80840  0.04640  0.35376  Biso   1.000  N
  C1322    1.0000 0.80240  0.07810  0.32500  Biso   1.000  C
  H970     1.0000 0.78720  0.10300  0.32960  Biso   1.000  H
  C1323    1.0000 0.82250  0.06700  0.28843  Biso   1.000  C
  H971     1.0000 0.82350  0.08300  0.26370  Biso   1.000  H
  C1324    1.0000 0.79680  0.04680  0.39990  Biso   1.000  C
  C1325    1.0000 0.78650  0.08460  0.41980  Biso   1.000  C
  H972     1.0000 0.79080  0.11030  0.40590  Biso   1.000  H
  C1326    1.0000 0.76980  0.08420  0.46050  Biso   1.000  C
  H973     1.0000 0.76280  0.10960  0.47390  Biso   1.000  H
  C1327    1.0000 0.76340  0.04600  0.48120  Biso   1.000  C
  C1328    1.0000 0.77370  0.00810  0.46130  Biso   1.000  C
  H974     1.0000 0.76940  0.98250  0.47530  Biso   1.000  H
  C1329    1.0000 0.79040  0.00860  0.42070  Biso   1.000  C
  H975     1.0000 0.79730  0.98320  0.40730  Biso   1.000  H
  C1330    1.0000 0.78760  0.04230  0.39230  Biso   1.000  C
  C1331    1.0000 0.75210  0.06620  0.40220  Biso   1.000  C
  H976     1.0000 0.73950  0.08320  0.38160  Biso   1.000  H
  C1332    1.0000 0.73520  0.06460  0.44270  Biso   1.000  C
  H977     1.0000 0.71130  0.08060  0.44940  Biso   1.000  H
  C1333    1.0000 0.75390  0.03930  0.47340  Biso   1.000  C
  C1334    1.0000 0.78950  0.01540  0.46340  Biso   1.000  C
  H978     1.0000 0.80200  0.99840  0.48400  Biso   1.000  H
  C1335    1.0000 0.80630  0.01700  0.42290  Biso   1.000  C
  H979     1.0000 0.83020  0.00100  0.41620  Biso   1.000  H
  N179     1.0000 0.34100  0.52840  0.79455  Biso   1.000  N
  C1336    1.0000 0.33220  0.51565  0.83493  Biso   1.000  C
  H980     1.0000 0.34100  0.49040  0.84740  Biso   1.000  H
  N180     1.0000 0.30840  0.54640  0.85376  Biso   1.000  N
  C1337    1.0000 0.30240  0.57810  0.82500  Biso   1.000  C
  H981     1.0000 0.28720  0.60300  0.82960  Biso   1.000  H
  C1338    1.0000 0.32250  0.56700  0.78843  Biso   1.000  C
  H982     1.0000 0.32350  0.58300  0.76370  Biso   1.000  H
  C1339    1.0000 0.29680  0.54680  0.89990  Biso   1.000  C
  C1340    1.0000 0.28650  0.58460  0.91980  Biso   1.000  C
  H983     1.0000 0.29080  0.61030  0.90590  Biso   1.000  H
  C1341    1.0000 0.26980  0.58420  0.96050  Biso   1.000  C
  H984     1.0000 0.26280  0.60960  0.97390  Biso   1.000  H
  C1342    1.0000 0.26340  0.54600  0.98120  Biso   1.000  C
  C1343    1.0000 0.27370  0.50810  0.96130  Biso   1.000  C
  H985     1.0000 0.26940  0.48250  0.97530  Biso   1.000  H
  C1344    1.0000 0.29040  0.50860  0.92070  Biso   1.000  C
  H986     1.0000 0.29730  0.48320  0.90730  Biso   1.000  H
  C1345    1.0000 0.28760  0.54230  0.89230  Biso   1.000  C
  C1346    1.0000 0.25210  0.56620  0.90220  Biso   1.000  C
  H987     1.0000 0.23950  0.58320  0.88160  Biso   1.000  H
  C1347    1.0000 0.23520  0.56460  0.94270  Biso   1.000  C
  H988     1.0000 0.21130  0.58060  0.94940  Biso   1.000  H
  C1348    1.0000 0.25390  0.53930  0.97340  Biso   1.000  C
  C1349    1.0000 0.28950  0.51540  0.96340  Biso   1.000  C
  H989     1.0000 0.30200  0.49840  0.98400  Biso   1.000  H
  C1350    1.0000 0.30630  0.51700  0.92290  Biso   1.000  C
  H990     1.0000 0.33020  0.50100  0.91620  Biso   1.000  H
  N181     1.0000 0.34100  0.47160  0.70545  Biso   1.000  N
  C1351    1.0000 0.33220  0.48435  0.66507  Biso   1.000  C
  H991     1.0000 0.34100  0.50960  0.65260  Biso   1.000  H
  N182     1.0000 0.30840  0.45360  0.64624  Biso   1.000  N
  C1352    1.0000 0.30240  0.42190  0.67500  Biso   1.000  C
  H992     1.0000 0.28720  0.39700  0.67040  Biso   1.000  H
  C1353    1.0000 0.32250  0.43300  0.71157  Biso   1.000  C
  H993     1.0000 0.32350  0.41700  0.73630  Biso   1.000  H
  C1354    1.0000 0.29680  0.45320  0.60010  Biso   1.000  C
  C1355    1.0000 0.28650  0.41540  0.58020  Biso   1.000  C
  H994     1.0000 0.29080  0.38970  0.59410  Biso   1.000  H
  C1356    1.0000 0.26980  0.41580  0.53950  Biso   1.000  C
  H995     1.0000 0.26280  0.39040  0.52610  Biso   1.000  H
  C1357    1.0000 0.26340  0.45400  0.51880  Biso   1.000  C
  C1358    1.0000 0.27370  0.49190  0.53870  Biso   1.000  C
  H996     1.0000 0.26940  0.51750  0.52470  Biso   1.000  H
  C1359    1.0000 0.29040  0.49140  0.57930  Biso   1.000  C
  H997     1.0000 0.29730  0.51680  0.59270  Biso   1.000  H
  C1360    1.0000 0.28760  0.45770  0.60770  Biso   1.000  C
  C1361    1.0000 0.25210  0.43380  0.59780  Biso   1.000  C
  H998     1.0000 0.23950  0.41680  0.61840  Biso   1.000  H
  C1362    1.0000 0.23520  0.43540  0.55730  Biso   1.000  C
  H999     1.0000 0.21130  0.41940  0.55060  Biso   1.000  H
  C1363    1.0000 0.25390  0.46070  0.52660  Biso   1.000  C
  C1364    1.0000 0.28950  0.48460  0.53660  Biso   1.000  C
  H1000    1.0000 0.30200  0.50160  0.51600  Biso   1.000  H
  C1365    1.0000 0.30630  0.48300  0.57710  Biso   1.000  C
  H1001    1.0000 0.33020  0.49900  0.58380  Biso   1.000  H
  N183     1.0000 0.84100  0.97160  0.20545  Biso   1.000  N
  C1366    1.0000 0.83220  0.98435  0.16507  Biso   1.000  C
  H1002    1.0000 0.84100  0.00960  0.15260  Biso   1.000  H
  N184     1.0000 0.80840  0.95360  0.14624  Biso   1.000  N
  C1367    1.0000 0.80240  0.92190  0.17500  Biso   1.000  C
  H1003    1.0000 0.78720  0.89700  0.17040  Biso   1.000  H
  C1368    1.0000 0.82250  0.93300  0.21157  Biso   1.000  C
  H1004    1.0000 0.82350  0.91700  0.23630  Biso   1.000  H
  C1369    1.0000 0.79680  0.95320  0.10010  Biso   1.000  C
  C1370    1.0000 0.78650  0.91540  0.08020  Biso   1.000  C
  H1005    1.0000 0.79080  0.88970  0.09410  Biso   1.000  H
  C1371    1.0000 0.76980  0.91580  0.03950  Biso   1.000  C
  H1006    1.0000 0.76280  0.89040  0.02610  Biso   1.000  H
  C1372    1.0000 0.76340  0.95400  0.01880  Biso   1.000  C
  C1373    1.0000 0.77370  0.99190  0.03870  Biso   1.000  C
  H1007    1.0000 0.76940  0.01750  0.02470  Biso   1.000  H
  C1374    1.0000 0.79040  0.99140  0.07930  Biso   1.000  C
  H1008    1.0000 0.79730  0.01680  0.09270  Biso   1.000  H
  C1375    1.0000 0.78760  0.95770  0.10770  Biso   1.000  C
  C1376    1.0000 0.75210  0.93380  0.09780  Biso   1.000  C
  H1009    1.0000 0.73950  0.91680  0.11840  Biso   1.000  H
  C1377    1.0000 0.73520  0.93540  0.05730  Biso   1.000  C
  H1010    1.0000 0.71130  0.91940  0.05060  Biso   1.000  H
  C1378    1.0000 0.75390  0.96070  0.02660  Biso   1.000  C
  C1379    1.0000 0.78950  0.98460  0.03660  Biso   1.000  C
  H1011    1.0000 0.80200  0.00160  0.01600  Biso   1.000  H
  C1380    1.0000 0.80630  0.98300  0.07710  Biso   1.000  C
  H1012    1.0000 0.83020  0.99900  0.08380  Biso   1.000  H
  N185     1.0000 0.65900  0.97160  0.79455  Biso   1.000  N
  C1381    1.0000 0.66780  0.98435  0.83493  Biso   1.000  C
  H1013    1.0000 0.65900  0.00960  0.84740  Biso   1.000  H
  N186     1.0000 0.69160  0.95360  0.85376  Biso   1.000  N
  C1382    1.0000 0.69760  0.92190  0.82500  Biso   1.000  C
  H1014    1.0000 0.71280  0.89700  0.82960  Biso   1.000  H
  C1383    1.0000 0.67750  0.93300  0.78843  Biso   1.000  C
  H1015    1.0000 0.67650  0.91700  0.76370  Biso   1.000  H
  C1384    1.0000 0.70320  0.95320  0.89990  Biso   1.000  C
  C1385    1.0000 0.71350  0.91540  0.91980  Biso   1.000  C
  H1016    1.0000 0.70920  0.88970  0.90590  Biso   1.000  H
  C1386    1.0000 0.73020  0.91580  0.96050  Biso   1.000  C
  H1017    1.0000 0.73720  0.89040  0.97390  Biso   1.000  H
  C1387    1.0000 0.73660  0.95400  0.98120  Biso   1.000  C
  C1388    1.0000 0.72630  0.99190  0.96130  Biso   1.000  C
  H1018    1.0000 0.73060  0.01750  0.97530  Biso   1.000  H
  C1389    1.0000 0.70960  0.99140  0.92070  Biso   1.000  C
  H1019    1.0000 0.70270  0.01680  0.90730  Biso   1.000  H
  C1390    1.0000 0.71240  0.95770  0.89230  Biso   1.000  C
  C1391    1.0000 0.74790  0.93380  0.90220  Biso   1.000  C
  H1020    1.0000 0.76050  0.91680  0.88160  Biso   1.000  H
  C1392    1.0000 0.76480  0.93540  0.94270  Biso   1.000  C
  H1021    1.0000 0.78870  0.91940  0.94940  Biso   1.000  H
  C1393    1.0000 0.74610  0.96070  0.97340  Biso   1.000  C
  C1394    1.0000 0.71050  0.98460  0.96340  Biso   1.000  C
  H1022    1.0000 0.69800  0.00160  0.98400  Biso   1.000  H
  C1395    1.0000 0.69370  0.98300  0.92290  Biso   1.000  C
  H1023    1.0000 0.66980  0.99900  0.91620  Biso   1.000  H
  N187     1.0000 0.15900  0.47160  0.29455  Biso   1.000  N
  C1396    1.0000 0.16780  0.48435  0.33493  Biso   1.000  C
  H1024    1.0000 0.15900  0.50960  0.34740  Biso   1.000  H
  N188     1.0000 0.19160  0.45360  0.35376  Biso   1.000  N
  C1397    1.0000 0.19760  0.42190  0.32500  Biso   1.000  C
  H1025    1.0000 0.21280  0.39700  0.32960  Biso   1.000  H
  C1398    1.0000 0.17750  0.43300  0.28843  Biso   1.000  C
  H1026    1.0000 0.17650  0.41700  0.26370  Biso   1.000  H
  C1399    1.0000 0.20320  0.45320  0.39990  Biso   1.000  C
  C1400    1.0000 0.21350  0.41540  0.41980  Biso   1.000  C
  H1027    1.0000 0.20920  0.38970  0.40590  Biso   1.000  H
  C1401    1.0000 0.23020  0.41580  0.46050  Biso   1.000  C
  H1028    1.0000 0.23720  0.39040  0.47390  Biso   1.000  H
  C1402    1.0000 0.23660  0.45400  0.48120  Biso   1.000  C
  C1403    1.0000 0.22630  0.49190  0.46130  Biso   1.000  C
  H1029    1.0000 0.23060  0.51750  0.47530  Biso   1.000  H
  C1404    1.0000 0.20960  0.49140  0.42070  Biso   1.000  C
  H1030    1.0000 0.20270  0.51680  0.40730  Biso   1.000  H
  C1405    1.0000 0.21240  0.45770  0.39230  Biso   1.000  C
  C1406    1.0000 0.24790  0.43380  0.40220  Biso   1.000  C
  H1031    1.0000 0.26050  0.41680  0.38160  Biso   1.000  H
  C1407    1.0000 0.26480  0.43540  0.44270  Biso   1.000  C
  H1032    1.0000 0.28870  0.41940  0.44940  Biso   1.000  H
  C1408    1.0000 0.24610  0.46070  0.47340  Biso   1.000  C
  C1409    1.0000 0.21050  0.48460  0.46340  Biso   1.000  C
  H1033    1.0000 0.19800  0.50160  0.48400  Biso   1.000  H
  C1410    1.0000 0.19370  0.48300  0.42290  Biso   1.000  C
  H1034    1.0000 0.16980  0.49900  0.41620  Biso   1.000  H
  N189     1.0000 0.15900  0.52840  0.20545  Biso   1.000  N
  C1411    1.0000 0.16780  0.51565  0.16507  Biso   1.000  C
  H1035    1.0000 0.15900  0.49040  0.15260  Biso   1.000  H
  N190     1.0000 0.19160  0.54640  0.14624  Biso   1.000  N
  C1412    1.0000 0.19760  0.57810  0.17500  Biso   1.000  C
  H1036    1.0000 0.21280  0.60300  0.17040  Biso   1.000  H
  C1413    1.0000 0.17750  0.56700  0.21157  Biso   1.000  C
  H1037    1.0000 0.17650  0.58300  0.23630  Biso   1.000  H
  C1414    1.0000 0.20320  0.54680  0.10010  Biso   1.000  C
  C1415    1.0000 0.21350  0.58460  0.08020  Biso   1.000  C
  H1038    1.0000 0.20920  0.61030  0.09410  Biso   1.000  H
  C1416    1.0000 0.23020  0.58420  0.03950  Biso   1.000  C
  H1039    1.0000 0.23720  0.60960  0.02610  Biso   1.000  H
  C1417    1.0000 0.23660  0.54600  0.01880  Biso   1.000  C
  C1418    1.0000 0.22630  0.50810  0.03870  Biso   1.000  C
  H1040    1.0000 0.23060  0.48250  0.02470  Biso   1.000  H
  C1419    1.0000 0.20960  0.50860  0.07930  Biso   1.000  C
  H1041    1.0000 0.20270  0.48320  0.09270  Biso   1.000  H
  C1420    1.0000 0.21240  0.54230  0.10770  Biso   1.000  C
  C1421    1.0000 0.24790  0.56620  0.09780  Biso   1.000  C
  H1042    1.0000 0.26050  0.58320  0.11840  Biso   1.000  H
  C1422    1.0000 0.26480  0.56460  0.05730  Biso   1.000  C
  H1043    1.0000 0.28870  0.58060  0.05060  Biso   1.000  H
  C1423    1.0000 0.24610  0.53930  0.02660  Biso   1.000  C
  C1424    1.0000 0.21050  0.51540  0.03660  Biso   1.000  C
  H1044    1.0000 0.19800  0.49840  0.01600  Biso   1.000  H
  C1425    1.0000 0.19370  0.51700  0.07710  Biso   1.000  C
  H1045    1.0000 0.16980  0.50100  0.08380  Biso   1.000  H
  N191     1.0000 0.65900  0.02840  0.70545  Biso   1.000  N
  C1426    1.0000 0.66780  0.01565  0.66507  Biso   1.000  C
  H1046    1.0000 0.65900  0.99040  0.65260  Biso   1.000  H
  N192     1.0000 0.69160  0.04640  0.64624  Biso   1.000  N
  C1427    1.0000 0.69760  0.07810  0.67500  Biso   1.000  C
  H1047    1.0000 0.71280  0.10300  0.67040  Biso   1.000  H
  C1428    1.0000 0.67750  0.06700  0.71157  Biso   1.000  C
  H1048    1.0000 0.67650  0.08300  0.73630  Biso   1.000  H
  C1429    1.0000 0.70320  0.04680  0.60010  Biso   1.000  C
  C1430    1.0000 0.71350  0.08460  0.58020  Biso   1.000  C
  H1049    1.0000 0.70920  0.11030  0.59410  Biso   1.000  H
  C1431    1.0000 0.73020  0.08420  0.53950  Biso   1.000  C
  H1050    1.0000 0.73720  0.10960  0.52610  Biso   1.000  H
  C1432    1.0000 0.73660  0.04600  0.51880  Biso   1.000  C
  C1433    1.0000 0.72630  0.00810  0.53870  Biso   1.000  C
  H1051    1.0000 0.73060  0.98250  0.52470  Biso   1.000  H
  C1434    1.0000 0.70960  0.00860  0.57930  Biso   1.000  C
  H1052    1.0000 0.70270  0.98320  0.59270  Biso   1.000  H
  C1435    1.0000 0.71240  0.04230  0.60770  Biso   1.000  C
  C1436    1.0000 0.74790  0.06620  0.59780  Biso   1.000  C
  H1053    1.0000 0.76050  0.08320  0.61840  Biso   1.000  H
  C1437    1.0000 0.76480  0.06460  0.55730  Biso   1.000  C
  H1054    1.0000 0.78870  0.08060  0.55060  Biso   1.000  H
  C1438    1.0000 0.74610  0.03930  0.52660  Biso   1.000  C
  C1439    1.0000 0.71050  0.01540  0.53660  Biso   1.000  C
  H1055    1.0000 0.69800  0.99840  0.51600  Biso   1.000  H
  C1440    1.0000 0.69370  0.01700  0.57710  Biso   1.000  C
  H1056    1.0000 0.66980  0.00100  0.58380  Biso   1.000  H
  Zn21     1.0000 0.87500  0.00000  0.25000  Biso   1.000  Zn
  Zn22     1.0000 0.37500  0.50000  0.75000  Biso   1.000  Zn
  Zn23     1.0000 0.12500  0.50000  0.25000  Biso   1.000  Zn
  Zn24     1.0000 0.62500  0.00000  0.75000  Biso   1.000  Zn
