data_image0
_cell_length_a       29.2116
_cell_length_b       29.2116
_cell_length_c       29.2116
_cell_angle_alpha    90
_cell_angle_beta     90
_cell_angle_gamma    90

_symmetry_space_group_name_H-M    "P 1"
_symmetry_int_tables_number       1

loop_
  _symmetry_equiv_pos_as_xyz
  'x, y, z'

loop_
  _atom_site_label
  _atom_site_occupancy
  _atom_site_fract_x
  _atom_site_fract_y
  _atom_site_fract_z
  _atom_site_thermal_displace_type
  _atom_site_B_iso_or_equiv
  _atom_site_type_symbol
  C1       1.0000 0.63160  0.68690  0.51260  Biso   1.000  C
  C2       1.0000 0.66480  0.72020  0.51264  Biso   1.000  C
  N1       1.0000 0.72170  0.75560  0.50810  Biso   1.000  N
  H1       1.0000 0.60040  0.69510  0.51670  Biso   1.000  H
  H2       1.0000 0.65650  0.75140  0.51670  Biso   1.000  H
  C3       1.0000 0.63160  0.18690  0.01260  Biso   1.000  C
  C4       1.0000 0.66480  0.22020  0.01264  Biso   1.000  C
  N2       1.0000 0.72170  0.25560  0.00810  Biso   1.000  N
  H3       1.0000 0.60040  0.19510  0.01670  Biso   1.000  H
  H4       1.0000 0.65650  0.25140  0.01670  Biso   1.000  H
  C5       1.0000 0.13160  0.68690  0.01260  Biso   1.000  C
  C6       1.0000 0.16480  0.72020  0.01264  Biso   1.000  C
  N3       1.0000 0.22170  0.75560  0.00810  Biso   1.000  N
  H5       1.0000 0.10040  0.69510  0.01670  Biso   1.000  H
  H6       1.0000 0.15650  0.75140  0.01670  Biso   1.000  H
  C7       1.0000 0.13160  0.18690  0.51260  Biso   1.000  C
  C8       1.0000 0.16480  0.22020  0.51264  Biso   1.000  C
  N4       1.0000 0.22170  0.25560  0.50810  Biso   1.000  N
  H7       1.0000 0.10040  0.19510  0.51670  Biso   1.000  H
  H8       1.0000 0.15650  0.25140  0.51670  Biso   1.000  H
  C9       1.0000 0.36840  0.31310  0.51260  Biso   1.000  C
  C10      1.0000 0.33520  0.27980  0.51264  Biso   1.000  C
  N5       1.0000 0.27830  0.24440  0.50810  Biso   1.000  N
  H9       1.0000 0.39960  0.30490  0.51670  Biso   1.000  H
  H10      1.0000 0.34350  0.24860  0.51670  Biso   1.000  H
  C11      1.0000 0.36840  0.81310  0.01260  Biso   1.000  C
  C12      1.0000 0.33520  0.77980  0.01264  Biso   1.000  C
  N6       1.0000 0.27830  0.74440  0.00810  Biso   1.000  N
  H11      1.0000 0.39960  0.80490  0.01670  Biso   1.000  H
  H12      1.0000 0.34350  0.74860  0.01670  Biso   1.000  H
  C13      1.0000 0.86840  0.31310  0.01260  Biso   1.000  C
  C14      1.0000 0.83520  0.27980  0.01264  Biso   1.000  C
  N7       1.0000 0.77830  0.24440  0.00810  Biso   1.000  N
  H13      1.0000 0.89960  0.30490  0.01670  Biso   1.000  H
  H14      1.0000 0.84350  0.24860  0.01670  Biso   1.000  H
  C15      1.0000 0.86840  0.81310  0.51260  Biso   1.000  C
  C16      1.0000 0.83520  0.77980  0.51264  Biso   1.000  C
  N8       1.0000 0.77830  0.74440  0.50810  Biso   1.000  N
  H15      1.0000 0.89960  0.80490  0.51670  Biso   1.000  H
  H16      1.0000 0.84350  0.74860  0.51670  Biso   1.000  H
  C17      1.0000 0.36840  0.68690  0.48740  Biso   1.000  C
  C18      1.0000 0.33520  0.72020  0.48736  Biso   1.000  C
  N9       1.0000 0.27830  0.75560  0.49190  Biso   1.000  N
  H17      1.0000 0.39960  0.69510  0.48330  Biso   1.000  H
  H18      1.0000 0.34350  0.75140  0.48330  Biso   1.000  H
  C19      1.0000 0.36840  0.18690  0.98740  Biso   1.000  C
  C20      1.0000 0.33520  0.22020  0.98736  Biso   1.000  C
  N10      1.0000 0.27830  0.25560  0.99190  Biso   1.000  N
  H19      1.0000 0.39960  0.19510  0.98330  Biso   1.000  H
  H20      1.0000 0.34350  0.25140  0.98330  Biso   1.000  H
  C21      1.0000 0.86840  0.68690  0.98740  Biso   1.000  C
  C22      1.0000 0.83520  0.72020  0.98736  Biso   1.000  C
  N11      1.0000 0.77830  0.75560  0.99190  Biso   1.000  N
  H21      1.0000 0.89960  0.69510  0.98330  Biso   1.000  H
  H22      1.0000 0.84350  0.75140  0.98330  Biso   1.000  H
  C23      1.0000 0.86840  0.18690  0.48740  Biso   1.000  C
  C24      1.0000 0.83520  0.22020  0.48736  Biso   1.000  C
  N12      1.0000 0.77830  0.25560  0.49190  Biso   1.000  N
  H23      1.0000 0.89960  0.19510  0.48330  Biso   1.000  H
  H24      1.0000 0.84350  0.25140  0.48330  Biso   1.000  H
  C25      1.0000 0.63160  0.31310  0.48740  Biso   1.000  C
  C26      1.0000 0.66480  0.27980  0.48736  Biso   1.000  C
  N13      1.0000 0.72170  0.24440  0.49190  Biso   1.000  N
  H25      1.0000 0.60040  0.30490  0.48330  Biso   1.000  H
  H26      1.0000 0.65650  0.24860  0.48330  Biso   1.000  H
  C27      1.0000 0.63160  0.81310  0.98740  Biso   1.000  C
  C28      1.0000 0.66480  0.77980  0.98736  Biso   1.000  C
  N14      1.0000 0.72170  0.74440  0.99190  Biso   1.000  N
  H27      1.0000 0.60040  0.80490  0.98330  Biso   1.000  H
  H28      1.0000 0.65650  0.74860  0.98330  Biso   1.000  H
  C29      1.0000 0.13160  0.31310  0.98740  Biso   1.000  C
  C30      1.0000 0.16480  0.27980  0.98736  Biso   1.000  C
  N15      1.0000 0.22170  0.24440  0.99190  Biso   1.000  N
  H29      1.0000 0.10040  0.30490  0.98330  Biso   1.000  H
  H30      1.0000 0.15650  0.24860  0.98330  Biso   1.000  H
  C31      1.0000 0.13160  0.81310  0.48740  Biso   1.000  C
  C32      1.0000 0.16480  0.77980  0.48736  Biso   1.000  C
  N16      1.0000 0.22170  0.74440  0.49190  Biso   1.000  N
  H31      1.0000 0.10040  0.80490  0.48330  Biso   1.000  H
  H32      1.0000 0.15650  0.74860  0.48330  Biso   1.000  H
  C33      1.0000 0.51260  0.63160  0.68690  Biso   1.000  C
  C34      1.0000 0.51264  0.66480  0.72020  Biso   1.000  C
  N17      1.0000 0.50810  0.72170  0.75560  Biso   1.000  N
  H33      1.0000 0.51670  0.60040  0.69510  Biso   1.000  H
  H34      1.0000 0.51670  0.65650  0.75140  Biso   1.000  H
  C35      1.0000 0.51260  0.13160  0.18690  Biso   1.000  C
  C36      1.0000 0.51264  0.16480  0.22020  Biso   1.000  C
  N18      1.0000 0.50810  0.22170  0.25560  Biso   1.000  N
  H35      1.0000 0.51670  0.10040  0.19510  Biso   1.000  H
  H36      1.0000 0.51670  0.15650  0.25140  Biso   1.000  H
  C37      1.0000 0.01260  0.63160  0.18690  Biso   1.000  C
  C38      1.0000 0.01264  0.66480  0.22020  Biso   1.000  C
  N19      1.0000 0.00810  0.72170  0.25560  Biso   1.000  N
  H37      1.0000 0.01670  0.60040  0.19510  Biso   1.000  H
  H38      1.0000 0.01670  0.65650  0.25140  Biso   1.000  H
  C39      1.0000 0.01260  0.13160  0.68690  Biso   1.000  C
  C40      1.0000 0.01264  0.16480  0.72020  Biso   1.000  C
  N20      1.0000 0.00810  0.22170  0.75560  Biso   1.000  N
  H39      1.0000 0.01670  0.10040  0.69510  Biso   1.000  H
  H40      1.0000 0.01670  0.15650  0.75140  Biso   1.000  H
  C41      1.0000 0.51260  0.36840  0.31310  Biso   1.000  C
  C42      1.0000 0.51264  0.33520  0.27980  Biso   1.000  C
  N21      1.0000 0.50810  0.27830  0.24440  Biso   1.000  N
  H41      1.0000 0.51670  0.39960  0.30490  Biso   1.000  H
  H42      1.0000 0.51670  0.34350  0.24860  Biso   1.000  H
  C43      1.0000 0.51260  0.86840  0.81310  Biso   1.000  C
  C44      1.0000 0.51264  0.83520  0.77980  Biso   1.000  C
  N22      1.0000 0.50810  0.77830  0.74440  Biso   1.000  N
  H43      1.0000 0.51670  0.89960  0.80490  Biso   1.000  H
  H44      1.0000 0.51670  0.84350  0.74860  Biso   1.000  H
  C45      1.0000 0.01260  0.36840  0.81310  Biso   1.000  C
  C46      1.0000 0.01264  0.33520  0.77980  Biso   1.000  C
  N23      1.0000 0.00810  0.27830  0.74440  Biso   1.000  N
  H45      1.0000 0.01670  0.39960  0.80490  Biso   1.000  H
  H46      1.0000 0.01670  0.34350  0.74860  Biso   1.000  H
  C47      1.0000 0.01260  0.86840  0.31310  Biso   1.000  C
  C48      1.0000 0.01264  0.83520  0.27980  Biso   1.000  C
  N24      1.0000 0.00810  0.77830  0.24440  Biso   1.000  N
  H47      1.0000 0.01670  0.89960  0.30490  Biso   1.000  H
  H48      1.0000 0.01670  0.84350  0.24860  Biso   1.000  H
  C49      1.0000 0.48740  0.36840  0.68690  Biso   1.000  C
  C50      1.0000 0.48736  0.33520  0.72020  Biso   1.000  C
  N25      1.0000 0.49190  0.27830  0.75560  Biso   1.000  N
  H49      1.0000 0.48330  0.39960  0.69510  Biso   1.000  H
  H50      1.0000 0.48330  0.34350  0.75140  Biso   1.000  H
  C51      1.0000 0.48740  0.86840  0.18690  Biso   1.000  C
  C52      1.0000 0.48736  0.83520  0.22020  Biso   1.000  C
  N26      1.0000 0.49190  0.77830  0.25560  Biso   1.000  N
  H51      1.0000 0.48330  0.89960  0.19510  Biso   1.000  H
  H52      1.0000 0.48330  0.84350  0.25140  Biso   1.000  H
  C53      1.0000 0.98740  0.36840  0.18690  Biso   1.000  C
  C54      1.0000 0.98736  0.33520  0.22020  Biso   1.000  C
  N27      1.0000 0.99190  0.27830  0.25560  Biso   1.000  N
  H53      1.0000 0.98330  0.39960  0.19510  Biso   1.000  H
  H54      1.0000 0.98330  0.34350  0.25140  Biso   1.000  H
  C55      1.0000 0.98740  0.86840  0.68690  Biso   1.000  C
  C56      1.0000 0.98736  0.83520  0.72020  Biso   1.000  C
  N28      1.0000 0.99190  0.77830  0.75560  Biso   1.000  N
  H55      1.0000 0.98330  0.89960  0.69510  Biso   1.000  H
  H56      1.0000 0.98330  0.84350  0.75140  Biso   1.000  H
  C57      1.0000 0.48740  0.63160  0.31310  Biso   1.000  C
  C58      1.0000 0.48736  0.66480  0.27980  Biso   1.000  C
  N29      1.0000 0.49190  0.72170  0.24440  Biso   1.000  N
  H57      1.0000 0.48330  0.60040  0.30490  Biso   1.000  H
  H58      1.0000 0.48330  0.65650  0.24860  Biso   1.000  H
  C59      1.0000 0.48740  0.13160  0.81310  Biso   1.000  C
  C60      1.0000 0.48736  0.16480  0.77980  Biso   1.000  C
  N30      1.0000 0.49190  0.22170  0.74440  Biso   1.000  N
  H59      1.0000 0.48330  0.10040  0.80490  Biso   1.000  H
  H60      1.0000 0.48330  0.15650  0.74860  Biso   1.000  H
  C61      1.0000 0.98740  0.63160  0.81310  Biso   1.000  C
  C62      1.0000 0.98736  0.66480  0.77980  Biso   1.000  C
  N31      1.0000 0.99190  0.72170  0.74440  Biso   1.000  N
  H61      1.0000 0.98330  0.60040  0.80490  Biso   1.000  H
  H62      1.0000 0.98330  0.65650  0.74860  Biso   1.000  H
  C63      1.0000 0.98740  0.13160  0.31310  Biso   1.000  C
  C64      1.0000 0.98736  0.16480  0.27980  Biso   1.000  C
  N32      1.0000 0.99190  0.22170  0.24440  Biso   1.000  N
  H63      1.0000 0.98330  0.10040  0.30490  Biso   1.000  H
  H64      1.0000 0.98330  0.15650  0.24860  Biso   1.000  H
  C65      1.0000 0.68690  0.51260  0.63160  Biso   1.000  C
  C66      1.0000 0.72020  0.51264  0.66480  Biso   1.000  C
  N33      1.0000 0.75560  0.50810  0.72170  Biso   1.000  N
  H65      1.0000 0.69510  0.51670  0.60040  Biso   1.000  H
  H66      1.0000 0.75140  0.51670  0.65650  Biso   1.000  H
  C67      1.0000 0.68690  0.01260  0.13160  Biso   1.000  C
  C68      1.0000 0.72020  0.01264  0.16480  Biso   1.000  C
  N34      1.0000 0.75560  0.00810  0.22170  Biso   1.000  N
  H67      1.0000 0.69510  0.01670  0.10040  Biso   1.000  H
  H68      1.0000 0.75140  0.01670  0.15650  Biso   1.000  H
  C69      1.0000 0.18690  0.51260  0.13160  Biso   1.000  C
  C70      1.0000 0.22020  0.51264  0.16480  Biso   1.000  C
  N35      1.0000 0.25560  0.50810  0.22170  Biso   1.000  N
  H69      1.0000 0.19510  0.51670  0.10040  Biso   1.000  H
  H70      1.0000 0.25140  0.51670  0.15650  Biso   1.000  H
  C71      1.0000 0.18690  0.01260  0.63160  Biso   1.000  C
  C72      1.0000 0.22020  0.01264  0.66480  Biso   1.000  C
  N36      1.0000 0.25560  0.00810  0.72170  Biso   1.000  N
  H71      1.0000 0.19510  0.01670  0.60040  Biso   1.000  H
  H72      1.0000 0.25140  0.01670  0.65650  Biso   1.000  H
  C73      1.0000 0.31310  0.51260  0.36840  Biso   1.000  C
  C74      1.0000 0.27980  0.51264  0.33520  Biso   1.000  C
  N37      1.0000 0.24440  0.50810  0.27830  Biso   1.000  N
  H73      1.0000 0.30490  0.51670  0.39960  Biso   1.000  H
  H74      1.0000 0.24860  0.51670  0.34350  Biso   1.000  H
  C75      1.0000 0.31310  0.01260  0.86840  Biso   1.000  C
  C76      1.0000 0.27980  0.01264  0.83520  Biso   1.000  C
  N38      1.0000 0.24440  0.00810  0.77830  Biso   1.000  N
  H75      1.0000 0.30490  0.01670  0.89960  Biso   1.000  H
  H76      1.0000 0.24860  0.01670  0.84350  Biso   1.000  H
  C77      1.0000 0.81310  0.51260  0.86840  Biso   1.000  C
  C78      1.0000 0.77980  0.51264  0.83520  Biso   1.000  C
  N39      1.0000 0.74440  0.50810  0.77830  Biso   1.000  N
  H77      1.0000 0.80490  0.51670  0.89960  Biso   1.000  H
  H78      1.0000 0.74860  0.51670  0.84350  Biso   1.000  H
  C79      1.0000 0.81310  0.01260  0.36840  Biso   1.000  C
  C80      1.0000 0.77980  0.01264  0.33520  Biso   1.000  C
  N40      1.0000 0.74440  0.00810  0.27830  Biso   1.000  N
  H79      1.0000 0.80490  0.01670  0.39960  Biso   1.000  H
  H80      1.0000 0.74860  0.01670  0.34350  Biso   1.000  H
  C81      1.0000 0.68690  0.48740  0.36840  Biso   1.000  C
  C82      1.0000 0.72020  0.48736  0.33520  Biso   1.000  C
  N41      1.0000 0.75560  0.49190  0.27830  Biso   1.000  N
  H81      1.0000 0.69510  0.48330  0.39960  Biso   1.000  H
  H82      1.0000 0.75140  0.48330  0.34350  Biso   1.000  H
  C83      1.0000 0.68690  0.98740  0.86840  Biso   1.000  C
  C84      1.0000 0.72020  0.98736  0.83520  Biso   1.000  C
  N42      1.0000 0.75560  0.99190  0.77830  Biso   1.000  N
  H83      1.0000 0.69510  0.98330  0.89960  Biso   1.000  H
  H84      1.0000 0.75140  0.98330  0.84350  Biso   1.000  H
  C85      1.0000 0.18690  0.48740  0.86840  Biso   1.000  C
  C86      1.0000 0.22020  0.48736  0.83520  Biso   1.000  C
  N43      1.0000 0.25560  0.49190  0.77830  Biso   1.000  N
  H85      1.0000 0.19510  0.48330  0.89960  Biso   1.000  H
  H86      1.0000 0.25140  0.48330  0.84350  Biso   1.000  H
  C87      1.0000 0.18690  0.98740  0.36840  Biso   1.000  C
  C88      1.0000 0.22020  0.98736  0.33520  Biso   1.000  C
  N44      1.0000 0.25560  0.99190  0.27830  Biso   1.000  N
  H87      1.0000 0.19510  0.98330  0.39960  Biso   1.000  H
  H88      1.0000 0.25140  0.98330  0.34350  Biso   1.000  H
  C89      1.0000 0.31310  0.48740  0.63160  Biso   1.000  C
  C90      1.0000 0.27980  0.48736  0.66480  Biso   1.000  C
  N45      1.0000 0.24440  0.49190  0.72170  Biso   1.000  N
  H89      1.0000 0.30490  0.48330  0.60040  Biso   1.000  H
  H90      1.0000 0.24860  0.48330  0.65650  Biso   1.000  H
  C91      1.0000 0.31310  0.98740  0.13160  Biso   1.000  C
  C92      1.0000 0.27980  0.98736  0.16480  Biso   1.000  C
  N46      1.0000 0.24440  0.99190  0.22170  Biso   1.000  N
  H91      1.0000 0.30490  0.98330  0.10040  Biso   1.000  H
  H92      1.0000 0.24860  0.98330  0.15650  Biso   1.000  H
  C93      1.0000 0.81310  0.48740  0.13160  Biso   1.000  C
  C94      1.0000 0.77980  0.48736  0.16480  Biso   1.000  C
  N47      1.0000 0.74440  0.49190  0.22170  Biso   1.000  N
  H93      1.0000 0.80490  0.48330  0.10040  Biso   1.000  H
  H94      1.0000 0.74860  0.48330  0.15650  Biso   1.000  H
  C95      1.0000 0.81310  0.98740  0.63160  Biso   1.000  C
  C96      1.0000 0.77980  0.98736  0.66480  Biso   1.000  C
  N48      1.0000 0.74440  0.99190  0.72170  Biso   1.000  N
  H95      1.0000 0.80490  0.98330  0.60040  Biso   1.000  H
  H96      1.0000 0.74860  0.98330  0.65650  Biso   1.000  H
  C97      1.0000 0.68690  0.63160  0.48740  Biso   1.000  C
  C98      1.0000 0.72020  0.66480  0.48736  Biso   1.000  C
  N49      1.0000 0.75560  0.72170  0.49190  Biso   1.000  N
  H97      1.0000 0.69510  0.60040  0.48330  Biso   1.000  H
  H98      1.0000 0.75140  0.65650  0.48330  Biso   1.000  H
  C99      1.0000 0.68690  0.13160  0.98740  Biso   1.000  C
  C100     1.0000 0.72020  0.16480  0.98736  Biso   1.000  C
  N50      1.0000 0.75560  0.22170  0.99190  Biso   1.000  N
  H99      1.0000 0.69510  0.10040  0.98330  Biso   1.000  H
  H100     1.0000 0.75140  0.15650  0.98330  Biso   1.000  H
  C101     1.0000 0.18690  0.63160  0.98740  Biso   1.000  C
  C102     1.0000 0.22020  0.66480  0.98736  Biso   1.000  C
  N51      1.0000 0.25560  0.72170  0.99190  Biso   1.000  N
  H101     1.0000 0.19510  0.60040  0.98330  Biso   1.000  H
  H102     1.0000 0.25140  0.65650  0.98330  Biso   1.000  H
  C103     1.0000 0.18690  0.13160  0.48740  Biso   1.000  C
  C104     1.0000 0.22020  0.16480  0.48736  Biso   1.000  C
  N52      1.0000 0.25560  0.22170  0.49190  Biso   1.000  N
  H103     1.0000 0.19510  0.10040  0.48330  Biso   1.000  H
  H104     1.0000 0.25140  0.15650  0.48330  Biso   1.000  H
  C105     1.0000 0.31310  0.36840  0.48740  Biso   1.000  C
  C106     1.0000 0.27980  0.33520  0.48736  Biso   1.000  C
  N53      1.0000 0.24440  0.27830  0.49190  Biso   1.000  N
  H105     1.0000 0.30490  0.39960  0.48330  Biso   1.000  H
  H106     1.0000 0.24860  0.34350  0.48330  Biso   1.000  H
  C107     1.0000 0.31310  0.86840  0.98740  Biso   1.000  C
  C108     1.0000 0.27980  0.83520  0.98736  Biso   1.000  C
  N54      1.0000 0.24440  0.77830  0.99190  Biso   1.000  N
  H107     1.0000 0.30490  0.89960  0.98330  Biso   1.000  H
  H108     1.0000 0.24860  0.84350  0.98330  Biso   1.000  H
  C109     1.0000 0.81310  0.36840  0.98740  Biso   1.000  C
  C110     1.0000 0.77980  0.33520  0.98736  Biso   1.000  C
  N55      1.0000 0.74440  0.27830  0.99190  Biso   1.000  N
  H109     1.0000 0.80490  0.39960  0.98330  Biso   1.000  H
  H110     1.0000 0.74860  0.34350  0.98330  Biso   1.000  H
  C111     1.0000 0.81310  0.86840  0.48740  Biso   1.000  C
  C112     1.0000 0.77980  0.83520  0.48736  Biso   1.000  C
  N56      1.0000 0.74440  0.77830  0.49190  Biso   1.000  N
  H111     1.0000 0.80490  0.89960  0.48330  Biso   1.000  H
  H112     1.0000 0.74860  0.84350  0.48330  Biso   1.000  H
  C113     1.0000 0.68690  0.36840  0.51260  Biso   1.000  C
  C114     1.0000 0.72020  0.33520  0.51264  Biso   1.000  C
  N57      1.0000 0.75560  0.27830  0.50810  Biso   1.000  N
  H113     1.0000 0.69510  0.39960  0.51670  Biso   1.000  H
  H114     1.0000 0.75140  0.34350  0.51670  Biso   1.000  H
  C115     1.0000 0.68690  0.86840  0.01260  Biso   1.000  C
  C116     1.0000 0.72020  0.83520  0.01264  Biso   1.000  C
  N58      1.0000 0.75560  0.77830  0.00810  Biso   1.000  N
  H115     1.0000 0.69510  0.89960  0.01670  Biso   1.000  H
  H116     1.0000 0.75140  0.84350  0.01670  Biso   1.000  H
  C117     1.0000 0.18690  0.36840  0.01260  Biso   1.000  C
  C118     1.0000 0.22020  0.33520  0.01264  Biso   1.000  C
  N59      1.0000 0.25560  0.27830  0.00810  Biso   1.000  N
  H117     1.0000 0.19510  0.39960  0.01670  Biso   1.000  H
  H118     1.0000 0.25140  0.34350  0.01670  Biso   1.000  H
  C119     1.0000 0.18690  0.86840  0.51260  Biso   1.000  C
  C120     1.0000 0.22020  0.83520  0.51264  Biso   1.000  C
  N60      1.0000 0.25560  0.77830  0.50810  Biso   1.000  N
  H119     1.0000 0.19510  0.89960  0.51670  Biso   1.000  H
  H120     1.0000 0.25140  0.84350  0.51670  Biso   1.000  H
  C121     1.0000 0.31310  0.63160  0.51260  Biso   1.000  C
  C122     1.0000 0.27980  0.66480  0.51264  Biso   1.000  C
  N61      1.0000 0.24440  0.72170  0.50810  Biso   1.000  N
  H121     1.0000 0.30490  0.60040  0.51670  Biso   1.000  H
  H122     1.0000 0.24860  0.65650  0.51670  Biso   1.000  H
  C123     1.0000 0.31310  0.13160  0.01260  Biso   1.000  C
  C124     1.0000 0.27980  0.16480  0.01264  Biso   1.000  C
  N62      1.0000 0.24440  0.22170  0.00810  Biso   1.000  N
  H123     1.0000 0.30490  0.10040  0.01670  Biso   1.000  H
  H124     1.0000 0.24860  0.15650  0.01670  Biso   1.000  H
  C125     1.0000 0.81310  0.63160  0.01260  Biso   1.000  C
  C126     1.0000 0.77980  0.66480  0.01264  Biso   1.000  C
  N63      1.0000 0.74440  0.72170  0.00810  Biso   1.000  N
  H125     1.0000 0.80490  0.60040  0.01670  Biso   1.000  H
  H126     1.0000 0.74860  0.65650  0.01670  Biso   1.000  H
  C127     1.0000 0.81310  0.13160  0.51260  Biso   1.000  C
  C128     1.0000 0.77980  0.16480  0.51264  Biso   1.000  C
  N64      1.0000 0.74440  0.22170  0.50810  Biso   1.000  N
  H127     1.0000 0.80490  0.10040  0.51670  Biso   1.000  H
  H128     1.0000 0.74860  0.15650  0.51670  Biso   1.000  H
  C129     1.0000 0.63160  0.51260  0.31310  Biso   1.000  C
  C130     1.0000 0.66480  0.51264  0.27980  Biso   1.000  C
  N65      1.0000 0.72170  0.50810  0.24440  Biso   1.000  N
  H129     1.0000 0.60040  0.51670  0.30490  Biso   1.000  H
  H130     1.0000 0.65650  0.51670  0.24860  Biso   1.000  H
  C131     1.0000 0.63160  0.01260  0.81310  Biso   1.000  C
  C132     1.0000 0.66480  0.01264  0.77980  Biso   1.000  C
  N66      1.0000 0.72170  0.00810  0.74440  Biso   1.000  N
  H131     1.0000 0.60040  0.01670  0.80490  Biso   1.000  H
  H132     1.0000 0.65650  0.01670  0.74860  Biso   1.000  H
  C133     1.0000 0.13160  0.51260  0.81310  Biso   1.000  C
  C134     1.0000 0.16480  0.51264  0.77980  Biso   1.000  C
  N67      1.0000 0.22170  0.50810  0.74440  Biso   1.000  N
  H133     1.0000 0.10040  0.51670  0.80490  Biso   1.000  H
  H134     1.0000 0.15650  0.51670  0.74860  Biso   1.000  H
  C135     1.0000 0.13160  0.01260  0.31310  Biso   1.000  C
  C136     1.0000 0.16480  0.01264  0.27980  Biso   1.000  C
  N68      1.0000 0.22170  0.00810  0.24440  Biso   1.000  N
  H135     1.0000 0.10040  0.01670  0.30490  Biso   1.000  H
  H136     1.0000 0.15650  0.01670  0.24860  Biso   1.000  H
  C137     1.0000 0.36840  0.51260  0.68690  Biso   1.000  C
  C138     1.0000 0.33520  0.51264  0.72020  Biso   1.000  C
  N69      1.0000 0.27830  0.50810  0.75560  Biso   1.000  N
  H137     1.0000 0.39960  0.51670  0.69510  Biso   1.000  H
  H138     1.0000 0.34350  0.51670  0.75140  Biso   1.000  H
  C139     1.0000 0.36840  0.01260  0.18690  Biso   1.000  C
  C140     1.0000 0.33520  0.01264  0.22020  Biso   1.000  C
  N70      1.0000 0.27830  0.00810  0.25560  Biso   1.000  N
  H139     1.0000 0.39960  0.01670  0.19510  Biso   1.000  H
  H140     1.0000 0.34350  0.01670  0.25140  Biso   1.000  H
  C141     1.0000 0.86840  0.51260  0.18690  Biso   1.000  C
  C142     1.0000 0.83520  0.51264  0.22020  Biso   1.000  C
  N71      1.0000 0.77830  0.50810  0.25560  Biso   1.000  N
  H141     1.0000 0.89960  0.51670  0.19510  Biso   1.000  H
  H142     1.0000 0.84350  0.51670  0.25140  Biso   1.000  H
  C143     1.0000 0.86840  0.01260  0.68690  Biso   1.000  C
  C144     1.0000 0.83520  0.01264  0.72020  Biso   1.000  C
  N72      1.0000 0.77830  0.00810  0.75560  Biso   1.000  N
  H143     1.0000 0.89960  0.01670  0.69510  Biso   1.000  H
  H144     1.0000 0.84350  0.01670  0.75140  Biso   1.000  H
  C145     1.0000 0.36840  0.48740  0.31310  Biso   1.000  C
  C146     1.0000 0.33520  0.48736  0.27980  Biso   1.000  C
  N73      1.0000 0.27830  0.49190  0.24440  Biso   1.000  N
  H145     1.0000 0.39960  0.48330  0.30490  Biso   1.000  H
  H146     1.0000 0.34350  0.48330  0.24860  Biso   1.000  H
  C147     1.0000 0.36840  0.98740  0.81310  Biso   1.000  C
  C148     1.0000 0.33520  0.98736  0.77980  Biso   1.000  C
  N74      1.0000 0.27830  0.99190  0.74440  Biso   1.000  N
  H147     1.0000 0.39960  0.98330  0.80490  Biso   1.000  H
  H148     1.0000 0.34350  0.98330  0.74860  Biso   1.000  H
  C149     1.0000 0.86840  0.48740  0.81310  Biso   1.000  C
  C150     1.0000 0.83520  0.48736  0.77980  Biso   1.000  C
  N75      1.0000 0.77830  0.49190  0.74440  Biso   1.000  N
  H149     1.0000 0.89960  0.48330  0.80490  Biso   1.000  H
  H150     1.0000 0.84350  0.48330  0.74860  Biso   1.000  H
  C151     1.0000 0.86840  0.98740  0.31310  Biso   1.000  C
  C152     1.0000 0.83520  0.98736  0.27980  Biso   1.000  C
  N76      1.0000 0.77830  0.99190  0.24440  Biso   1.000  N
  H151     1.0000 0.89960  0.98330  0.30490  Biso   1.000  H
  H152     1.0000 0.84350  0.98330  0.24860  Biso   1.000  H
  C153     1.0000 0.63160  0.48740  0.68690  Biso   1.000  C
  C154     1.0000 0.66480  0.48736  0.72020  Biso   1.000  C
  N77      1.0000 0.72170  0.49190  0.75560  Biso   1.000  N
  H153     1.0000 0.60040  0.48330  0.69510  Biso   1.000  H
  H154     1.0000 0.65650  0.48330  0.75140  Biso   1.000  H
  C155     1.0000 0.63160  0.98740  0.18690  Biso   1.000  C
  C156     1.0000 0.66480  0.98736  0.22020  Biso   1.000  C
  N78      1.0000 0.72170  0.99190  0.25560  Biso   1.000  N
  H155     1.0000 0.60040  0.98330  0.19510  Biso   1.000  H
  H156     1.0000 0.65650  0.98330  0.25140  Biso   1.000  H
  C157     1.0000 0.13160  0.48740  0.18690  Biso   1.000  C
  C158     1.0000 0.16480  0.48736  0.22020  Biso   1.000  C
  N79      1.0000 0.22170  0.49190  0.25560  Biso   1.000  N
  H157     1.0000 0.10040  0.48330  0.19510  Biso   1.000  H
  H158     1.0000 0.15650  0.48330  0.25140  Biso   1.000  H
  C159     1.0000 0.13160  0.98740  0.68690  Biso   1.000  C
  C160     1.0000 0.16480  0.98736  0.72020  Biso   1.000  C
  N80      1.0000 0.22170  0.99190  0.75560  Biso   1.000  N
  H159     1.0000 0.10040  0.98330  0.69510  Biso   1.000  H
  H160     1.0000 0.15650  0.98330  0.75140  Biso   1.000  H
  C161     1.0000 0.51260  0.68690  0.36840  Biso   1.000  C
  C162     1.0000 0.51264  0.72020  0.33520  Biso   1.000  C
  N81      1.0000 0.50810  0.75560  0.27830  Biso   1.000  N
  H161     1.0000 0.51670  0.69510  0.39960  Biso   1.000  H
  H162     1.0000 0.51670  0.75140  0.34350  Biso   1.000  H
  C163     1.0000 0.51260  0.18690  0.86840  Biso   1.000  C
  C164     1.0000 0.51264  0.22020  0.83520  Biso   1.000  C
  N82      1.0000 0.50810  0.25560  0.77830  Biso   1.000  N
  H163     1.0000 0.51670  0.19510  0.89960  Biso   1.000  H
  H164     1.0000 0.51670  0.25140  0.84350  Biso   1.000  H
  C165     1.0000 0.01260  0.68690  0.86840  Biso   1.000  C
  C166     1.0000 0.01264  0.72020  0.83520  Biso   1.000  C
  N83      1.0000 0.00810  0.75560  0.77830  Biso   1.000  N
  H165     1.0000 0.01670  0.69510  0.89960  Biso   1.000  H
  H166     1.0000 0.01670  0.75140  0.84350  Biso   1.000  H
  C167     1.0000 0.01260  0.18690  0.36840  Biso   1.000  C
  C168     1.0000 0.01264  0.22020  0.33520  Biso   1.000  C
  N84      1.0000 0.00810  0.25560  0.27830  Biso   1.000  N
  H167     1.0000 0.01670  0.19510  0.39960  Biso   1.000  H
  H168     1.0000 0.01670  0.25140  0.34350  Biso   1.000  H
  C169     1.0000 0.51260  0.31310  0.63160  Biso   1.000  C
  C170     1.0000 0.51264  0.27980  0.66480  Biso   1.000  C
  N85      1.0000 0.50810  0.24440  0.72170  Biso   1.000  N
  H169     1.0000 0.51670  0.30490  0.60040  Biso   1.000  H
  H170     1.0000 0.51670  0.24860  0.65650  Biso   1.000  H
  C171     1.0000 0.51260  0.81310  0.13160  Biso   1.000  C
  C172     1.0000 0.51264  0.77980  0.16480  Biso   1.000  C
  N86      1.0000 0.50810  0.74440  0.22170  Biso   1.000  N
  H171     1.0000 0.51670  0.80490  0.10040  Biso   1.000  H
  H172     1.0000 0.51670  0.74860  0.15650  Biso   1.000  H
  C173     1.0000 0.01260  0.31310  0.13160  Biso   1.000  C
  C174     1.0000 0.01264  0.27980  0.16480  Biso   1.000  C
  N87      1.0000 0.00810  0.24440  0.22170  Biso   1.000  N
  H173     1.0000 0.01670  0.30490  0.10040  Biso   1.000  H
  H174     1.0000 0.01670  0.24860  0.15650  Biso   1.000  H
  C175     1.0000 0.01260  0.81310  0.63160  Biso   1.000  C
  C176     1.0000 0.01264  0.77980  0.66480  Biso   1.000  C
  N88      1.0000 0.00810  0.74440  0.72170  Biso   1.000  N
  H175     1.0000 0.01670  0.80490  0.60040  Biso   1.000  H
  H176     1.0000 0.01670  0.74860  0.65650  Biso   1.000  H
  C177     1.0000 0.48740  0.68690  0.63160  Biso   1.000  C
  C178     1.0000 0.48736  0.72020  0.66480  Biso   1.000  C
  N89      1.0000 0.49190  0.75560  0.72170  Biso   1.000  N
  H177     1.0000 0.48330  0.69510  0.60040  Biso   1.000  H
  H178     1.0000 0.48330  0.75140  0.65650  Biso   1.000  H
  C179     1.0000 0.48740  0.18690  0.13160  Biso   1.000  C
  C180     1.0000 0.48736  0.22020  0.16480  Biso   1.000  C
  N90      1.0000 0.49190  0.25560  0.22170  Biso   1.000  N
  H179     1.0000 0.48330  0.19510  0.10040  Biso   1.000  H
  H180     1.0000 0.48330  0.25140  0.15650  Biso   1.000  H
  C181     1.0000 0.98740  0.68690  0.13160  Biso   1.000  C
  C182     1.0000 0.98736  0.72020  0.16480  Biso   1.000  C
  N91      1.0000 0.99190  0.75560  0.22170  Biso   1.000  N
  H181     1.0000 0.98330  0.69510  0.10040  Biso   1.000  H
  H182     1.0000 0.98330  0.75140  0.15650  Biso   1.000  H
  C183     1.0000 0.98740  0.18690  0.63160  Biso   1.000  C
  C184     1.0000 0.98736  0.22020  0.66480  Biso   1.000  C
  N92      1.0000 0.99190  0.25560  0.72170  Biso   1.000  N
  H183     1.0000 0.98330  0.19510  0.60040  Biso   1.000  H
  H184     1.0000 0.98330  0.25140  0.65650  Biso   1.000  H
  C185     1.0000 0.48740  0.31310  0.36840  Biso   1.000  C
  C186     1.0000 0.48736  0.27980  0.33520  Biso   1.000  C
  N93      1.0000 0.49190  0.24440  0.27830  Biso   1.000  N
  H185     1.0000 0.48330  0.30490  0.39960  Biso   1.000  H
  H186     1.0000 0.48330  0.24860  0.34350  Biso   1.000  H
  C187     1.0000 0.48740  0.81310  0.86840  Biso   1.000  C
  C188     1.0000 0.48736  0.77980  0.83520  Biso   1.000  C
  N94      1.0000 0.49190  0.74440  0.77830  Biso   1.000  N
  H187     1.0000 0.48330  0.80490  0.89960  Biso   1.000  H
  H188     1.0000 0.48330  0.74860  0.84350  Biso   1.000  H
  C189     1.0000 0.98740  0.31310  0.86840  Biso   1.000  C
  C190     1.0000 0.98736  0.27980  0.83520  Biso   1.000  C
  N95      1.0000 0.99190  0.24440  0.77830  Biso   1.000  N
  H189     1.0000 0.98330  0.30490  0.89960  Biso   1.000  H
  H190     1.0000 0.98330  0.24860  0.84350  Biso   1.000  H
  C191     1.0000 0.98740  0.81310  0.36840  Biso   1.000  C
  C192     1.0000 0.98736  0.77980  0.33520  Biso   1.000  C
  N96      1.0000 0.99190  0.74440  0.27830  Biso   1.000  N
  H191     1.0000 0.98330  0.80490  0.39960  Biso   1.000  H
  H192     1.0000 0.98330  0.74860  0.34350  Biso   1.000  H
  C193     1.0000 0.36840  0.31310  0.48740  Biso   1.000  C
  C194     1.0000 0.33520  0.27980  0.48736  Biso   1.000  C
  N97      1.0000 0.27830  0.24440  0.49190  Biso   1.000  N
  H193     1.0000 0.39960  0.30490  0.48330  Biso   1.000  H
  H194     1.0000 0.34350  0.24860  0.48330  Biso   1.000  H
  C195     1.0000 0.36840  0.81310  0.98740  Biso   1.000  C
  C196     1.0000 0.33520  0.77980  0.98736  Biso   1.000  C
  N98      1.0000 0.27830  0.74440  0.99190  Biso   1.000  N
  H195     1.0000 0.39960  0.80490  0.98330  Biso   1.000  H
  H196     1.0000 0.34350  0.74860  0.98330  Biso   1.000  H
  C197     1.0000 0.86840  0.31310  0.98740  Biso   1.000  C
  C198     1.0000 0.83520  0.27980  0.98736  Biso   1.000  C
  N99      1.0000 0.77830  0.24440  0.99190  Biso   1.000  N
  H197     1.0000 0.89960  0.30490  0.98330  Biso   1.000  H
  H198     1.0000 0.84350  0.24860  0.98330  Biso   1.000  H
  C199     1.0000 0.86840  0.81310  0.48740  Biso   1.000  C
  C200     1.0000 0.83520  0.77980  0.48736  Biso   1.000  C
  N100     1.0000 0.77830  0.74440  0.49190  Biso   1.000  N
  H199     1.0000 0.89960  0.80490  0.48330  Biso   1.000  H
  H200     1.0000 0.84350  0.74860  0.48330  Biso   1.000  H
  C201     1.0000 0.63160  0.68690  0.48740  Biso   1.000  C
  C202     1.0000 0.66480  0.72020  0.48736  Biso   1.000  C
  N101     1.0000 0.72170  0.75560  0.49190  Biso   1.000  N
  H201     1.0000 0.60040  0.69510  0.48330  Biso   1.000  H
  H202     1.0000 0.65650  0.75140  0.48330  Biso   1.000  H
  C203     1.0000 0.63160  0.18690  0.98740  Biso   1.000  C
  C204     1.0000 0.66480  0.22020  0.98736  Biso   1.000  C
  N102     1.0000 0.72170  0.25560  0.99190  Biso   1.000  N
  H203     1.0000 0.60040  0.19510  0.98330  Biso   1.000  H
  H204     1.0000 0.65650  0.25140  0.98330  Biso   1.000  H
  C205     1.0000 0.13160  0.68690  0.98740  Biso   1.000  C
  C206     1.0000 0.16480  0.72020  0.98736  Biso   1.000  C
  N103     1.0000 0.22170  0.75560  0.99190  Biso   1.000  N
  H205     1.0000 0.10040  0.69510  0.98330  Biso   1.000  H
  H206     1.0000 0.15650  0.75140  0.98330  Biso   1.000  H
  C207     1.0000 0.13160  0.18690  0.48740  Biso   1.000  C
  C208     1.0000 0.16480  0.22020  0.48736  Biso   1.000  C
  N104     1.0000 0.22170  0.25560  0.49190  Biso   1.000  N
  H207     1.0000 0.10040  0.19510  0.48330  Biso   1.000  H
  H208     1.0000 0.15650  0.25140  0.48330  Biso   1.000  H
  C209     1.0000 0.63160  0.31310  0.51260  Biso   1.000  C
  C210     1.0000 0.66480  0.27980  0.51264  Biso   1.000  C
  N105     1.0000 0.72170  0.24440  0.50810  Biso   1.000  N
  H209     1.0000 0.60040  0.30490  0.51670  Biso   1.000  H
  H210     1.0000 0.65650  0.24860  0.51670  Biso   1.000  H
  C211     1.0000 0.63160  0.81310  0.01260  Biso   1.000  C
  C212     1.0000 0.66480  0.77980  0.01264  Biso   1.000  C
  N106     1.0000 0.72170  0.74440  0.00810  Biso   1.000  N
  H211     1.0000 0.60040  0.80490  0.01670  Biso   1.000  H
  H212     1.0000 0.65650  0.74860  0.01670  Biso   1.000  H
  C213     1.0000 0.13160  0.31310  0.01260  Biso   1.000  C
  C214     1.0000 0.16480  0.27980  0.01264  Biso   1.000  C
  N107     1.0000 0.22170  0.24440  0.00810  Biso   1.000  N
  H213     1.0000 0.10040  0.30490  0.01670  Biso   1.000  H
  H214     1.0000 0.15650  0.24860  0.01670  Biso   1.000  H
  C215     1.0000 0.13160  0.81310  0.51260  Biso   1.000  C
  C216     1.0000 0.16480  0.77980  0.51264  Biso   1.000  C
  N108     1.0000 0.22170  0.74440  0.50810  Biso   1.000  N
  H215     1.0000 0.10040  0.80490  0.51670  Biso   1.000  H
  H216     1.0000 0.15650  0.74860  0.51670  Biso   1.000  H
  C217     1.0000 0.36840  0.68690  0.51260  Biso   1.000  C
  C218     1.0000 0.33520  0.72020  0.51264  Biso   1.000  C
  N109     1.0000 0.27830  0.75560  0.50810  Biso   1.000  N
  H217     1.0000 0.39960  0.69510  0.51670  Biso   1.000  H
  H218     1.0000 0.34350  0.75140  0.51670  Biso   1.000  H
  C219     1.0000 0.36840  0.18690  0.01260  Biso   1.000  C
  C220     1.0000 0.33520  0.22020  0.01264  Biso   1.000  C
  N110     1.0000 0.27830  0.25560  0.00810  Biso   1.000  N
  H219     1.0000 0.39960  0.19510  0.01670  Biso   1.000  H
  H220     1.0000 0.34350  0.25140  0.01670  Biso   1.000  H
  C221     1.0000 0.86840  0.68690  0.01260  Biso   1.000  C
  C222     1.0000 0.83520  0.72020  0.01264  Biso   1.000  C
  N111     1.0000 0.77830  0.75560  0.00810  Biso   1.000  N
  H221     1.0000 0.89960  0.69510  0.01670  Biso   1.000  H
  H222     1.0000 0.84350  0.75140  0.01670  Biso   1.000  H
  C223     1.0000 0.86840  0.18690  0.51260  Biso   1.000  C
  C224     1.0000 0.83520  0.22020  0.51264  Biso   1.000  C
  N112     1.0000 0.77830  0.25560  0.50810  Biso   1.000  N
  H223     1.0000 0.89960  0.19510  0.51670  Biso   1.000  H
  H224     1.0000 0.84350  0.25140  0.51670  Biso   1.000  H
  C225     1.0000 0.48740  0.36840  0.31310  Biso   1.000  C
  C226     1.0000 0.48736  0.33520  0.27980  Biso   1.000  C
  N113     1.0000 0.49190  0.27830  0.24440  Biso   1.000  N
  H225     1.0000 0.48330  0.39960  0.30490  Biso   1.000  H
  H226     1.0000 0.48330  0.34350  0.24860  Biso   1.000  H
  C227     1.0000 0.48740  0.86840  0.81310  Biso   1.000  C
  C228     1.0000 0.48736  0.83520  0.77980  Biso   1.000  C
  N114     1.0000 0.49190  0.77830  0.74440  Biso   1.000  N
  H227     1.0000 0.48330  0.89960  0.80490  Biso   1.000  H
  H228     1.0000 0.48330  0.84350  0.74860  Biso   1.000  H
  C229     1.0000 0.98740  0.36840  0.81310  Biso   1.000  C
  C230     1.0000 0.98736  0.33520  0.77980  Biso   1.000  C
  N115     1.0000 0.99190  0.27830  0.74440  Biso   1.000  N
  H229     1.0000 0.98330  0.39960  0.80490  Biso   1.000  H
  H230     1.0000 0.98330  0.34350  0.74860  Biso   1.000  H
  C231     1.0000 0.98740  0.86840  0.31310  Biso   1.000  C
  C232     1.0000 0.98736  0.83520  0.27980  Biso   1.000  C
  N116     1.0000 0.99190  0.77830  0.24440  Biso   1.000  N
  H231     1.0000 0.98330  0.89960  0.30490  Biso   1.000  H
  H232     1.0000 0.98330  0.84350  0.24860  Biso   1.000  H
  C233     1.0000 0.48740  0.63160  0.68690  Biso   1.000  C
  C234     1.0000 0.48736  0.66480  0.72020  Biso   1.000  C
  N117     1.0000 0.49190  0.72170  0.75560  Biso   1.000  N
  H233     1.0000 0.48330  0.60040  0.69510  Biso   1.000  H
  H234     1.0000 0.48330  0.65650  0.75140  Biso   1.000  H
  C235     1.0000 0.48740  0.13160  0.18690  Biso   1.000  C
  C236     1.0000 0.48736  0.16480  0.22020  Biso   1.000  C
  N118     1.0000 0.49190  0.22170  0.25560  Biso   1.000  N
  H235     1.0000 0.48330  0.10040  0.19510  Biso   1.000  H
  H236     1.0000 0.48330  0.15650  0.25140  Biso   1.000  H
  C237     1.0000 0.98740  0.63160  0.18690  Biso   1.000  C
  C238     1.0000 0.98736  0.66480  0.22020  Biso   1.000  C
  N119     1.0000 0.99190  0.72170  0.25560  Biso   1.000  N
  H237     1.0000 0.98330  0.60040  0.19510  Biso   1.000  H
  H238     1.0000 0.98330  0.65650  0.25140  Biso   1.000  H
  C239     1.0000 0.98740  0.13160  0.68690  Biso   1.000  C
  C240     1.0000 0.98736  0.16480  0.72020  Biso   1.000  C
  N120     1.0000 0.99190  0.22170  0.75560  Biso   1.000  N
  H239     1.0000 0.98330  0.10040  0.69510  Biso   1.000  H
  H240     1.0000 0.98330  0.15650  0.75140  Biso   1.000  H
  C241     1.0000 0.51260  0.63160  0.31310  Biso   1.000  C
  C242     1.0000 0.51264  0.66480  0.27980  Biso   1.000  C
  N121     1.0000 0.50810  0.72170  0.24440  Biso   1.000  N
  H241     1.0000 0.51670  0.60040  0.30490  Biso   1.000  H
  H242     1.0000 0.51670  0.65650  0.24860  Biso   1.000  H
  C243     1.0000 0.51260  0.13160  0.81310  Biso   1.000  C
  C244     1.0000 0.51264  0.16480  0.77980  Biso   1.000  C
  N122     1.0000 0.50810  0.22170  0.74440  Biso   1.000  N
  H243     1.0000 0.51670  0.10040  0.80490  Biso   1.000  H
  H244     1.0000 0.51670  0.15650  0.74860  Biso   1.000  H
  C245     1.0000 0.01260  0.63160  0.81310  Biso   1.000  C
  C246     1.0000 0.01264  0.66480  0.77980  Biso   1.000  C
  N123     1.0000 0.00810  0.72170  0.74440  Biso   1.000  N
  H245     1.0000 0.01670  0.60040  0.80490  Biso   1.000  H
  H246     1.0000 0.01670  0.65650  0.74860  Biso   1.000  H
  C247     1.0000 0.01260  0.13160  0.31310  Biso   1.000  C
  C248     1.0000 0.01264  0.16480  0.27980  Biso   1.000  C
  N124     1.0000 0.00810  0.22170  0.24440  Biso   1.000  N
  H247     1.0000 0.01670  0.10040  0.30490  Biso   1.000  H
  H248     1.0000 0.01670  0.15650  0.24860  Biso   1.000  H
  C249     1.0000 0.51260  0.36840  0.68690  Biso   1.000  C
  C250     1.0000 0.51264  0.33520  0.72020  Biso   1.000  C
  N125     1.0000 0.50810  0.27830  0.75560  Biso   1.000  N
  H249     1.0000 0.51670  0.39960  0.69510  Biso   1.000  H
  H250     1.0000 0.51670  0.34350  0.75140  Biso   1.000  H
  C251     1.0000 0.51260  0.86840  0.18690  Biso   1.000  C
  C252     1.0000 0.51264  0.83520  0.22020  Biso   1.000  C
  N126     1.0000 0.50810  0.77830  0.25560  Biso   1.000  N
  H251     1.0000 0.51670  0.89960  0.19510  Biso   1.000  H
  H252     1.0000 0.51670  0.84350  0.25140  Biso   1.000  H
  C253     1.0000 0.01260  0.36840  0.18690  Biso   1.000  C
  C254     1.0000 0.01264  0.33520  0.22020  Biso   1.000  C
  N127     1.0000 0.00810  0.27830  0.25560  Biso   1.000  N
  H253     1.0000 0.01670  0.39960  0.19510  Biso   1.000  H
  H254     1.0000 0.01670  0.34350  0.25140  Biso   1.000  H
  C255     1.0000 0.01260  0.86840  0.68690  Biso   1.000  C
  C256     1.0000 0.01264  0.83520  0.72020  Biso   1.000  C
  N128     1.0000 0.00810  0.77830  0.75560  Biso   1.000  N
  H255     1.0000 0.01670  0.89960  0.69510  Biso   1.000  H
  H256     1.0000 0.01670  0.84350  0.75140  Biso   1.000  H
  C257     1.0000 0.31310  0.48740  0.36840  Biso   1.000  C
  C258     1.0000 0.27980  0.48736  0.33520  Biso   1.000  C
  N129     1.0000 0.24440  0.49190  0.27830  Biso   1.000  N
  H257     1.0000 0.30490  0.48330  0.39960  Biso   1.000  H
  H258     1.0000 0.24860  0.48330  0.34350  Biso   1.000  H
  C259     1.0000 0.31310  0.98740  0.86840  Biso   1.000  C
  C260     1.0000 0.27980  0.98736  0.83520  Biso   1.000  C
  N130     1.0000 0.24440  0.99190  0.77830  Biso   1.000  N
  H259     1.0000 0.30490  0.98330  0.89960  Biso   1.000  H
  H260     1.0000 0.24860  0.98330  0.84350  Biso   1.000  H
  C261     1.0000 0.81310  0.48740  0.86840  Biso   1.000  C
  C262     1.0000 0.77980  0.48736  0.83520  Biso   1.000  C
  N131     1.0000 0.74440  0.49190  0.77830  Biso   1.000  N
  H261     1.0000 0.80490  0.48330  0.89960  Biso   1.000  H
  H262     1.0000 0.74860  0.48330  0.84350  Biso   1.000  H
  C263     1.0000 0.81310  0.98740  0.36840  Biso   1.000  C
  C264     1.0000 0.77980  0.98736  0.33520  Biso   1.000  C
  N132     1.0000 0.74440  0.99190  0.27830  Biso   1.000  N
  H263     1.0000 0.80490  0.98330  0.39960  Biso   1.000  H
  H264     1.0000 0.74860  0.98330  0.34350  Biso   1.000  H
  C265     1.0000 0.68690  0.48740  0.63160  Biso   1.000  C
  C266     1.0000 0.72020  0.48736  0.66480  Biso   1.000  C
  N133     1.0000 0.75560  0.49190  0.72170  Biso   1.000  N
  H265     1.0000 0.69510  0.48330  0.60040  Biso   1.000  H
  H266     1.0000 0.75140  0.48330  0.65650  Biso   1.000  H
  C267     1.0000 0.68690  0.98740  0.13160  Biso   1.000  C
  C268     1.0000 0.72020  0.98736  0.16480  Biso   1.000  C
  N134     1.0000 0.75560  0.99190  0.22170  Biso   1.000  N
  H267     1.0000 0.69510  0.98330  0.10040  Biso   1.000  H
  H268     1.0000 0.75140  0.98330  0.15650  Biso   1.000  H
  C269     1.0000 0.18690  0.48740  0.13160  Biso   1.000  C
  C270     1.0000 0.22020  0.48736  0.16480  Biso   1.000  C
  N135     1.0000 0.25560  0.49190  0.22170  Biso   1.000  N
  H269     1.0000 0.19510  0.48330  0.10040  Biso   1.000  H
  H270     1.0000 0.25140  0.48330  0.15650  Biso   1.000  H
  C271     1.0000 0.18690  0.98740  0.63160  Biso   1.000  C
  C272     1.0000 0.22020  0.98736  0.66480  Biso   1.000  C
  N136     1.0000 0.25560  0.99190  0.72170  Biso   1.000  N
  H271     1.0000 0.19510  0.98330  0.60040  Biso   1.000  H
  H272     1.0000 0.25140  0.98330  0.65650  Biso   1.000  H
  C273     1.0000 0.31310  0.51260  0.63160  Biso   1.000  C
  C274     1.0000 0.27980  0.51264  0.66480  Biso   1.000  C
  N137     1.0000 0.24440  0.50810  0.72170  Biso   1.000  N
  H273     1.0000 0.30490  0.51670  0.60040  Biso   1.000  H
  H274     1.0000 0.24860  0.51670  0.65650  Biso   1.000  H
  C275     1.0000 0.31310  0.01260  0.13160  Biso   1.000  C
  C276     1.0000 0.27980  0.01264  0.16480  Biso   1.000  C
  N138     1.0000 0.24440  0.00810  0.22170  Biso   1.000  N
  H275     1.0000 0.30490  0.01670  0.10040  Biso   1.000  H
  H276     1.0000 0.24860  0.01670  0.15650  Biso   1.000  H
  C277     1.0000 0.81310  0.51260  0.13160  Biso   1.000  C
  C278     1.0000 0.77980  0.51264  0.16480  Biso   1.000  C
  N139     1.0000 0.74440  0.50810  0.22170  Biso   1.000  N
  H277     1.0000 0.80490  0.51670  0.10040  Biso   1.000  H
  H278     1.0000 0.74860  0.51670  0.15650  Biso   1.000  H
  C279     1.0000 0.81310  0.01260  0.63160  Biso   1.000  C
  C280     1.0000 0.77980  0.01264  0.66480  Biso   1.000  C
  N140     1.0000 0.74440  0.00810  0.72170  Biso   1.000  N
  H279     1.0000 0.80490  0.01670  0.60040  Biso   1.000  H
  H280     1.0000 0.74860  0.01670  0.65650  Biso   1.000  H
  C281     1.0000 0.68690  0.51260  0.36840  Biso   1.000  C
  C282     1.0000 0.72020  0.51264  0.33520  Biso   1.000  C
  N141     1.0000 0.75560  0.50810  0.27830  Biso   1.000  N
  H281     1.0000 0.69510  0.51670  0.39960  Biso   1.000  H
  H282     1.0000 0.75140  0.51670  0.34350  Biso   1.000  H
  C283     1.0000 0.68690  0.01260  0.86840  Biso   1.000  C
  C284     1.0000 0.72020  0.01264  0.83520  Biso   1.000  C
  N142     1.0000 0.75560  0.00810  0.77830  Biso   1.000  N
  H283     1.0000 0.69510  0.01670  0.89960  Biso   1.000  H
  H284     1.0000 0.75140  0.01670  0.84350  Biso   1.000  H
  C285     1.0000 0.18690  0.51260  0.86840  Biso   1.000  C
  C286     1.0000 0.22020  0.51264  0.83520  Biso   1.000  C
  N143     1.0000 0.25560  0.50810  0.77830  Biso   1.000  N
  H285     1.0000 0.19510  0.51670  0.89960  Biso   1.000  H
  H286     1.0000 0.25140  0.51670  0.84350  Biso   1.000  H
  C287     1.0000 0.18690  0.01260  0.36840  Biso   1.000  C
  C288     1.0000 0.22020  0.01264  0.33520  Biso   1.000  C
  N144     1.0000 0.25560  0.00810  0.27830  Biso   1.000  N
  H287     1.0000 0.19510  0.01670  0.39960  Biso   1.000  H
  H288     1.0000 0.25140  0.01670  0.34350  Biso   1.000  H
  C289     1.0000 0.31310  0.36840  0.51260  Biso   1.000  C
  C290     1.0000 0.27980  0.33520  0.51264  Biso   1.000  C
  N145     1.0000 0.24440  0.27830  0.50810  Biso   1.000  N
  H289     1.0000 0.30490  0.39960  0.51670  Biso   1.000  H
  H290     1.0000 0.24860  0.34350  0.51670  Biso   1.000  H
  C291     1.0000 0.31310  0.86840  0.01260  Biso   1.000  C
  C292     1.0000 0.27980  0.83520  0.01264  Biso   1.000  C
  N146     1.0000 0.24440  0.77830  0.00810  Biso   1.000  N
  H291     1.0000 0.30490  0.89960  0.01670  Biso   1.000  H
  H292     1.0000 0.24860  0.84350  0.01670  Biso   1.000  H
  C293     1.0000 0.81310  0.36840  0.01260  Biso   1.000  C
  C294     1.0000 0.77980  0.33520  0.01264  Biso   1.000  C
  N147     1.0000 0.74440  0.27830  0.00810  Biso   1.000  N
  H293     1.0000 0.80490  0.39960  0.01670  Biso   1.000  H
  H294     1.0000 0.74860  0.34350  0.01670  Biso   1.000  H
  C295     1.0000 0.81310  0.86840  0.51260  Biso   1.000  C
  C296     1.0000 0.77980  0.83520  0.51264  Biso   1.000  C
  N148     1.0000 0.74440  0.77830  0.50810  Biso   1.000  N
  H295     1.0000 0.80490  0.89960  0.51670  Biso   1.000  H
  H296     1.0000 0.74860  0.84350  0.51670  Biso   1.000  H
  C297     1.0000 0.68690  0.63160  0.51260  Biso   1.000  C
  C298     1.0000 0.72020  0.66480  0.51264  Biso   1.000  C
  N149     1.0000 0.75560  0.72170  0.50810  Biso   1.000  N
  H297     1.0000 0.69510  0.60040  0.51670  Biso   1.000  H
  H298     1.0000 0.75140  0.65650  0.51670  Biso   1.000  H
  C299     1.0000 0.68690  0.13160  0.01260  Biso   1.000  C
  C300     1.0000 0.72020  0.16480  0.01264  Biso   1.000  C
  N150     1.0000 0.75560  0.22170  0.00810  Biso   1.000  N
  H299     1.0000 0.69510  0.10040  0.01670  Biso   1.000  H
  H300     1.0000 0.75140  0.15650  0.01670  Biso   1.000  H
  C301     1.0000 0.18690  0.63160  0.01260  Biso   1.000  C
  C302     1.0000 0.22020  0.66480  0.01264  Biso   1.000  C
  N151     1.0000 0.25560  0.72170  0.00810  Biso   1.000  N
  H301     1.0000 0.19510  0.60040  0.01670  Biso   1.000  H
  H302     1.0000 0.25140  0.65650  0.01670  Biso   1.000  H
  C303     1.0000 0.18690  0.13160  0.51260  Biso   1.000  C
  C304     1.0000 0.22020  0.16480  0.51264  Biso   1.000  C
  N152     1.0000 0.25560  0.22170  0.50810  Biso   1.000  N
  H303     1.0000 0.19510  0.10040  0.51670  Biso   1.000  H
  H304     1.0000 0.25140  0.15650  0.51670  Biso   1.000  H
  C305     1.0000 0.31310  0.63160  0.48740  Biso   1.000  C
  C306     1.0000 0.27980  0.66480  0.48736  Biso   1.000  C
  N153     1.0000 0.24440  0.72170  0.49190  Biso   1.000  N
  H305     1.0000 0.30490  0.60040  0.48330  Biso   1.000  H
  H306     1.0000 0.24860  0.65650  0.48330  Biso   1.000  H
  C307     1.0000 0.31310  0.13160  0.98740  Biso   1.000  C
  C308     1.0000 0.27980  0.16480  0.98736  Biso   1.000  C
  N154     1.0000 0.24440  0.22170  0.99190  Biso   1.000  N
  H307     1.0000 0.30490  0.10040  0.98330  Biso   1.000  H
  H308     1.0000 0.24860  0.15650  0.98330  Biso   1.000  H
  C309     1.0000 0.81310  0.63160  0.98740  Biso   1.000  C
  C310     1.0000 0.77980  0.66480  0.98736  Biso   1.000  C
  N155     1.0000 0.74440  0.72170  0.99190  Biso   1.000  N
  H309     1.0000 0.80490  0.60040  0.98330  Biso   1.000  H
  H310     1.0000 0.74860  0.65650  0.98330  Biso   1.000  H
  C311     1.0000 0.81310  0.13160  0.48740  Biso   1.000  C
  C312     1.0000 0.77980  0.16480  0.48736  Biso   1.000  C
  N156     1.0000 0.74440  0.22170  0.49190  Biso   1.000  N
  H311     1.0000 0.80490  0.10040  0.48330  Biso   1.000  H
  H312     1.0000 0.74860  0.15650  0.48330  Biso   1.000  H
  C313     1.0000 0.68690  0.36840  0.48740  Biso   1.000  C
  C314     1.0000 0.72020  0.33520  0.48736  Biso   1.000  C
  N157     1.0000 0.75560  0.27830  0.49190  Biso   1.000  N
  H313     1.0000 0.69510  0.39960  0.48330  Biso   1.000  H
  H314     1.0000 0.75140  0.34350  0.48330  Biso   1.000  H
  C315     1.0000 0.68690  0.86840  0.98740  Biso   1.000  C
  C316     1.0000 0.72020  0.83520  0.98736  Biso   1.000  C
  N158     1.0000 0.75560  0.77830  0.99190  Biso   1.000  N
  H315     1.0000 0.69510  0.89960  0.98330  Biso   1.000  H
  H316     1.0000 0.75140  0.84350  0.98330  Biso   1.000  H
  C317     1.0000 0.18690  0.36840  0.98740  Biso   1.000  C
  C318     1.0000 0.22020  0.33520  0.98736  Biso   1.000  C
  N159     1.0000 0.25560  0.27830  0.99190  Biso   1.000  N
  H317     1.0000 0.19510  0.39960  0.98330  Biso   1.000  H
  H318     1.0000 0.25140  0.34350  0.98330  Biso   1.000  H
  C319     1.0000 0.18690  0.86840  0.48740  Biso   1.000  C
  C320     1.0000 0.22020  0.83520  0.48736  Biso   1.000  C
  N160     1.0000 0.25560  0.77830  0.49190  Biso   1.000  N
  H319     1.0000 0.19510  0.89960  0.48330  Biso   1.000  H
  H320     1.0000 0.25140  0.84350  0.48330  Biso   1.000  H
  C321     1.0000 0.36840  0.48740  0.68690  Biso   1.000  C
  C322     1.0000 0.33520  0.48736  0.72020  Biso   1.000  C
  N161     1.0000 0.27830  0.49190  0.75560  Biso   1.000  N
  H321     1.0000 0.39960  0.48330  0.69510  Biso   1.000  H
  H322     1.0000 0.34350  0.48330  0.75140  Biso   1.000  H
  C323     1.0000 0.36840  0.98740  0.18690  Biso   1.000  C
  C324     1.0000 0.33520  0.98736  0.22020  Biso   1.000  C
  N162     1.0000 0.27830  0.99190  0.25560  Biso   1.000  N
  H323     1.0000 0.39960  0.98330  0.19510  Biso   1.000  H
  H324     1.0000 0.34350  0.98330  0.25140  Biso   1.000  H
  C325     1.0000 0.86840  0.48740  0.18690  Biso   1.000  C
  C326     1.0000 0.83520  0.48736  0.22020  Biso   1.000  C
  N163     1.0000 0.77830  0.49190  0.25560  Biso   1.000  N
  H325     1.0000 0.89960  0.48330  0.19510  Biso   1.000  H
  H326     1.0000 0.84350  0.48330  0.25140  Biso   1.000  H
  C327     1.0000 0.86840  0.98740  0.68690  Biso   1.000  C
  C328     1.0000 0.83520  0.98736  0.72020  Biso   1.000  C
  N164     1.0000 0.77830  0.99190  0.75560  Biso   1.000  N
  H327     1.0000 0.89960  0.98330  0.69510  Biso   1.000  H
  H328     1.0000 0.84350  0.98330  0.75140  Biso   1.000  H
  C329     1.0000 0.63160  0.48740  0.31310  Biso   1.000  C
  C330     1.0000 0.66480  0.48736  0.27980  Biso   1.000  C
  N165     1.0000 0.72170  0.49190  0.24440  Biso   1.000  N
  H329     1.0000 0.60040  0.48330  0.30490  Biso   1.000  H
  H330     1.0000 0.65650  0.48330  0.24860  Biso   1.000  H
  C331     1.0000 0.63160  0.98740  0.81310  Biso   1.000  C
  C332     1.0000 0.66480  0.98736  0.77980  Biso   1.000  C
  N166     1.0000 0.72170  0.99190  0.74440  Biso   1.000  N
  H331     1.0000 0.60040  0.98330  0.80490  Biso   1.000  H
  H332     1.0000 0.65650  0.98330  0.74860  Biso   1.000  H
  C333     1.0000 0.13160  0.48740  0.81310  Biso   1.000  C
  C334     1.0000 0.16480  0.48736  0.77980  Biso   1.000  C
  N167     1.0000 0.22170  0.49190  0.74440  Biso   1.000  N
  H333     1.0000 0.10040  0.48330  0.80490  Biso   1.000  H
  H334     1.0000 0.15650  0.48330  0.74860  Biso   1.000  H
  C335     1.0000 0.13160  0.98740  0.31310  Biso   1.000  C
  C336     1.0000 0.16480  0.98736  0.27980  Biso   1.000  C
  N168     1.0000 0.22170  0.99190  0.24440  Biso   1.000  N
  H335     1.0000 0.10040  0.98330  0.30490  Biso   1.000  H
  H336     1.0000 0.15650  0.98330  0.24860  Biso   1.000  H
  C337     1.0000 0.63160  0.51260  0.68690  Biso   1.000  C
  C338     1.0000 0.66480  0.51264  0.72020  Biso   1.000  C
  N169     1.0000 0.72170  0.50810  0.75560  Biso   1.000  N
  H337     1.0000 0.60040  0.51670  0.69510  Biso   1.000  H
  H338     1.0000 0.65650  0.51670  0.75140  Biso   1.000  H
  C339     1.0000 0.63160  0.01260  0.18690  Biso   1.000  C
  C340     1.0000 0.66480  0.01264  0.22020  Biso   1.000  C
  N170     1.0000 0.72170  0.00810  0.25560  Biso   1.000  N
  H339     1.0000 0.60040  0.01670  0.19510  Biso   1.000  H
  H340     1.0000 0.65650  0.01670  0.25140  Biso   1.000  H
  C341     1.0000 0.13160  0.51260  0.18690  Biso   1.000  C
  C342     1.0000 0.16480  0.51264  0.22020  Biso   1.000  C
  N171     1.0000 0.22170  0.50810  0.25560  Biso   1.000  N
  H341     1.0000 0.10040  0.51670  0.19510  Biso   1.000  H
  H342     1.0000 0.15650  0.51670  0.25140  Biso   1.000  H
  C343     1.0000 0.13160  0.01260  0.68690  Biso   1.000  C
  C344     1.0000 0.16480  0.01264  0.72020  Biso   1.000  C
  N172     1.0000 0.22170  0.00810  0.75560  Biso   1.000  N
  H343     1.0000 0.10040  0.01670  0.69510  Biso   1.000  H
  H344     1.0000 0.15650  0.01670  0.75140  Biso   1.000  H
  C345     1.0000 0.36840  0.51260  0.31310  Biso   1.000  C
  C346     1.0000 0.33520  0.51264  0.27980  Biso   1.000  C
  N173     1.0000 0.27830  0.50810  0.24440  Biso   1.000  N
  H345     1.0000 0.39960  0.51670  0.30490  Biso   1.000  H
  H346     1.0000 0.34350  0.51670  0.24860  Biso   1.000  H
  C347     1.0000 0.36840  0.01260  0.81310  Biso   1.000  C
  C348     1.0000 0.33520  0.01264  0.77980  Biso   1.000  C
  N174     1.0000 0.27830  0.00810  0.74440  Biso   1.000  N
  H347     1.0000 0.39960  0.01670  0.80490  Biso   1.000  H
  H348     1.0000 0.34350  0.01670  0.74860  Biso   1.000  H
  C349     1.0000 0.86840  0.51260  0.81310  Biso   1.000  C
  C350     1.0000 0.83520  0.51264  0.77980  Biso   1.000  C
  N175     1.0000 0.77830  0.50810  0.74440  Biso   1.000  N
  H349     1.0000 0.89960  0.51670  0.80490  Biso   1.000  H
  H350     1.0000 0.84350  0.51670  0.74860  Biso   1.000  H
  C351     1.0000 0.86840  0.01260  0.31310  Biso   1.000  C
  C352     1.0000 0.83520  0.01264  0.27980  Biso   1.000  C
  N176     1.0000 0.77830  0.00810  0.24440  Biso   1.000  N
  H351     1.0000 0.89960  0.01670  0.30490  Biso   1.000  H
  H352     1.0000 0.84350  0.01670  0.24860  Biso   1.000  H
  C353     1.0000 0.48740  0.31310  0.63160  Biso   1.000  C
  C354     1.0000 0.48736  0.27980  0.66480  Biso   1.000  C
  N177     1.0000 0.49190  0.24440  0.72170  Biso   1.000  N
  H353     1.0000 0.48330  0.30490  0.60040  Biso   1.000  H
  H354     1.0000 0.48330  0.24860  0.65650  Biso   1.000  H
  C355     1.0000 0.48740  0.81310  0.13160  Biso   1.000  C
  C356     1.0000 0.48736  0.77980  0.16480  Biso   1.000  C
  N178     1.0000 0.49190  0.74440  0.22170  Biso   1.000  N
  H355     1.0000 0.48330  0.80490  0.10040  Biso   1.000  H
  H356     1.0000 0.48330  0.74860  0.15650  Biso   1.000  H
  C357     1.0000 0.98740  0.31310  0.13160  Biso   1.000  C
  C358     1.0000 0.98736  0.27980  0.16480  Biso   1.000  C
  N179     1.0000 0.99190  0.24440  0.22170  Biso   1.000  N
  H357     1.0000 0.98330  0.30490  0.10040  Biso   1.000  H
  H358     1.0000 0.98330  0.24860  0.15650  Biso   1.000  H
  C359     1.0000 0.98740  0.81310  0.63160  Biso   1.000  C
  C360     1.0000 0.98736  0.77980  0.66480  Biso   1.000  C
  N180     1.0000 0.99190  0.74440  0.72170  Biso   1.000  N
  H359     1.0000 0.98330  0.80490  0.60040  Biso   1.000  H
  H360     1.0000 0.98330  0.74860  0.65650  Biso   1.000  H
  C361     1.0000 0.48740  0.68690  0.36840  Biso   1.000  C
  C362     1.0000 0.48736  0.72020  0.33520  Biso   1.000  C
  N181     1.0000 0.49190  0.75560  0.27830  Biso   1.000  N
  H361     1.0000 0.48330  0.69510  0.39960  Biso   1.000  H
  H362     1.0000 0.48330  0.75140  0.34350  Biso   1.000  H
  C363     1.0000 0.48740  0.18690  0.86840  Biso   1.000  C
  C364     1.0000 0.48736  0.22020  0.83520  Biso   1.000  C
  N182     1.0000 0.49190  0.25560  0.77830  Biso   1.000  N
  H363     1.0000 0.48330  0.19510  0.89960  Biso   1.000  H
  H364     1.0000 0.48330  0.25140  0.84350  Biso   1.000  H
  C365     1.0000 0.98740  0.68690  0.86840  Biso   1.000  C
  C366     1.0000 0.98736  0.72020  0.83520  Biso   1.000  C
  N183     1.0000 0.99190  0.75560  0.77830  Biso   1.000  N
  H365     1.0000 0.98330  0.69510  0.89960  Biso   1.000  H
  H366     1.0000 0.98330  0.75140  0.84350  Biso   1.000  H
  C367     1.0000 0.98740  0.18690  0.36840  Biso   1.000  C
  C368     1.0000 0.98736  0.22020  0.33520  Biso   1.000  C
  N184     1.0000 0.99190  0.25560  0.27830  Biso   1.000  N
  H367     1.0000 0.98330  0.19510  0.39960  Biso   1.000  H
  H368     1.0000 0.98330  0.25140  0.34350  Biso   1.000  H
  C369     1.0000 0.51260  0.31310  0.36840  Biso   1.000  C
  C370     1.0000 0.51264  0.27980  0.33520  Biso   1.000  C
  N185     1.0000 0.50810  0.24440  0.27830  Biso   1.000  N
  H369     1.0000 0.51670  0.30490  0.39960  Biso   1.000  H
  H370     1.0000 0.51670  0.24860  0.34350  Biso   1.000  H
  C371     1.0000 0.51260  0.81310  0.86840  Biso   1.000  C
  C372     1.0000 0.51264  0.77980  0.83520  Biso   1.000  C
  N186     1.0000 0.50810  0.74440  0.77830  Biso   1.000  N
  H371     1.0000 0.51670  0.80490  0.89960  Biso   1.000  H
  H372     1.0000 0.51670  0.74860  0.84350  Biso   1.000  H
  C373     1.0000 0.01260  0.31310  0.86840  Biso   1.000  C
  C374     1.0000 0.01264  0.27980  0.83520  Biso   1.000  C
  N187     1.0000 0.00810  0.24440  0.77830  Biso   1.000  N
  H373     1.0000 0.01670  0.30490  0.89960  Biso   1.000  H
  H374     1.0000 0.01670  0.24860  0.84350  Biso   1.000  H
  C375     1.0000 0.01260  0.81310  0.36840  Biso   1.000  C
  C376     1.0000 0.01264  0.77980  0.33520  Biso   1.000  C
  N188     1.0000 0.00810  0.74440  0.27830  Biso   1.000  N
  H375     1.0000 0.01670  0.80490  0.39960  Biso   1.000  H
  H376     1.0000 0.01670  0.74860  0.34350  Biso   1.000  H
  C377     1.0000 0.51260  0.68690  0.63160  Biso   1.000  C
  C378     1.0000 0.51264  0.72020  0.66480  Biso   1.000  C
  N189     1.0000 0.50810  0.75560  0.72170  Biso   1.000  N
  H377     1.0000 0.51670  0.69510  0.60040  Biso   1.000  H
  H378     1.0000 0.51670  0.75140  0.65650  Biso   1.000  H
  C379     1.0000 0.51260  0.18690  0.13160  Biso   1.000  C
  C380     1.0000 0.51264  0.22020  0.16480  Biso   1.000  C
  N190     1.0000 0.50810  0.25560  0.22170  Biso   1.000  N
  H379     1.0000 0.51670  0.19510  0.10040  Biso   1.000  H
  H380     1.0000 0.51670  0.25140  0.15650  Biso   1.000  H
  C381     1.0000 0.01260  0.68690  0.13160  Biso   1.000  C
  C382     1.0000 0.01264  0.72020  0.16480  Biso   1.000  C
  N191     1.0000 0.00810  0.75560  0.22170  Biso   1.000  N
  H381     1.0000 0.01670  0.69510  0.10040  Biso   1.000  H
  H382     1.0000 0.01670  0.75140  0.15650  Biso   1.000  H
  C383     1.0000 0.01260  0.18690  0.63160  Biso   1.000  C
  C384     1.0000 0.01264  0.22020  0.66480  Biso   1.000  C
  N192     1.0000 0.00810  0.25560  0.72170  Biso   1.000  N
  H383     1.0000 0.01670  0.19510  0.60040  Biso   1.000  H
  H384     1.0000 0.01670  0.25140  0.65650  Biso   1.000  H
  Hf1      1.0000 0.58378  0.50000  0.50000  Biso   1.000  Hf
  Hf2      1.0000 0.58378  0.00000  0.00000  Biso   1.000  Hf
  Hf3      1.0000 0.08378  0.50000  0.00000  Biso   1.000  Hf
  Hf4      1.0000 0.08378  0.00000  0.50000  Biso   1.000  Hf
  Hf5      1.0000 0.41622  0.50000  0.50000  Biso   1.000  Hf
  Hf6      1.0000 0.41622  0.00000  0.00000  Biso   1.000  Hf
  Hf7      1.0000 0.91622  0.50000  0.00000  Biso   1.000  Hf
  Hf8      1.0000 0.91622  0.00000  0.50000  Biso   1.000  Hf
  Hf9      1.0000 0.50000  0.58378  0.50000  Biso   1.000  Hf
  Hf10     1.0000 0.50000  0.08378  0.00000  Biso   1.000  Hf
  Hf11     1.0000 0.00000  0.58378  0.00000  Biso   1.000  Hf
  Hf12     1.0000 0.00000  0.08378  0.50000  Biso   1.000  Hf
  Hf13     1.0000 0.50000  0.41622  0.50000  Biso   1.000  Hf
  Hf14     1.0000 0.50000  0.91622  0.00000  Biso   1.000  Hf
  Hf15     1.0000 0.00000  0.41622  0.00000  Biso   1.000  Hf
  Hf16     1.0000 0.00000  0.91622  0.50000  Biso   1.000  Hf
  Hf17     1.0000 0.50000  0.50000  0.58378  Biso   1.000  Hf
  Hf18     1.0000 0.50000  0.00000  0.08378  Biso   1.000  Hf
  Hf19     1.0000 0.00000  0.50000  0.08378  Biso   1.000  Hf
  Hf20     1.0000 0.00000  0.00000  0.58378  Biso   1.000  Hf
  Hf21     1.0000 0.50000  0.50000  0.41622  Biso   1.000  Hf
  Hf22     1.0000 0.50000  0.00000  0.91622  Biso   1.000  Hf
  Hf23     1.0000 0.00000  0.50000  0.91622  Biso   1.000  Hf
  Hf24     1.0000 0.00000  0.00000  0.41622  Biso   1.000  Hf
  O1       1.0000 0.54120  0.45880  0.45880  Biso   1.000  O
  H385     1.0000 0.55740  0.44260  0.44260  Biso   1.000  H
  O2       1.0000 0.54120  0.95880  0.95880  Biso   1.000  O
  H386     1.0000 0.55740  0.94260  0.94260  Biso   1.000  H
  O3       1.0000 0.04120  0.45880  0.95880  Biso   1.000  O
  H387     1.0000 0.05740  0.44260  0.94260  Biso   1.000  H
  O4       1.0000 0.04120  0.95880  0.45880  Biso   1.000  O
  H388     1.0000 0.05740  0.94260  0.44260  Biso   1.000  H
  O5       1.0000 0.45880  0.54120  0.45880  Biso   1.000  O
  H389     1.0000 0.44260  0.55740  0.44260  Biso   1.000  H
  O6       1.0000 0.45880  0.04120  0.95880  Biso   1.000  O
  H390     1.0000 0.44260  0.05740  0.94260  Biso   1.000  H
  O7       1.0000 0.95880  0.54120  0.95880  Biso   1.000  O
  H391     1.0000 0.94260  0.55740  0.94260  Biso   1.000  H
  O8       1.0000 0.95880  0.04120  0.45880  Biso   1.000  O
  H392     1.0000 0.94260  0.05740  0.44260  Biso   1.000  H
  O9       1.0000 0.45880  0.45880  0.54120  Biso   1.000  O
  H393     1.0000 0.44260  0.44260  0.55740  Biso   1.000  H
  O10      1.0000 0.45880  0.95880  0.04120  Biso   1.000  O
  H394     1.0000 0.44260  0.94260  0.05740  Biso   1.000  H
  O11      1.0000 0.95880  0.45880  0.04120  Biso   1.000  O
  H395     1.0000 0.94260  0.44260  0.05740  Biso   1.000  H
  O12      1.0000 0.95880  0.95880  0.54120  Biso   1.000  O
  H396     1.0000 0.94260  0.94260  0.55740  Biso   1.000  H
  O13      1.0000 0.54120  0.54120  0.54120  Biso   1.000  O
  H397     1.0000 0.55740  0.55740  0.55740  Biso   1.000  H
  O14      1.0000 0.54120  0.04120  0.04120  Biso   1.000  O
  H398     1.0000 0.55740  0.05740  0.05740  Biso   1.000  H
  O15      1.0000 0.04120  0.54120  0.04120  Biso   1.000  O
  H399     1.0000 0.05740  0.55740  0.05740  Biso   1.000  H
  O16      1.0000 0.04120  0.04120  0.54120  Biso   1.000  O
  H400     1.0000 0.05740  0.05740  0.55740  Biso   1.000  H
  O17      1.0000 0.45880  0.54120  0.54120  Biso   1.000  O
  H401     1.0000 0.44260  0.55740  0.55740  Biso   1.000  H
  O18      1.0000 0.45880  0.04120  0.04120  Biso   1.000  O
  H402     1.0000 0.44260  0.05740  0.05740  Biso   1.000  H
  O19      1.0000 0.95880  0.54120  0.04120  Biso   1.000  O
  H403     1.0000 0.94260  0.55740  0.05740  Biso   1.000  H
  O20      1.0000 0.95880  0.04120  0.54120  Biso   1.000  O
  H404     1.0000 0.94260  0.05740  0.55740  Biso   1.000  H
  O21      1.0000 0.54120  0.45880  0.54120  Biso   1.000  O
  H405     1.0000 0.55740  0.44260  0.55740  Biso   1.000  H
  O22      1.0000 0.54120  0.95880  0.04120  Biso   1.000  O
  H406     1.0000 0.55740  0.94260  0.05740  Biso   1.000  H
  O23      1.0000 0.04120  0.45880  0.04120  Biso   1.000  O
  H407     1.0000 0.05740  0.44260  0.05740  Biso   1.000  H
  O24      1.0000 0.04120  0.95880  0.54120  Biso   1.000  O
  H408     1.0000 0.05740  0.94260  0.55740  Biso   1.000  H
  O25      1.0000 0.45880  0.45880  0.45880  Biso   1.000  O
  H409     1.0000 0.44260  0.44260  0.44260  Biso   1.000  H
  O26      1.0000 0.45880  0.95880  0.95880  Biso   1.000  O
  H410     1.0000 0.44260  0.94260  0.94260  Biso   1.000  H
  O27      1.0000 0.95880  0.45880  0.95880  Biso   1.000  O
  H411     1.0000 0.94260  0.44260  0.94260  Biso   1.000  H
  O28      1.0000 0.95880  0.95880  0.45880  Biso   1.000  O
  H412     1.0000 0.94260  0.94260  0.44260  Biso   1.000  H
  O29      1.0000 0.54120  0.54120  0.45880  Biso   1.000  O
  H413     1.0000 0.55740  0.55740  0.44260  Biso   1.000  H
  O30      1.0000 0.54120  0.04120  0.95880  Biso   1.000  O
  H414     1.0000 0.55740  0.05740  0.94260  Biso   1.000  H
  O31      1.0000 0.04120  0.54120  0.95880  Biso   1.000  O
  H415     1.0000 0.05740  0.55740  0.94260  Biso   1.000  H
  O32      1.0000 0.04120  0.04120  0.45880  Biso   1.000  O
  H416     1.0000 0.05740  0.05740  0.44260  Biso   1.000  H
  O33      1.0000 0.62120  0.56510  0.50000  Biso   1.000  O
  C385     1.0000 0.63010  0.68830  0.50000  Biso   1.000  C
  C386     1.0000 0.66340  0.72170  0.50000  Biso   1.000  C
  H417     1.0000 0.59870  0.69660  0.50000  Biso   1.000  H
  H418     1.0000 0.65510  0.75310  0.50000  Biso   1.000  H
  O34      1.0000 0.62120  0.06510  0.00000  Biso   1.000  O
  C387     1.0000 0.63010  0.18830  0.00000  Biso   1.000  C
  C388     1.0000 0.66340  0.22170  0.00000  Biso   1.000  C
  H419     1.0000 0.59870  0.19660  0.00000  Biso   1.000  H
  H420     1.0000 0.65510  0.25310  0.00000  Biso   1.000  H
  O35      1.0000 0.12120  0.56510  0.00000  Biso   1.000  O
  C389     1.0000 0.13010  0.68830  0.00000  Biso   1.000  C
  C390     1.0000 0.16340  0.72170  0.00000  Biso   1.000  C
  H421     1.0000 0.09870  0.69660  0.00000  Biso   1.000  H
  H422     1.0000 0.15510  0.75310  0.00000  Biso   1.000  H
  O36      1.0000 0.12120  0.06510  0.50000  Biso   1.000  O
  C391     1.0000 0.13010  0.18830  0.50000  Biso   1.000  C
  C392     1.0000 0.16340  0.22170  0.50000  Biso   1.000  C
  H423     1.0000 0.09870  0.19660  0.50000  Biso   1.000  H
  H424     1.0000 0.15510  0.25310  0.50000  Biso   1.000  H
  O37      1.0000 0.37880  0.43490  0.50000  Biso   1.000  O
  C393     1.0000 0.36990  0.31170  0.50000  Biso   1.000  C
  C394     1.0000 0.33660  0.27830  0.50000  Biso   1.000  C
  H425     1.0000 0.40130  0.30340  0.50000  Biso   1.000  H
  H426     1.0000 0.34490  0.24690  0.50000  Biso   1.000  H
  O38      1.0000 0.37880  0.93490  0.00000  Biso   1.000  O
  C395     1.0000 0.36990  0.81170  0.00000  Biso   1.000  C
  C396     1.0000 0.33660  0.77830  0.00000  Biso   1.000  C
  H427     1.0000 0.40130  0.80340  0.00000  Biso   1.000  H
  H428     1.0000 0.34490  0.74690  0.00000  Biso   1.000  H
  O39      1.0000 0.87880  0.43490  0.00000  Biso   1.000  O
  C397     1.0000 0.86990  0.31170  0.00000  Biso   1.000  C
  C398     1.0000 0.83660  0.27830  0.00000  Biso   1.000  C
  H429     1.0000 0.90130  0.30340  0.00000  Biso   1.000  H
  H430     1.0000 0.84490  0.24690  0.00000  Biso   1.000  H
  O40      1.0000 0.87880  0.93490  0.50000  Biso   1.000  O
  C399     1.0000 0.86990  0.81170  0.50000  Biso   1.000  C
  C400     1.0000 0.83660  0.77830  0.50000  Biso   1.000  C
  H431     1.0000 0.90130  0.80340  0.50000  Biso   1.000  H
  H432     1.0000 0.84490  0.74690  0.50000  Biso   1.000  H
  O41      1.0000 0.37880  0.56510  0.50000  Biso   1.000  O
  C401     1.0000 0.36990  0.68830  0.50000  Biso   1.000  C
  C402     1.0000 0.33660  0.72170  0.50000  Biso   1.000  C
  H433     1.0000 0.40130  0.69660  0.50000  Biso   1.000  H
  H434     1.0000 0.34490  0.75310  0.50000  Biso   1.000  H
  O42      1.0000 0.37880  0.06510  0.00000  Biso   1.000  O
  C403     1.0000 0.36990  0.18830  0.00000  Biso   1.000  C
  C404     1.0000 0.33660  0.22170  0.00000  Biso   1.000  C
  H435     1.0000 0.40130  0.19660  0.00000  Biso   1.000  H
  H436     1.0000 0.34490  0.25310  0.00000  Biso   1.000  H
  O43      1.0000 0.87880  0.56510  0.00000  Biso   1.000  O
  C405     1.0000 0.86990  0.68830  0.00000  Biso   1.000  C
  C406     1.0000 0.83660  0.72170  0.00000  Biso   1.000  C
  H437     1.0000 0.90130  0.69660  0.00000  Biso   1.000  H
  H438     1.0000 0.84490  0.75310  0.00000  Biso   1.000  H
  O44      1.0000 0.87880  0.06510  0.50000  Biso   1.000  O
  C407     1.0000 0.86990  0.18830  0.50000  Biso   1.000  C
  C408     1.0000 0.83660  0.22170  0.50000  Biso   1.000  C
  H439     1.0000 0.90130  0.19660  0.50000  Biso   1.000  H
  H440     1.0000 0.84490  0.25310  0.50000  Biso   1.000  H
  O45      1.0000 0.62120  0.43490  0.50000  Biso   1.000  O
  C409     1.0000 0.63010  0.31170  0.50000  Biso   1.000  C
  C410     1.0000 0.66340  0.27830  0.50000  Biso   1.000  C
  H441     1.0000 0.59870  0.30340  0.50000  Biso   1.000  H
  H442     1.0000 0.65510  0.24690  0.50000  Biso   1.000  H
  O46      1.0000 0.62120  0.93490  0.00000  Biso   1.000  O
  C411     1.0000 0.63010  0.81170  0.00000  Biso   1.000  C
  C412     1.0000 0.66340  0.77830  0.00000  Biso   1.000  C
  H443     1.0000 0.59870  0.80340  0.00000  Biso   1.000  H
  H444     1.0000 0.65510  0.74690  0.00000  Biso   1.000  H
  O47      1.0000 0.12120  0.43490  0.00000  Biso   1.000  O
  C413     1.0000 0.13010  0.31170  0.00000  Biso   1.000  C
  C414     1.0000 0.16340  0.27830  0.00000  Biso   1.000  C
  H445     1.0000 0.09870  0.30340  0.00000  Biso   1.000  H
  H446     1.0000 0.15510  0.24690  0.00000  Biso   1.000  H
  O48      1.0000 0.12120  0.93490  0.50000  Biso   1.000  O
  C415     1.0000 0.13010  0.81170  0.50000  Biso   1.000  C
  C416     1.0000 0.16340  0.77830  0.50000  Biso   1.000  C
  H447     1.0000 0.09870  0.80340  0.50000  Biso   1.000  H
  H448     1.0000 0.15510  0.74690  0.50000  Biso   1.000  H
  O49      1.0000 0.50000  0.62120  0.56510  Biso   1.000  O
  C417     1.0000 0.50000  0.63010  0.68830  Biso   1.000  C
  C418     1.0000 0.50000  0.66340  0.72170  Biso   1.000  C
  H449     1.0000 0.50000  0.59870  0.69660  Biso   1.000  H
  H450     1.0000 0.50000  0.65510  0.75310  Biso   1.000  H
  O50      1.0000 0.50000  0.12120  0.06510  Biso   1.000  O
  C419     1.0000 0.50000  0.13010  0.18830  Biso   1.000  C
  C420     1.0000 0.50000  0.16340  0.22170  Biso   1.000  C
  H451     1.0000 0.50000  0.09870  0.19660  Biso   1.000  H
  H452     1.0000 0.50000  0.15510  0.25310  Biso   1.000  H
  O51      1.0000 0.00000  0.62120  0.06510  Biso   1.000  O
  C421     1.0000 0.00000  0.63010  0.18830  Biso   1.000  C
  C422     1.0000 0.00000  0.66340  0.22170  Biso   1.000  C
  H453     1.0000 0.00000  0.59870  0.19660  Biso   1.000  H
  H454     1.0000 0.00000  0.65510  0.25310  Biso   1.000  H
  O52      1.0000 0.00000  0.12120  0.56510  Biso   1.000  O
  C423     1.0000 0.00000  0.13010  0.68830  Biso   1.000  C
  C424     1.0000 0.00000  0.16340  0.72170  Biso   1.000  C
  H455     1.0000 0.00000  0.09870  0.69660  Biso   1.000  H
  H456     1.0000 0.00000  0.15510  0.75310  Biso   1.000  H
  O53      1.0000 0.50000  0.37880  0.43490  Biso   1.000  O
  C425     1.0000 0.50000  0.36990  0.31170  Biso   1.000  C
  C426     1.0000 0.50000  0.33660  0.27830  Biso   1.000  C
  H457     1.0000 0.50000  0.40130  0.30340  Biso   1.000  H
  H458     1.0000 0.50000  0.34490  0.24690  Biso   1.000  H
  O54      1.0000 0.50000  0.87880  0.93490  Biso   1.000  O
  C427     1.0000 0.50000  0.86990  0.81170  Biso   1.000  C
  C428     1.0000 0.50000  0.83660  0.77830  Biso   1.000  C
  H459     1.0000 0.50000  0.90130  0.80340  Biso   1.000  H
  H460     1.0000 0.50000  0.84490  0.74690  Biso   1.000  H
  O55      1.0000 0.00000  0.37880  0.93490  Biso   1.000  O
  C429     1.0000 0.00000  0.36990  0.81170  Biso   1.000  C
  C430     1.0000 0.00000  0.33660  0.77830  Biso   1.000  C
  H461     1.0000 0.00000  0.40130  0.80340  Biso   1.000  H
  H462     1.0000 0.00000  0.34490  0.74690  Biso   1.000  H
  O56      1.0000 0.00000  0.87880  0.43490  Biso   1.000  O
  C431     1.0000 0.00000  0.86990  0.31170  Biso   1.000  C
  C432     1.0000 0.00000  0.83660  0.27830  Biso   1.000  C
  H463     1.0000 0.00000  0.90130  0.30340  Biso   1.000  H
  H464     1.0000 0.00000  0.84490  0.24690  Biso   1.000  H
  O57      1.0000 0.50000  0.37880  0.56510  Biso   1.000  O
  C433     1.0000 0.50000  0.36990  0.68830  Biso   1.000  C
  C434     1.0000 0.50000  0.33660  0.72170  Biso   1.000  C
  H465     1.0000 0.50000  0.40130  0.69660  Biso   1.000  H
  H466     1.0000 0.50000  0.34490  0.75310  Biso   1.000  H
  O58      1.0000 0.50000  0.87880  0.06510  Biso   1.000  O
  C435     1.0000 0.50000  0.86990  0.18830  Biso   1.000  C
  C436     1.0000 0.50000  0.83660  0.22170  Biso   1.000  C
  H467     1.0000 0.50000  0.90130  0.19660  Biso   1.000  H
  H468     1.0000 0.50000  0.84490  0.25310  Biso   1.000  H
  O59      1.0000 0.00000  0.37880  0.06510  Biso   1.000  O
  C437     1.0000 0.00000  0.36990  0.18830  Biso   1.000  C
  C438     1.0000 0.00000  0.33660  0.22170  Biso   1.000  C
  H469     1.0000 0.00000  0.40130  0.19660  Biso   1.000  H
  H470     1.0000 0.00000  0.34490  0.25310  Biso   1.000  H
  O60      1.0000 0.00000  0.87880  0.56510  Biso   1.000  O
  C439     1.0000 0.00000  0.86990  0.68830  Biso   1.000  C
  C440     1.0000 0.00000  0.83660  0.72170  Biso   1.000  C
  H471     1.0000 0.00000  0.90130  0.69660  Biso   1.000  H
  H472     1.0000 0.00000  0.84490  0.75310  Biso   1.000  H
  O61      1.0000 0.50000  0.62120  0.43490  Biso   1.000  O
  C441     1.0000 0.50000  0.63010  0.31170  Biso   1.000  C
  C442     1.0000 0.50000  0.66340  0.27830  Biso   1.000  C
  H473     1.0000 0.50000  0.59870  0.30340  Biso   1.000  H
  H474     1.0000 0.50000  0.65510  0.24690  Biso   1.000  H
  O62      1.0000 0.50000  0.12120  0.93490  Biso   1.000  O
  C443     1.0000 0.50000  0.13010  0.81170  Biso   1.000  C
  C444     1.0000 0.50000  0.16340  0.77830  Biso   1.000  C
  H475     1.0000 0.50000  0.09870  0.80340  Biso   1.000  H
  H476     1.0000 0.50000  0.15510  0.74690  Biso   1.000  H
  O63      1.0000 0.00000  0.62120  0.93490  Biso   1.000  O
  C445     1.0000 0.00000  0.63010  0.81170  Biso   1.000  C
  C446     1.0000 0.00000  0.66340  0.77830  Biso   1.000  C
  H477     1.0000 0.00000  0.59870  0.80340  Biso   1.000  H
  H478     1.0000 0.00000  0.65510  0.74690  Biso   1.000  H
  O64      1.0000 0.00000  0.12120  0.43490  Biso   1.000  O
  C447     1.0000 0.00000  0.13010  0.31170  Biso   1.000  C
  C448     1.0000 0.00000  0.16340  0.27830  Biso   1.000  C
  H479     1.0000 0.00000  0.09870  0.30340  Biso   1.000  H
  H480     1.0000 0.00000  0.15510  0.24690  Biso   1.000  H
  O65      1.0000 0.56510  0.50000  0.62120  Biso   1.000  O
  C449     1.0000 0.68830  0.50000  0.63010  Biso   1.000  C
  C450     1.0000 0.72170  0.50000  0.66340  Biso   1.000  C
  H481     1.0000 0.69660  0.50000  0.59870  Biso   1.000  H
  H482     1.0000 0.75310  0.50000  0.65510  Biso   1.000  H
  O66      1.0000 0.56510  0.00000  0.12120  Biso   1.000  O
  C451     1.0000 0.68830  0.00000  0.13010  Biso   1.000  C
  C452     1.0000 0.72170  0.00000  0.16340  Biso   1.000  C
  H483     1.0000 0.69660  0.00000  0.09870  Biso   1.000  H
  H484     1.0000 0.75310  0.00000  0.15510  Biso   1.000  H
  O67      1.0000 0.06510  0.50000  0.12120  Biso   1.000  O
  C453     1.0000 0.18830  0.50000  0.13010  Biso   1.000  C
  C454     1.0000 0.22170  0.50000  0.16340  Biso   1.000  C
  H485     1.0000 0.19660  0.50000  0.09870  Biso   1.000  H
  H486     1.0000 0.25310  0.50000  0.15510  Biso   1.000  H
  O68      1.0000 0.06510  0.00000  0.62120  Biso   1.000  O
  C455     1.0000 0.18830  0.00000  0.63010  Biso   1.000  C
  C456     1.0000 0.22170  0.00000  0.66340  Biso   1.000  C
  H487     1.0000 0.19660  0.00000  0.59870  Biso   1.000  H
  H488     1.0000 0.25310  0.00000  0.65510  Biso   1.000  H
  O69      1.0000 0.43490  0.50000  0.37880  Biso   1.000  O
  C457     1.0000 0.31170  0.50000  0.36990  Biso   1.000  C
  C458     1.0000 0.27830  0.50000  0.33660  Biso   1.000  C
  H489     1.0000 0.30340  0.50000  0.40130  Biso   1.000  H
  H490     1.0000 0.24690  0.50000  0.34490  Biso   1.000  H
  O70      1.0000 0.43490  0.00000  0.87880  Biso   1.000  O
  C459     1.0000 0.31170  0.00000  0.86990  Biso   1.000  C
  C460     1.0000 0.27830  0.00000  0.83660  Biso   1.000  C
  H491     1.0000 0.30340  0.00000  0.90130  Biso   1.000  H
  H492     1.0000 0.24690  0.00000  0.84490  Biso   1.000  H
  O71      1.0000 0.93490  0.50000  0.87880  Biso   1.000  O
  C461     1.0000 0.81170  0.50000  0.86990  Biso   1.000  C
  C462     1.0000 0.77830  0.50000  0.83660  Biso   1.000  C
  H493     1.0000 0.80340  0.50000  0.90130  Biso   1.000  H
  H494     1.0000 0.74690  0.50000  0.84490  Biso   1.000  H
  O72      1.0000 0.93490  0.00000  0.37880  Biso   1.000  O
  C463     1.0000 0.81170  0.00000  0.36990  Biso   1.000  C
  C464     1.0000 0.77830  0.00000  0.33660  Biso   1.000  C
  H495     1.0000 0.80340  0.00000  0.40130  Biso   1.000  H
  H496     1.0000 0.74690  0.00000  0.34490  Biso   1.000  H
  O73      1.0000 0.56510  0.50000  0.37880  Biso   1.000  O
  C465     1.0000 0.68830  0.50000  0.36990  Biso   1.000  C
  C466     1.0000 0.72170  0.50000  0.33660  Biso   1.000  C
  H497     1.0000 0.69660  0.50000  0.40130  Biso   1.000  H
  H498     1.0000 0.75310  0.50000  0.34490  Biso   1.000  H
  O74      1.0000 0.56510  0.00000  0.87880  Biso   1.000  O
  C467     1.0000 0.68830  0.00000  0.86990  Biso   1.000  C
  C468     1.0000 0.72170  0.00000  0.83660  Biso   1.000  C
  H499     1.0000 0.69660  0.00000  0.90130  Biso   1.000  H
  H500     1.0000 0.75310  0.00000  0.84490  Biso   1.000  H
  O75      1.0000 0.06510  0.50000  0.87880  Biso   1.000  O
  C469     1.0000 0.18830  0.50000  0.86990  Biso   1.000  C
  C470     1.0000 0.22170  0.50000  0.83660  Biso   1.000  C
  H501     1.0000 0.19660  0.50000  0.90130  Biso   1.000  H
  H502     1.0000 0.25310  0.50000  0.84490  Biso   1.000  H
  O76      1.0000 0.06510  0.00000  0.37880  Biso   1.000  O
  C471     1.0000 0.18830  0.00000  0.36990  Biso   1.000  C
  C472     1.0000 0.22170  0.00000  0.33660  Biso   1.000  C
  H503     1.0000 0.19660  0.00000  0.40130  Biso   1.000  H
  H504     1.0000 0.25310  0.00000  0.34490  Biso   1.000  H
  O77      1.0000 0.43490  0.50000  0.62120  Biso   1.000  O
  C473     1.0000 0.31170  0.50000  0.63010  Biso   1.000  C
  C474     1.0000 0.27830  0.50000  0.66340  Biso   1.000  C
  H505     1.0000 0.30340  0.50000  0.59870  Biso   1.000  H
  H506     1.0000 0.24690  0.50000  0.65510  Biso   1.000  H
  O78      1.0000 0.43490  0.00000  0.12120  Biso   1.000  O
  C475     1.0000 0.31170  0.00000  0.13010  Biso   1.000  C
  C476     1.0000 0.27830  0.00000  0.16340  Biso   1.000  C
  H507     1.0000 0.30340  0.00000  0.09870  Biso   1.000  H
  H508     1.0000 0.24690  0.00000  0.15510  Biso   1.000  H
  O79      1.0000 0.93490  0.50000  0.12120  Biso   1.000  O
  C477     1.0000 0.81170  0.50000  0.13010  Biso   1.000  C
  C478     1.0000 0.77830  0.50000  0.16340  Biso   1.000  C
  H509     1.0000 0.80340  0.50000  0.09870  Biso   1.000  H
  H510     1.0000 0.74690  0.50000  0.15510  Biso   1.000  H
  O80      1.0000 0.93490  0.00000  0.62120  Biso   1.000  O
  C479     1.0000 0.81170  0.00000  0.63010  Biso   1.000  C
  C480     1.0000 0.77830  0.00000  0.66340  Biso   1.000  C
  H511     1.0000 0.80340  0.00000  0.59870  Biso   1.000  H
  H512     1.0000 0.74690  0.00000  0.65510  Biso   1.000  H
  O81      1.0000 0.56510  0.62120  0.50000  Biso   1.000  O
  C481     1.0000 0.68830  0.63010  0.50000  Biso   1.000  C
  C482     1.0000 0.72170  0.66340  0.50000  Biso   1.000  C
  H513     1.0000 0.69660  0.59870  0.50000  Biso   1.000  H
  H514     1.0000 0.75310  0.65510  0.50000  Biso   1.000  H
  O82      1.0000 0.56510  0.12120  0.00000  Biso   1.000  O
  C483     1.0000 0.68830  0.13010  0.00000  Biso   1.000  C
  C484     1.0000 0.72170  0.16340  0.00000  Biso   1.000  C
  H515     1.0000 0.69660  0.09870  0.00000  Biso   1.000  H
  H516     1.0000 0.75310  0.15510  0.00000  Biso   1.000  H
  O83      1.0000 0.06510  0.62120  0.00000  Biso   1.000  O
  C485     1.0000 0.18830  0.63010  0.00000  Biso   1.000  C
  C486     1.0000 0.22170  0.66340  0.00000  Biso   1.000  C
  H517     1.0000 0.19660  0.59870  0.00000  Biso   1.000  H
  H518     1.0000 0.25310  0.65510  0.00000  Biso   1.000  H
  O84      1.0000 0.06510  0.12120  0.50000  Biso   1.000  O
  C487     1.0000 0.18830  0.13010  0.50000  Biso   1.000  C
  C488     1.0000 0.22170  0.16340  0.50000  Biso   1.000  C
  H519     1.0000 0.19660  0.09870  0.50000  Biso   1.000  H
  H520     1.0000 0.25310  0.15510  0.50000  Biso   1.000  H
  O85      1.0000 0.43490  0.37880  0.50000  Biso   1.000  O
  C489     1.0000 0.31170  0.36990  0.50000  Biso   1.000  C
  C490     1.0000 0.27830  0.33660  0.50000  Biso   1.000  C
  H521     1.0000 0.30340  0.40130  0.50000  Biso   1.000  H
  H522     1.0000 0.24690  0.34490  0.50000  Biso   1.000  H
  O86      1.0000 0.43490  0.87880  0.00000  Biso   1.000  O
  C491     1.0000 0.31170  0.86990  0.00000  Biso   1.000  C
  C492     1.0000 0.27830  0.83660  0.00000  Biso   1.000  C
  H523     1.0000 0.30340  0.90130  0.00000  Biso   1.000  H
  H524     1.0000 0.24690  0.84490  0.00000  Biso   1.000  H
  O87      1.0000 0.93490  0.37880  0.00000  Biso   1.000  O
  C493     1.0000 0.81170  0.36990  0.00000  Biso   1.000  C
  C494     1.0000 0.77830  0.33660  0.00000  Biso   1.000  C
  H525     1.0000 0.80340  0.40130  0.00000  Biso   1.000  H
  H526     1.0000 0.74690  0.34490  0.00000  Biso   1.000  H
  O88      1.0000 0.93490  0.87880  0.50000  Biso   1.000  O
  C495     1.0000 0.81170  0.86990  0.50000  Biso   1.000  C
  C496     1.0000 0.77830  0.83660  0.50000  Biso   1.000  C
  H527     1.0000 0.80340  0.90130  0.50000  Biso   1.000  H
  H528     1.0000 0.74690  0.84490  0.50000  Biso   1.000  H
  O89      1.0000 0.56510  0.37880  0.50000  Biso   1.000  O
  C497     1.0000 0.68830  0.36990  0.50000  Biso   1.000  C
  C498     1.0000 0.72170  0.33660  0.50000  Biso   1.000  C
  H529     1.0000 0.69660  0.40130  0.50000  Biso   1.000  H
  H530     1.0000 0.75310  0.34490  0.50000  Biso   1.000  H
  O90      1.0000 0.56510  0.87880  0.00000  Biso   1.000  O
  C499     1.0000 0.68830  0.86990  0.00000  Biso   1.000  C
  C500     1.0000 0.72170  0.83660  0.00000  Biso   1.000  C
  H531     1.0000 0.69660  0.90130  0.00000  Biso   1.000  H
  H532     1.0000 0.75310  0.84490  0.00000  Biso   1.000  H
  O91      1.0000 0.06510  0.37880  0.00000  Biso   1.000  O
  C501     1.0000 0.18830  0.36990  0.00000  Biso   1.000  C
  C502     1.0000 0.22170  0.33660  0.00000  Biso   1.000  C
  H533     1.0000 0.19660  0.40130  0.00000  Biso   1.000  H
  H534     1.0000 0.25310  0.34490  0.00000  Biso   1.000  H
  O92      1.0000 0.06510  0.87880  0.50000  Biso   1.000  O
  C503     1.0000 0.18830  0.86990  0.50000  Biso   1.000  C
  C504     1.0000 0.22170  0.83660  0.50000  Biso   1.000  C
  H535     1.0000 0.19660  0.90130  0.50000  Biso   1.000  H
  H536     1.0000 0.25310  0.84490  0.50000  Biso   1.000  H
  O93      1.0000 0.43490  0.62120  0.50000  Biso   1.000  O
  C505     1.0000 0.31170  0.63010  0.50000  Biso   1.000  C
  C506     1.0000 0.27830  0.66340  0.50000  Biso   1.000  C
  H537     1.0000 0.30340  0.59870  0.50000  Biso   1.000  H
  H538     1.0000 0.24690  0.65510  0.50000  Biso   1.000  H
  O94      1.0000 0.43490  0.12120  0.00000  Biso   1.000  O
  C507     1.0000 0.31170  0.13010  0.00000  Biso   1.000  C
  C508     1.0000 0.27830  0.16340  0.00000  Biso   1.000  C
  H539     1.0000 0.30340  0.09870  0.00000  Biso   1.000  H
  H540     1.0000 0.24690  0.15510  0.00000  Biso   1.000  H
  O95      1.0000 0.93490  0.62120  0.00000  Biso   1.000  O
  C509     1.0000 0.81170  0.63010  0.00000  Biso   1.000  C
  C510     1.0000 0.77830  0.66340  0.00000  Biso   1.000  C
  H541     1.0000 0.80340  0.59870  0.00000  Biso   1.000  H
  H542     1.0000 0.74690  0.65510  0.00000  Biso   1.000  H
  O96      1.0000 0.93490  0.12120  0.50000  Biso   1.000  O
  C511     1.0000 0.81170  0.13010  0.50000  Biso   1.000  C
  C512     1.0000 0.77830  0.16340  0.50000  Biso   1.000  C
  H543     1.0000 0.80340  0.09870  0.50000  Biso   1.000  H
  H544     1.0000 0.74690  0.15510  0.50000  Biso   1.000  H
  O97      1.0000 0.62120  0.50000  0.43490  Biso   1.000  O
  C513     1.0000 0.63010  0.50000  0.31170  Biso   1.000  C
  C514     1.0000 0.66340  0.50000  0.27830  Biso   1.000  C
  H545     1.0000 0.59870  0.50000  0.30340  Biso   1.000  H
  H546     1.0000 0.65510  0.50000  0.24690  Biso   1.000  H
  O98      1.0000 0.62120  0.00000  0.93490  Biso   1.000  O
  C515     1.0000 0.63010  0.00000  0.81170  Biso   1.000  C
  C516     1.0000 0.66340  0.00000  0.77830  Biso   1.000  C
  H547     1.0000 0.59870  0.00000  0.80340  Biso   1.000  H
  H548     1.0000 0.65510  0.00000  0.74690  Biso   1.000  H
  O99      1.0000 0.12120  0.50000  0.93490  Biso   1.000  O
  C517     1.0000 0.13010  0.50000  0.81170  Biso   1.000  C
  C518     1.0000 0.16340  0.50000  0.77830  Biso   1.000  C
  H549     1.0000 0.09870  0.50000  0.80340  Biso   1.000  H
  H550     1.0000 0.15510  0.50000  0.74690  Biso   1.000  H
  O100     1.0000 0.12120  0.00000  0.43490  Biso   1.000  O
  C519     1.0000 0.13010  0.00000  0.31170  Biso   1.000  C
  C520     1.0000 0.16340  0.00000  0.27830  Biso   1.000  C
  H551     1.0000 0.09870  0.00000  0.30340  Biso   1.000  H
  H552     1.0000 0.15510  0.00000  0.24690  Biso   1.000  H
  O101     1.0000 0.37880  0.50000  0.56510  Biso   1.000  O
  C521     1.0000 0.36990  0.50000  0.68830  Biso   1.000  C
  C522     1.0000 0.33660  0.50000  0.72170  Biso   1.000  C
  H553     1.0000 0.40130  0.50000  0.69660  Biso   1.000  H
  H554     1.0000 0.34490  0.50000  0.75310  Biso   1.000  H
  O102     1.0000 0.37880  0.00000  0.06510  Biso   1.000  O
  C523     1.0000 0.36990  0.00000  0.18830  Biso   1.000  C
  C524     1.0000 0.33660  0.00000  0.22170  Biso   1.000  C
  H555     1.0000 0.40130  0.00000  0.19660  Biso   1.000  H
  H556     1.0000 0.34490  0.00000  0.25310  Biso   1.000  H
  O103     1.0000 0.87880  0.50000  0.06510  Biso   1.000  O
  C525     1.0000 0.86990  0.50000  0.18830  Biso   1.000  C
  C526     1.0000 0.83660  0.50000  0.22170  Biso   1.000  C
  H557     1.0000 0.90130  0.50000  0.19660  Biso   1.000  H
  H558     1.0000 0.84490  0.50000  0.25310  Biso   1.000  H
  O104     1.0000 0.87880  0.00000  0.56510  Biso   1.000  O
  C527     1.0000 0.86990  0.00000  0.68830  Biso   1.000  C
  C528     1.0000 0.83660  0.00000  0.72170  Biso   1.000  C
  H559     1.0000 0.90130  0.00000  0.69660  Biso   1.000  H
  H560     1.0000 0.84490  0.00000  0.75310  Biso   1.000  H
  O105     1.0000 0.37880  0.50000  0.43490  Biso   1.000  O
  C529     1.0000 0.36990  0.50000  0.31170  Biso   1.000  C
  C530     1.0000 0.33660  0.50000  0.27830  Biso   1.000  C
  H561     1.0000 0.40130  0.50000  0.30340  Biso   1.000  H
  H562     1.0000 0.34490  0.50000  0.24690  Biso   1.000  H
  O106     1.0000 0.37880  0.00000  0.93490  Biso   1.000  O
  C531     1.0000 0.36990  0.00000  0.81170  Biso   1.000  C
  C532     1.0000 0.33660  0.00000  0.77830  Biso   1.000  C
  H563     1.0000 0.40130  0.00000  0.80340  Biso   1.000  H
  H564     1.0000 0.34490  0.00000  0.74690  Biso   1.000  H
  O107     1.0000 0.87880  0.50000  0.93490  Biso   1.000  O
  C533     1.0000 0.86990  0.50000  0.81170  Biso   1.000  C
  C534     1.0000 0.83660  0.50000  0.77830  Biso   1.000  C
  H565     1.0000 0.90130  0.50000  0.80340  Biso   1.000  H
  H566     1.0000 0.84490  0.50000  0.74690  Biso   1.000  H
  O108     1.0000 0.87880  0.00000  0.43490  Biso   1.000  O
  C535     1.0000 0.86990  0.00000  0.31170  Biso   1.000  C
  C536     1.0000 0.83660  0.00000  0.27830  Biso   1.000  C
  H567     1.0000 0.90130  0.00000  0.30340  Biso   1.000  H
  H568     1.0000 0.84490  0.00000  0.24690  Biso   1.000  H
  O109     1.0000 0.62120  0.50000  0.56510  Biso   1.000  O
  C537     1.0000 0.63010  0.50000  0.68830  Biso   1.000  C
  C538     1.0000 0.66340  0.50000  0.72170  Biso   1.000  C
  H569     1.0000 0.59870  0.50000  0.69660  Biso   1.000  H
  H570     1.0000 0.65510  0.50000  0.75310  Biso   1.000  H
  O110     1.0000 0.62120  0.00000  0.06510  Biso   1.000  O
  C539     1.0000 0.63010  0.00000  0.18830  Biso   1.000  C
  C540     1.0000 0.66340  0.00000  0.22170  Biso   1.000  C
  H571     1.0000 0.59870  0.00000  0.19660  Biso   1.000  H
  H572     1.0000 0.65510  0.00000  0.25310  Biso   1.000  H
  O111     1.0000 0.12120  0.50000  0.06510  Biso   1.000  O
  C541     1.0000 0.13010  0.50000  0.18830  Biso   1.000  C
  C542     1.0000 0.16340  0.50000  0.22170  Biso   1.000  C
  H573     1.0000 0.09870  0.50000  0.19660  Biso   1.000  H
  H574     1.0000 0.15510  0.50000  0.25310  Biso   1.000  H
  O112     1.0000 0.12120  0.00000  0.56510  Biso   1.000  O
  C543     1.0000 0.13010  0.00000  0.68830  Biso   1.000  C
  C544     1.0000 0.16340  0.00000  0.72170  Biso   1.000  C
  H575     1.0000 0.09870  0.00000  0.69660  Biso   1.000  H
  H576     1.0000 0.15510  0.00000  0.75310  Biso   1.000  H
  O113     1.0000 0.50000  0.56510  0.37880  Biso   1.000  O
  C545     1.0000 0.50000  0.68830  0.36990  Biso   1.000  C
  C546     1.0000 0.50000  0.72170  0.33660  Biso   1.000  C
  H577     1.0000 0.50000  0.69660  0.40130  Biso   1.000  H
  H578     1.0000 0.50000  0.75310  0.34490  Biso   1.000  H
  O114     1.0000 0.50000  0.06510  0.87880  Biso   1.000  O
  C547     1.0000 0.50000  0.18830  0.86990  Biso   1.000  C
  C548     1.0000 0.50000  0.22170  0.83660  Biso   1.000  C
  H579     1.0000 0.50000  0.19660  0.90130  Biso   1.000  H
  H580     1.0000 0.50000  0.25310  0.84490  Biso   1.000  H
  O115     1.0000 0.00000  0.56510  0.87880  Biso   1.000  O
  C549     1.0000 0.00000  0.68830  0.86990  Biso   1.000  C
  C550     1.0000 0.00000  0.72170  0.83660  Biso   1.000  C
  H581     1.0000 0.00000  0.69660  0.90130  Biso   1.000  H
  H582     1.0000 0.00000  0.75310  0.84490  Biso   1.000  H
  O116     1.0000 0.00000  0.06510  0.37880  Biso   1.000  O
  C551     1.0000 0.00000  0.18830  0.36990  Biso   1.000  C
  C552     1.0000 0.00000  0.22170  0.33660  Biso   1.000  C
  H583     1.0000 0.00000  0.19660  0.40130  Biso   1.000  H
  H584     1.0000 0.00000  0.25310  0.34490  Biso   1.000  H
  O117     1.0000 0.50000  0.43490  0.62120  Biso   1.000  O
  C553     1.0000 0.50000  0.31170  0.63010  Biso   1.000  C
  C554     1.0000 0.50000  0.27830  0.66340  Biso   1.000  C
  H585     1.0000 0.50000  0.30340  0.59870  Biso   1.000  H
  H586     1.0000 0.50000  0.24690  0.65510  Biso   1.000  H
  O118     1.0000 0.50000  0.93490  0.12120  Biso   1.000  O
  C555     1.0000 0.50000  0.81170  0.13010  Biso   1.000  C
  C556     1.0000 0.50000  0.77830  0.16340  Biso   1.000  C
  H587     1.0000 0.50000  0.80340  0.09870  Biso   1.000  H
  H588     1.0000 0.50000  0.74690  0.15510  Biso   1.000  H
  O119     1.0000 0.00000  0.43490  0.12120  Biso   1.000  O
  C557     1.0000 0.00000  0.31170  0.13010  Biso   1.000  C
  C558     1.0000 0.00000  0.27830  0.16340  Biso   1.000  C
  H589     1.0000 0.00000  0.30340  0.09870  Biso   1.000  H
  H590     1.0000 0.00000  0.24690  0.15510  Biso   1.000  H
  O120     1.0000 0.00000  0.93490  0.62120  Biso   1.000  O
  C559     1.0000 0.00000  0.81170  0.63010  Biso   1.000  C
  C560     1.0000 0.00000  0.77830  0.66340  Biso   1.000  C
  H591     1.0000 0.00000  0.80340  0.59870  Biso   1.000  H
  H592     1.0000 0.00000  0.74690  0.65510  Biso   1.000  H
  O121     1.0000 0.50000  0.56510  0.62120  Biso   1.000  O
  C561     1.0000 0.50000  0.68830  0.63010  Biso   1.000  C
  C562     1.0000 0.50000  0.72170  0.66340  Biso   1.000  C
  H593     1.0000 0.50000  0.69660  0.59870  Biso   1.000  H
  H594     1.0000 0.50000  0.75310  0.65510  Biso   1.000  H
  O122     1.0000 0.50000  0.06510  0.12120  Biso   1.000  O
  C563     1.0000 0.50000  0.18830  0.13010  Biso   1.000  C
  C564     1.0000 0.50000  0.22170  0.16340  Biso   1.000  C
  H595     1.0000 0.50000  0.19660  0.09870  Biso   1.000  H
  H596     1.0000 0.50000  0.25310  0.15510  Biso   1.000  H
  O123     1.0000 0.00000  0.56510  0.12120  Biso   1.000  O
  C565     1.0000 0.00000  0.68830  0.13010  Biso   1.000  C
  C566     1.0000 0.00000  0.72170  0.16340  Biso   1.000  C
  H597     1.0000 0.00000  0.69660  0.09870  Biso   1.000  H
  H598     1.0000 0.00000  0.75310  0.15510  Biso   1.000  H
  O124     1.0000 0.00000  0.06510  0.62120  Biso   1.000  O
  C567     1.0000 0.00000  0.18830  0.63010  Biso   1.000  C
  C568     1.0000 0.00000  0.22170  0.66340  Biso   1.000  C
  H599     1.0000 0.00000  0.19660  0.59870  Biso   1.000  H
  H600     1.0000 0.00000  0.25310  0.65510  Biso   1.000  H
  O125     1.0000 0.50000  0.43490  0.37880  Biso   1.000  O
  C569     1.0000 0.50000  0.31170  0.36990  Biso   1.000  C
  C570     1.0000 0.50000  0.27830  0.33660  Biso   1.000  C
  H601     1.0000 0.50000  0.30340  0.40130  Biso   1.000  H
  H602     1.0000 0.50000  0.24690  0.34490  Biso   1.000  H
  O126     1.0000 0.50000  0.93490  0.87880  Biso   1.000  O
  C571     1.0000 0.50000  0.81170  0.86990  Biso   1.000  C
  C572     1.0000 0.50000  0.77830  0.83660  Biso   1.000  C
  H603     1.0000 0.50000  0.80340  0.90130  Biso   1.000  H
  H604     1.0000 0.50000  0.74690  0.84490  Biso   1.000  H
  O127     1.0000 0.00000  0.43490  0.87880  Biso   1.000  O
  C573     1.0000 0.00000  0.31170  0.86990  Biso   1.000  C
  C574     1.0000 0.00000  0.27830  0.83660  Biso   1.000  C
  H605     1.0000 0.00000  0.30340  0.90130  Biso   1.000  H
  H606     1.0000 0.00000  0.24690  0.84490  Biso   1.000  H
  O128     1.0000 0.00000  0.93490  0.37880  Biso   1.000  O
  C575     1.0000 0.00000  0.81170  0.36990  Biso   1.000  C
  C576     1.0000 0.00000  0.77830  0.33660  Biso   1.000  C
  H607     1.0000 0.00000  0.80340  0.40130  Biso   1.000  H
  H608     1.0000 0.00000  0.74690  0.34490  Biso   1.000  H
  C577     1.0000 0.60730  0.60730  0.50000  Biso   1.000  C
  C578     1.0000 0.64290  0.64290  0.50000  Biso   1.000  C
  C579     1.0000 0.70880  0.70880  0.50000  Biso   1.000  C
  N193     1.0000 0.76270  0.76270  0.50000  Biso   1.000  N
  C580     1.0000 0.60730  0.10730  0.00000  Biso   1.000  C
  C581     1.0000 0.64290  0.14290  0.00000  Biso   1.000  C
  C582     1.0000 0.70880  0.20880  0.00000  Biso   1.000  C
  N194     1.0000 0.76270  0.26270  0.00000  Biso   1.000  N
  C583     1.0000 0.10730  0.60730  0.00000  Biso   1.000  C
  C584     1.0000 0.14290  0.64290  0.00000  Biso   1.000  C
  C585     1.0000 0.20880  0.70880  0.00000  Biso   1.000  C
  N195     1.0000 0.26270  0.76270  0.00000  Biso   1.000  N
  C586     1.0000 0.10730  0.10730  0.50000  Biso   1.000  C
  C587     1.0000 0.14290  0.14290  0.50000  Biso   1.000  C
  C588     1.0000 0.20880  0.20880  0.50000  Biso   1.000  C
  N196     1.0000 0.26270  0.26270  0.50000  Biso   1.000  N
  C589     1.0000 0.39270  0.39270  0.50000  Biso   1.000  C
  C590     1.0000 0.35710  0.35710  0.50000  Biso   1.000  C
  C591     1.0000 0.29120  0.29120  0.50000  Biso   1.000  C
  N197     1.0000 0.23730  0.23730  0.50000  Biso   1.000  N
  C592     1.0000 0.39270  0.89270  0.00000  Biso   1.000  C
  C593     1.0000 0.35710  0.85710  0.00000  Biso   1.000  C
  C594     1.0000 0.29120  0.79120  0.00000  Biso   1.000  C
  N198     1.0000 0.23730  0.73730  0.00000  Biso   1.000  N
  C595     1.0000 0.89270  0.39270  0.00000  Biso   1.000  C
  C596     1.0000 0.85710  0.35710  0.00000  Biso   1.000  C
  C597     1.0000 0.79120  0.29120  0.00000  Biso   1.000  C
  N199     1.0000 0.73730  0.23730  0.00000  Biso   1.000  N
  C598     1.0000 0.89270  0.89270  0.50000  Biso   1.000  C
  C599     1.0000 0.85710  0.85710  0.50000  Biso   1.000  C
  C600     1.0000 0.79120  0.79120  0.50000  Biso   1.000  C
  N200     1.0000 0.73730  0.73730  0.50000  Biso   1.000  N
  C601     1.0000 0.39270  0.60730  0.50000  Biso   1.000  C
  C602     1.0000 0.35710  0.64290  0.50000  Biso   1.000  C
  C603     1.0000 0.29120  0.70880  0.50000  Biso   1.000  C
  N201     1.0000 0.23730  0.76270  0.50000  Biso   1.000  N
  C604     1.0000 0.39270  0.10730  0.00000  Biso   1.000  C
  C605     1.0000 0.35710  0.14290  0.00000  Biso   1.000  C
  C606     1.0000 0.29120  0.20880  0.00000  Biso   1.000  C
  N202     1.0000 0.23730  0.26270  0.00000  Biso   1.000  N
  C607     1.0000 0.89270  0.60730  0.00000  Biso   1.000  C
  C608     1.0000 0.85710  0.64290  0.00000  Biso   1.000  C
  C609     1.0000 0.79120  0.70880  0.00000  Biso   1.000  C
  N203     1.0000 0.73730  0.76270  0.00000  Biso   1.000  N
  C610     1.0000 0.89270  0.10730  0.50000  Biso   1.000  C
  C611     1.0000 0.85710  0.14290  0.50000  Biso   1.000  C
  C612     1.0000 0.79120  0.20880  0.50000  Biso   1.000  C
  N204     1.0000 0.73730  0.26270  0.50000  Biso   1.000  N
  C613     1.0000 0.60730  0.39270  0.50000  Biso   1.000  C
  C614     1.0000 0.64290  0.35710  0.50000  Biso   1.000  C
  C615     1.0000 0.70880  0.29120  0.50000  Biso   1.000  C
  N205     1.0000 0.76270  0.23730  0.50000  Biso   1.000  N
  C616     1.0000 0.60730  0.89270  0.00000  Biso   1.000  C
  C617     1.0000 0.64290  0.85710  0.00000  Biso   1.000  C
  C618     1.0000 0.70880  0.79120  0.00000  Biso   1.000  C
  N206     1.0000 0.76270  0.73730  0.00000  Biso   1.000  N
  C619     1.0000 0.10730  0.39270  0.00000  Biso   1.000  C
  C620     1.0000 0.14290  0.35710  0.00000  Biso   1.000  C
  C621     1.0000 0.20880  0.29120  0.00000  Biso   1.000  C
  N207     1.0000 0.26270  0.23730  0.00000  Biso   1.000  N
  C622     1.0000 0.10730  0.89270  0.50000  Biso   1.000  C
  C623     1.0000 0.14290  0.85710  0.50000  Biso   1.000  C
  C624     1.0000 0.20880  0.79120  0.50000  Biso   1.000  C
  N208     1.0000 0.26270  0.73730  0.50000  Biso   1.000  N
  C625     1.0000 0.50000  0.60730  0.60730  Biso   1.000  C
  C626     1.0000 0.50000  0.64290  0.64290  Biso   1.000  C
  C627     1.0000 0.50000  0.70880  0.70880  Biso   1.000  C
  N209     1.0000 0.50000  0.76270  0.76270  Biso   1.000  N
  C628     1.0000 0.50000  0.10730  0.10730  Biso   1.000  C
  C629     1.0000 0.50000  0.14290  0.14290  Biso   1.000  C
  C630     1.0000 0.50000  0.20880  0.20880  Biso   1.000  C
  N210     1.0000 0.50000  0.26270  0.26270  Biso   1.000  N
  C631     1.0000 0.00000  0.60730  0.10730  Biso   1.000  C
  C632     1.0000 0.00000  0.64290  0.14290  Biso   1.000  C
  C633     1.0000 0.00000  0.70880  0.20880  Biso   1.000  C
  N211     1.0000 0.00000  0.76270  0.26270  Biso   1.000  N
  C634     1.0000 0.00000  0.10730  0.60730  Biso   1.000  C
  C635     1.0000 0.00000  0.14290  0.64290  Biso   1.000  C
  C636     1.0000 0.00000  0.20880  0.70880  Biso   1.000  C
  N212     1.0000 0.00000  0.26270  0.76270  Biso   1.000  N
  C637     1.0000 0.50000  0.39270  0.39270  Biso   1.000  C
  C638     1.0000 0.50000  0.35710  0.35710  Biso   1.000  C
  C639     1.0000 0.50000  0.29120  0.29120  Biso   1.000  C
  N213     1.0000 0.50000  0.23730  0.23730  Biso   1.000  N
  C640     1.0000 0.50000  0.89270  0.89270  Biso   1.000  C
  C641     1.0000 0.50000  0.85710  0.85710  Biso   1.000  C
  C642     1.0000 0.50000  0.79120  0.79120  Biso   1.000  C
  N214     1.0000 0.50000  0.73730  0.73730  Biso   1.000  N
  C643     1.0000 0.00000  0.39270  0.89270  Biso   1.000  C
  C644     1.0000 0.00000  0.35710  0.85710  Biso   1.000  C
  C645     1.0000 0.00000  0.29120  0.79120  Biso   1.000  C
  N215     1.0000 0.00000  0.23730  0.73730  Biso   1.000  N
  C646     1.0000 0.00000  0.89270  0.39270  Biso   1.000  C
  C647     1.0000 0.00000  0.85710  0.35710  Biso   1.000  C
  C648     1.0000 0.00000  0.79120  0.29120  Biso   1.000  C
  N216     1.0000 0.00000  0.73730  0.23730  Biso   1.000  N
  C649     1.0000 0.50000  0.39270  0.60730  Biso   1.000  C
  C650     1.0000 0.50000  0.35710  0.64290  Biso   1.000  C
  C651     1.0000 0.50000  0.29120  0.70880  Biso   1.000  C
  N217     1.0000 0.50000  0.23730  0.76270  Biso   1.000  N
  C652     1.0000 0.50000  0.89270  0.10730  Biso   1.000  C
  C653     1.0000 0.50000  0.85710  0.14290  Biso   1.000  C
  C654     1.0000 0.50000  0.79120  0.20880  Biso   1.000  C
  N218     1.0000 0.50000  0.73730  0.26270  Biso   1.000  N
  C655     1.0000 0.00000  0.39270  0.10730  Biso   1.000  C
  C656     1.0000 0.00000  0.35710  0.14290  Biso   1.000  C
  C657     1.0000 0.00000  0.29120  0.20880  Biso   1.000  C
  N219     1.0000 0.00000  0.23730  0.26270  Biso   1.000  N
  C658     1.0000 0.00000  0.89270  0.60730  Biso   1.000  C
  C659     1.0000 0.00000  0.85710  0.64290  Biso   1.000  C
  C660     1.0000 0.00000  0.79120  0.70880  Biso   1.000  C
  N220     1.0000 0.00000  0.73730  0.76270  Biso   1.000  N
  C661     1.0000 0.50000  0.60730  0.39270  Biso   1.000  C
  C662     1.0000 0.50000  0.64290  0.35710  Biso   1.000  C
  C663     1.0000 0.50000  0.70880  0.29120  Biso   1.000  C
  N221     1.0000 0.50000  0.76270  0.23730  Biso   1.000  N
  C664     1.0000 0.50000  0.10730  0.89270  Biso   1.000  C
  C665     1.0000 0.50000  0.14290  0.85710  Biso   1.000  C
  C666     1.0000 0.50000  0.20880  0.79120  Biso   1.000  C
  N222     1.0000 0.50000  0.26270  0.73730  Biso   1.000  N
  C667     1.0000 0.00000  0.60730  0.89270  Biso   1.000  C
  C668     1.0000 0.00000  0.64290  0.85710  Biso   1.000  C
  C669     1.0000 0.00000  0.70880  0.79120  Biso   1.000  C
  N223     1.0000 0.00000  0.76270  0.73730  Biso   1.000  N
  C670     1.0000 0.00000  0.10730  0.39270  Biso   1.000  C
  C671     1.0000 0.00000  0.14290  0.35710  Biso   1.000  C
  C672     1.0000 0.00000  0.20880  0.29120  Biso   1.000  C
  N224     1.0000 0.00000  0.26270  0.23730  Biso   1.000  N
  C673     1.0000 0.60730  0.50000  0.60730  Biso   1.000  C
  C674     1.0000 0.64290  0.50000  0.64290  Biso   1.000  C
  C675     1.0000 0.70880  0.50000  0.70880  Biso   1.000  C
  N225     1.0000 0.76270  0.50000  0.76270  Biso   1.000  N
  C676     1.0000 0.60730  0.00000  0.10730  Biso   1.000  C
  C677     1.0000 0.64290  0.00000  0.14290  Biso   1.000  C
  C678     1.0000 0.70880  0.00000  0.20880  Biso   1.000  C
  N226     1.0000 0.76270  0.00000  0.26270  Biso   1.000  N
  C679     1.0000 0.10730  0.50000  0.10730  Biso   1.000  C
  C680     1.0000 0.14290  0.50000  0.14290  Biso   1.000  C
  C681     1.0000 0.20880  0.50000  0.20880  Biso   1.000  C
  N227     1.0000 0.26270  0.50000  0.26270  Biso   1.000  N
  C682     1.0000 0.10730  0.00000  0.60730  Biso   1.000  C
  C683     1.0000 0.14290  0.00000  0.64290  Biso   1.000  C
  C684     1.0000 0.20880  0.00000  0.70880  Biso   1.000  C
  N228     1.0000 0.26270  0.00000  0.76270  Biso   1.000  N
  C685     1.0000 0.39270  0.50000  0.39270  Biso   1.000  C
  C686     1.0000 0.35710  0.50000  0.35710  Biso   1.000  C
  C687     1.0000 0.29120  0.50000  0.29120  Biso   1.000  C
  N229     1.0000 0.23730  0.50000  0.23730  Biso   1.000  N
  C688     1.0000 0.39270  0.00000  0.89270  Biso   1.000  C
  C689     1.0000 0.35710  0.00000  0.85710  Biso   1.000  C
  C690     1.0000 0.29120  0.00000  0.79120  Biso   1.000  C
  N230     1.0000 0.23730  0.00000  0.73730  Biso   1.000  N
  C691     1.0000 0.89270  0.50000  0.89270  Biso   1.000  C
  C692     1.0000 0.85710  0.50000  0.85710  Biso   1.000  C
  C693     1.0000 0.79120  0.50000  0.79120  Biso   1.000  C
  N231     1.0000 0.73730  0.50000  0.73730  Biso   1.000  N
  C694     1.0000 0.89270  0.00000  0.39270  Biso   1.000  C
  C695     1.0000 0.85710  0.00000  0.35710  Biso   1.000  C
  C696     1.0000 0.79120  0.00000  0.29120  Biso   1.000  C
  N232     1.0000 0.73730  0.00000  0.23730  Biso   1.000  N
  C697     1.0000 0.60730  0.50000  0.39270  Biso   1.000  C
  C698     1.0000 0.64290  0.50000  0.35710  Biso   1.000  C
  C699     1.0000 0.70880  0.50000  0.29120  Biso   1.000  C
  N233     1.0000 0.76270  0.50000  0.23730  Biso   1.000  N
  C700     1.0000 0.60730  0.00000  0.89270  Biso   1.000  C
  C701     1.0000 0.64290  0.00000  0.85710  Biso   1.000  C
  C702     1.0000 0.70880  0.00000  0.79120  Biso   1.000  C
  N234     1.0000 0.76270  0.00000  0.73730  Biso   1.000  N
  C703     1.0000 0.10730  0.50000  0.89270  Biso   1.000  C
  C704     1.0000 0.14290  0.50000  0.85710  Biso   1.000  C
  C705     1.0000 0.20880  0.50000  0.79120  Biso   1.000  C
  N235     1.0000 0.26270  0.50000  0.73730  Biso   1.000  N
  C706     1.0000 0.10730  0.00000  0.39270  Biso   1.000  C
  C707     1.0000 0.14290  0.00000  0.35710  Biso   1.000  C
  C708     1.0000 0.20880  0.00000  0.29120  Biso   1.000  C
  N236     1.0000 0.26270  0.00000  0.23730  Biso   1.000  N
  C709     1.0000 0.39270  0.50000  0.60730  Biso   1.000  C
  C710     1.0000 0.35710  0.50000  0.64290  Biso   1.000  C
  C711     1.0000 0.29120  0.50000  0.70880  Biso   1.000  C
  N237     1.0000 0.23730  0.50000  0.76270  Biso   1.000  N
  C712     1.0000 0.39270  0.00000  0.10730  Biso   1.000  C
  C713     1.0000 0.35710  0.00000  0.14290  Biso   1.000  C
  C714     1.0000 0.29120  0.00000  0.20880  Biso   1.000  C
  N238     1.0000 0.23730  0.00000  0.26270  Biso   1.000  N
  C715     1.0000 0.89270  0.50000  0.10730  Biso   1.000  C
  C716     1.0000 0.85710  0.50000  0.14290  Biso   1.000  C
  C717     1.0000 0.79120  0.50000  0.20880  Biso   1.000  C
  N239     1.0000 0.73730  0.50000  0.26270  Biso   1.000  N
  C718     1.0000 0.89270  0.00000  0.60730  Biso   1.000  C
  C719     1.0000 0.85710  0.00000  0.64290  Biso   1.000  C
  C720     1.0000 0.79120  0.00000  0.70880  Biso   1.000  C
  N240     1.0000 0.73730  0.00000  0.76270  Biso   1.000  N
