data_image0
_cell_length_a       29.983
_cell_length_b       29.983
_cell_length_c       29.983
_cell_angle_alpha    90
_cell_angle_beta     90
_cell_angle_gamma    90

_symmetry_space_group_name_H-M    "P 1"
_symmetry_int_tables_number       1

loop_
  _symmetry_equiv_pos_as_xyz
  'x, y, z'

loop_
  _atom_site_label
  _atom_site_occupancy
  _atom_site_fract_x
  _atom_site_fract_y
  _atom_site_fract_z
  _atom_site_thermal_displace_type
  _atom_site_B_iso_or_equiv
  _atom_site_type_symbol
  H1       1.0000 0.13590  0.22310  0.97690  Biso   1.000  H
  H2       1.0000 0.13590  0.72310  0.47690  Biso   1.000  H
  H3       1.0000 0.63590  0.22310  0.47690  Biso   1.000  H
  H4       1.0000 0.63590  0.72310  0.97690  Biso   1.000  H
  H5       1.0000 0.86410  0.77690  0.97690  Biso   1.000  H
  H6       1.0000 0.86410  0.27690  0.47690  Biso   1.000  H
  H7       1.0000 0.36410  0.77690  0.47690  Biso   1.000  H
  H8       1.0000 0.36410  0.27690  0.97690  Biso   1.000  H
  H9       1.0000 0.86410  0.22310  0.02310  Biso   1.000  H
  H10      1.0000 0.86410  0.72310  0.52310  Biso   1.000  H
  H11      1.0000 0.36410  0.22310  0.52310  Biso   1.000  H
  H12      1.0000 0.36410  0.72310  0.02310  Biso   1.000  H
  H13      1.0000 0.13590  0.77690  0.02310  Biso   1.000  H
  H14      1.0000 0.13590  0.27690  0.52310  Biso   1.000  H
  H15      1.0000 0.63590  0.77690  0.52310  Biso   1.000  H
  H16      1.0000 0.63590  0.27690  0.02310  Biso   1.000  H
  H17      1.0000 0.97690  0.13590  0.22310  Biso   1.000  H
  H18      1.0000 0.97690  0.63590  0.72310  Biso   1.000  H
  H19      1.0000 0.47690  0.13590  0.72310  Biso   1.000  H
  H20      1.0000 0.47690  0.63590  0.22310  Biso   1.000  H
  H21      1.0000 0.97690  0.86410  0.77690  Biso   1.000  H
  H22      1.0000 0.97690  0.36410  0.27690  Biso   1.000  H
  H23      1.0000 0.47690  0.86410  0.27690  Biso   1.000  H
  H24      1.0000 0.47690  0.36410  0.77690  Biso   1.000  H
  H25      1.0000 0.02310  0.86410  0.22310  Biso   1.000  H
  H26      1.0000 0.02310  0.36410  0.72310  Biso   1.000  H
  H27      1.0000 0.52310  0.86410  0.72310  Biso   1.000  H
  H28      1.0000 0.52310  0.36410  0.22310  Biso   1.000  H
  H29      1.0000 0.02310  0.13590  0.77690  Biso   1.000  H
  H30      1.0000 0.02310  0.63590  0.27690  Biso   1.000  H
  H31      1.0000 0.52310  0.13590  0.27690  Biso   1.000  H
  H32      1.0000 0.52310  0.63590  0.77690  Biso   1.000  H
  H33      1.0000 0.22310  0.97690  0.13590  Biso   1.000  H
  H34      1.0000 0.22310  0.47690  0.63590  Biso   1.000  H
  H35      1.0000 0.72310  0.97690  0.63590  Biso   1.000  H
  H36      1.0000 0.72310  0.47690  0.13590  Biso   1.000  H
  H37      1.0000 0.77690  0.97690  0.86410  Biso   1.000  H
  H38      1.0000 0.77690  0.47690  0.36410  Biso   1.000  H
  H39      1.0000 0.27690  0.97690  0.36410  Biso   1.000  H
  H40      1.0000 0.27690  0.47690  0.86410  Biso   1.000  H
  H41      1.0000 0.22310  0.02310  0.86410  Biso   1.000  H
  H42      1.0000 0.22310  0.52310  0.36410  Biso   1.000  H
  H43      1.0000 0.72310  0.02310  0.36410  Biso   1.000  H
  H44      1.0000 0.72310  0.52310  0.86410  Biso   1.000  H
  H45      1.0000 0.77690  0.02310  0.13590  Biso   1.000  H
  H46      1.0000 0.77690  0.52310  0.63590  Biso   1.000  H
  H47      1.0000 0.27690  0.02310  0.63590  Biso   1.000  H
  H48      1.0000 0.27690  0.52310  0.13590  Biso   1.000  H
  H49      1.0000 0.22310  0.13590  0.02310  Biso   1.000  H
  H50      1.0000 0.22310  0.63590  0.52310  Biso   1.000  H
  H51      1.0000 0.72310  0.13590  0.52310  Biso   1.000  H
  H52      1.0000 0.72310  0.63590  0.02310  Biso   1.000  H
  H53      1.0000 0.77690  0.86410  0.02310  Biso   1.000  H
  H54      1.0000 0.77690  0.36410  0.52310  Biso   1.000  H
  H55      1.0000 0.27690  0.86410  0.52310  Biso   1.000  H
  H56      1.0000 0.27690  0.36410  0.02310  Biso   1.000  H
  H57      1.0000 0.22310  0.86410  0.97690  Biso   1.000  H
  H58      1.0000 0.22310  0.36410  0.47690  Biso   1.000  H
  H59      1.0000 0.72310  0.86410  0.47690  Biso   1.000  H
  H60      1.0000 0.72310  0.36410  0.97690  Biso   1.000  H
  H61      1.0000 0.77690  0.13590  0.97690  Biso   1.000  H
  H62      1.0000 0.77690  0.63590  0.47690  Biso   1.000  H
  H63      1.0000 0.27690  0.13590  0.47690  Biso   1.000  H
  H64      1.0000 0.27690  0.63590  0.97690  Biso   1.000  H
  H65      1.0000 0.13590  0.97690  0.77690  Biso   1.000  H
  H66      1.0000 0.13590  0.47690  0.27690  Biso   1.000  H
  H67      1.0000 0.63590  0.97690  0.27690  Biso   1.000  H
  H68      1.0000 0.63590  0.47690  0.77690  Biso   1.000  H
  H69      1.0000 0.86410  0.97690  0.22310  Biso   1.000  H
  H70      1.0000 0.86410  0.47690  0.72310  Biso   1.000  H
  H71      1.0000 0.36410  0.97690  0.72310  Biso   1.000  H
  H72      1.0000 0.36410  0.47690  0.22310  Biso   1.000  H
  H73      1.0000 0.86410  0.02310  0.77690  Biso   1.000  H
  H74      1.0000 0.86410  0.52310  0.27690  Biso   1.000  H
  H75      1.0000 0.36410  0.02310  0.27690  Biso   1.000  H
  H76      1.0000 0.36410  0.52310  0.77690  Biso   1.000  H
  H77      1.0000 0.13590  0.02310  0.22310  Biso   1.000  H
  H78      1.0000 0.13590  0.52310  0.72310  Biso   1.000  H
  H79      1.0000 0.63590  0.02310  0.72310  Biso   1.000  H
  H80      1.0000 0.63590  0.52310  0.22310  Biso   1.000  H
  H81      1.0000 0.97690  0.22310  0.86410  Biso   1.000  H
  H82      1.0000 0.97690  0.72310  0.36410  Biso   1.000  H
  H83      1.0000 0.47690  0.22310  0.36410  Biso   1.000  H
  H84      1.0000 0.47690  0.72310  0.86410  Biso   1.000  H
  H85      1.0000 0.97690  0.77690  0.13590  Biso   1.000  H
  H86      1.0000 0.97690  0.27690  0.63590  Biso   1.000  H
  H87      1.0000 0.47690  0.77690  0.63590  Biso   1.000  H
  H88      1.0000 0.47690  0.27690  0.13590  Biso   1.000  H
  H89      1.0000 0.02310  0.22310  0.13590  Biso   1.000  H
  H90      1.0000 0.02310  0.72310  0.63590  Biso   1.000  H
  H91      1.0000 0.52310  0.22310  0.63590  Biso   1.000  H
  H92      1.0000 0.52310  0.72310  0.13590  Biso   1.000  H
  H93      1.0000 0.02310  0.77690  0.86410  Biso   1.000  H
  H94      1.0000 0.02310  0.27690  0.36410  Biso   1.000  H
  H95      1.0000 0.52310  0.77690  0.36410  Biso   1.000  H
  H96      1.0000 0.52310  0.27690  0.86410  Biso   1.000  H
  H97      1.0000 0.86410  0.77690  0.02310  Biso   1.000  H
  H98      1.0000 0.86410  0.27690  0.52310  Biso   1.000  H
  H99      1.0000 0.36410  0.77690  0.52310  Biso   1.000  H
  H100     1.0000 0.36410  0.27690  0.02310  Biso   1.000  H
  H101     1.0000 0.13590  0.22310  0.02310  Biso   1.000  H
  H102     1.0000 0.13590  0.72310  0.52310  Biso   1.000  H
  H103     1.0000 0.63590  0.22310  0.52310  Biso   1.000  H
  H104     1.0000 0.63590  0.72310  0.02310  Biso   1.000  H
  H105     1.0000 0.13590  0.77690  0.97690  Biso   1.000  H
  H106     1.0000 0.13590  0.27690  0.47690  Biso   1.000  H
  H107     1.0000 0.63590  0.77690  0.47690  Biso   1.000  H
  H108     1.0000 0.63590  0.27690  0.97690  Biso   1.000  H
  H109     1.0000 0.86410  0.22310  0.97690  Biso   1.000  H
  H110     1.0000 0.86410  0.72310  0.47690  Biso   1.000  H
  H111     1.0000 0.36410  0.22310  0.47690  Biso   1.000  H
  H112     1.0000 0.36410  0.72310  0.97690  Biso   1.000  H
  H113     1.0000 0.02310  0.86410  0.77690  Biso   1.000  H
  H114     1.0000 0.02310  0.36410  0.27690  Biso   1.000  H
  H115     1.0000 0.52310  0.86410  0.27690  Biso   1.000  H
  H116     1.0000 0.52310  0.36410  0.77690  Biso   1.000  H
  H117     1.0000 0.02310  0.13590  0.22310  Biso   1.000  H
  H118     1.0000 0.02310  0.63590  0.72310  Biso   1.000  H
  H119     1.0000 0.52310  0.13590  0.72310  Biso   1.000  H
  H120     1.0000 0.52310  0.63590  0.22310  Biso   1.000  H
  H121     1.0000 0.97690  0.13590  0.77690  Biso   1.000  H
  H122     1.0000 0.97690  0.63590  0.27690  Biso   1.000  H
  H123     1.0000 0.47690  0.13590  0.27690  Biso   1.000  H
  H124     1.0000 0.47690  0.63590  0.77690  Biso   1.000  H
  H125     1.0000 0.97690  0.86410  0.22310  Biso   1.000  H
  H126     1.0000 0.97690  0.36410  0.72310  Biso   1.000  H
  H127     1.0000 0.47690  0.86410  0.72310  Biso   1.000  H
  H128     1.0000 0.47690  0.36410  0.22310  Biso   1.000  H
  H129     1.0000 0.77690  0.02310  0.86410  Biso   1.000  H
  H130     1.0000 0.77690  0.52310  0.36410  Biso   1.000  H
  H131     1.0000 0.27690  0.02310  0.36410  Biso   1.000  H
  H132     1.0000 0.27690  0.52310  0.86410  Biso   1.000  H
  H133     1.0000 0.22310  0.02310  0.13590  Biso   1.000  H
  H134     1.0000 0.22310  0.52310  0.63590  Biso   1.000  H
  H135     1.0000 0.72310  0.02310  0.63590  Biso   1.000  H
  H136     1.0000 0.72310  0.52310  0.13590  Biso   1.000  H
  H137     1.0000 0.77690  0.97690  0.13590  Biso   1.000  H
  H138     1.0000 0.77690  0.47690  0.63590  Biso   1.000  H
  H139     1.0000 0.27690  0.97690  0.63590  Biso   1.000  H
  H140     1.0000 0.27690  0.47690  0.13590  Biso   1.000  H
  H141     1.0000 0.22310  0.97690  0.86410  Biso   1.000  H
  H142     1.0000 0.22310  0.47690  0.36410  Biso   1.000  H
  H143     1.0000 0.72310  0.97690  0.36410  Biso   1.000  H
  H144     1.0000 0.72310  0.47690  0.86410  Biso   1.000  H
  H145     1.0000 0.77690  0.86410  0.97690  Biso   1.000  H
  H146     1.0000 0.77690  0.36410  0.47690  Biso   1.000  H
  H147     1.0000 0.27690  0.86410  0.47690  Biso   1.000  H
  H148     1.0000 0.27690  0.36410  0.97690  Biso   1.000  H
  H149     1.0000 0.22310  0.13590  0.97690  Biso   1.000  H
  H150     1.0000 0.22310  0.63590  0.47690  Biso   1.000  H
  H151     1.0000 0.72310  0.13590  0.47690  Biso   1.000  H
  H152     1.0000 0.72310  0.63590  0.97690  Biso   1.000  H
  H153     1.0000 0.77690  0.13590  0.02310  Biso   1.000  H
  H154     1.0000 0.77690  0.63590  0.52310  Biso   1.000  H
  H155     1.0000 0.27690  0.13590  0.52310  Biso   1.000  H
  H156     1.0000 0.27690  0.63590  0.02310  Biso   1.000  H
  H157     1.0000 0.22310  0.86410  0.02310  Biso   1.000  H
  H158     1.0000 0.22310  0.36410  0.52310  Biso   1.000  H
  H159     1.0000 0.72310  0.86410  0.52310  Biso   1.000  H
  H160     1.0000 0.72310  0.36410  0.02310  Biso   1.000  H
  H161     1.0000 0.86410  0.02310  0.22310  Biso   1.000  H
  H162     1.0000 0.86410  0.52310  0.72310  Biso   1.000  H
  H163     1.0000 0.36410  0.02310  0.72310  Biso   1.000  H
  H164     1.0000 0.36410  0.52310  0.22310  Biso   1.000  H
  H165     1.0000 0.13590  0.02310  0.77690  Biso   1.000  H
  H166     1.0000 0.13590  0.52310  0.27690  Biso   1.000  H
  H167     1.0000 0.63590  0.02310  0.27690  Biso   1.000  H
  H168     1.0000 0.63590  0.52310  0.77690  Biso   1.000  H
  H169     1.0000 0.13590  0.97690  0.22310  Biso   1.000  H
  H170     1.0000 0.13590  0.47690  0.72310  Biso   1.000  H
  H171     1.0000 0.63590  0.97690  0.72310  Biso   1.000  H
  H172     1.0000 0.63590  0.47690  0.22310  Biso   1.000  H
  H173     1.0000 0.86410  0.97690  0.77690  Biso   1.000  H
  H174     1.0000 0.86410  0.47690  0.27690  Biso   1.000  H
  H175     1.0000 0.36410  0.97690  0.27690  Biso   1.000  H
  H176     1.0000 0.36410  0.47690  0.77690  Biso   1.000  H
  H177     1.0000 0.02310  0.77690  0.13590  Biso   1.000  H
  H178     1.0000 0.02310  0.27690  0.63590  Biso   1.000  H
  H179     1.0000 0.52310  0.77690  0.63590  Biso   1.000  H
  H180     1.0000 0.52310  0.27690  0.13590  Biso   1.000  H
  H181     1.0000 0.02310  0.22310  0.86410  Biso   1.000  H
  H182     1.0000 0.02310  0.72310  0.36410  Biso   1.000  H
  H183     1.0000 0.52310  0.22310  0.36410  Biso   1.000  H
  H184     1.0000 0.52310  0.72310  0.86410  Biso   1.000  H
  H185     1.0000 0.97690  0.77690  0.86410  Biso   1.000  H
  H186     1.0000 0.97690  0.27690  0.36410  Biso   1.000  H
  H187     1.0000 0.47690  0.77690  0.36410  Biso   1.000  H
  H188     1.0000 0.47690  0.27690  0.86410  Biso   1.000  H
  H189     1.0000 0.97690  0.22310  0.13590  Biso   1.000  H
  H190     1.0000 0.97690  0.72310  0.63590  Biso   1.000  H
  H191     1.0000 0.47690  0.22310  0.63590  Biso   1.000  H
  H192     1.0000 0.47690  0.72310  0.13590  Biso   1.000  H
  Zr1      1.0000 0.08251  0.50000  0.00000  Biso   1.000  Zr
  Zr2      1.0000 0.58251  0.50000  0.50000  Biso   1.000  Zr
  Zr3      1.0000 0.91749  0.50000  0.00000  Biso   1.000  Zr
  Zr4      1.0000 0.91749  0.00000  0.50000  Biso   1.000  Zr
  Zr5      1.0000 0.41749  0.50000  0.50000  Biso   1.000  Zr
  Zr6      1.0000 0.58251  0.00000  0.00000  Biso   1.000  Zr
  Zr7      1.0000 0.00000  0.08251  0.50000  Biso   1.000  Zr
  Zr8      1.0000 0.00000  0.58251  0.00000  Biso   1.000  Zr
  Zr9      1.0000 0.50000  0.58251  0.50000  Biso   1.000  Zr
  Zr10     1.0000 0.00000  0.91749  0.50000  Biso   1.000  Zr
  Zr11     1.0000 0.00000  0.41749  0.00000  Biso   1.000  Zr
  Zr12     1.0000 0.50000  0.08251  0.00000  Biso   1.000  Zr
  Zr13     1.0000 0.50000  0.00000  0.08251  Biso   1.000  Zr
  Zr14     1.0000 0.50000  0.50000  0.58251  Biso   1.000  Zr
  Zr15     1.0000 0.50000  0.00000  0.91749  Biso   1.000  Zr
  Zr16     1.0000 0.50000  0.50000  0.41749  Biso   1.000  Zr
  Zr17     1.0000 0.00000  0.50000  0.91749  Biso   1.000  Zr
  Zr18     1.0000 0.00000  0.00000  0.58251  Biso   1.000  Zr
  Zr19     1.0000 0.50000  0.91749  0.00000  Biso   1.000  Zr
  Zr20     1.0000 0.50000  0.41749  0.50000  Biso   1.000  Zr
  Zr21     1.0000 0.08251  0.00000  0.50000  Biso   1.000  Zr
  Zr22     1.0000 0.41749  0.00000  0.00000  Biso   1.000  Zr
  Zr23     1.0000 0.00000  0.00000  0.41749  Biso   1.000  Zr
  Zr24     1.0000 0.00000  0.50000  0.08251  Biso   1.000  Zr
  O1       1.0000 0.11965  0.43630  0.00000  Biso   1.000  O
  C1       1.0000 0.12860  0.31620  0.00000  Biso   1.000  C
  H193     1.0000 0.09840  0.30810  0.00000  Biso   1.000  H
  C2       1.0000 0.16040  0.28330  0.00000  Biso   1.000  C
  C3       1.0000 0.22910  0.24830  0.00000  Biso   1.000  C
  H194     1.0000 0.21190  0.22130  0.00000  Biso   1.000  H
  N1       1.0000 0.14410  0.23670  0.00000  Biso   1.000  N
  O2       1.0000 0.11965  0.93630  0.50000  Biso   1.000  O
  C4       1.0000 0.12860  0.81620  0.50000  Biso   1.000  C
  H195     1.0000 0.09840  0.80810  0.50000  Biso   1.000  H
  C5       1.0000 0.16040  0.78330  0.50000  Biso   1.000  C
  C6       1.0000 0.22910  0.74830  0.50000  Biso   1.000  C
  H196     1.0000 0.21190  0.72130  0.50000  Biso   1.000  H
  N2       1.0000 0.14410  0.73670  0.50000  Biso   1.000  N
  O3       1.0000 0.61965  0.43630  0.50000  Biso   1.000  O
  C7       1.0000 0.62860  0.31620  0.50000  Biso   1.000  C
  H197     1.0000 0.59840  0.30810  0.50000  Biso   1.000  H
  C8       1.0000 0.66040  0.28330  0.50000  Biso   1.000  C
  C9       1.0000 0.72910  0.24830  0.50000  Biso   1.000  C
  H198     1.0000 0.71190  0.22130  0.50000  Biso   1.000  H
  N3       1.0000 0.64410  0.23670  0.50000  Biso   1.000  N
  O4       1.0000 0.61965  0.93630  0.00000  Biso   1.000  O
  C10      1.0000 0.62860  0.81620  0.00000  Biso   1.000  C
  H199     1.0000 0.59840  0.80810  0.00000  Biso   1.000  H
  C11      1.0000 0.66040  0.78330  0.00000  Biso   1.000  C
  C12      1.0000 0.72910  0.74830  0.00000  Biso   1.000  C
  H200     1.0000 0.71190  0.72130  0.00000  Biso   1.000  H
  N4       1.0000 0.64410  0.73670  0.00000  Biso   1.000  N
  O5       1.0000 0.88035  0.56370  0.00000  Biso   1.000  O
  C13      1.0000 0.87140  0.68380  0.00000  Biso   1.000  C
  H201     1.0000 0.90160  0.69190  0.00000  Biso   1.000  H
  C14      1.0000 0.83960  0.71670  0.00000  Biso   1.000  C
  C15      1.0000 0.77090  0.75170  0.00000  Biso   1.000  C
  H202     1.0000 0.78810  0.77870  0.00000  Biso   1.000  H
  N5       1.0000 0.85590  0.76330  0.00000  Biso   1.000  N
  O6       1.0000 0.88035  0.06370  0.50000  Biso   1.000  O
  C16      1.0000 0.87140  0.18380  0.50000  Biso   1.000  C
  H203     1.0000 0.90160  0.19190  0.50000  Biso   1.000  H
  C17      1.0000 0.83960  0.21670  0.50000  Biso   1.000  C
  C18      1.0000 0.77090  0.25170  0.50000  Biso   1.000  C
  H204     1.0000 0.78810  0.27870  0.50000  Biso   1.000  H
  N6       1.0000 0.85590  0.26330  0.50000  Biso   1.000  N
  O7       1.0000 0.38035  0.56370  0.50000  Biso   1.000  O
  C19      1.0000 0.37140  0.68380  0.50000  Biso   1.000  C
  H205     1.0000 0.40160  0.69190  0.50000  Biso   1.000  H
  C20      1.0000 0.33960  0.71670  0.50000  Biso   1.000  C
  C21      1.0000 0.27090  0.75170  0.50000  Biso   1.000  C
  H206     1.0000 0.28810  0.77870  0.50000  Biso   1.000  H
  N7       1.0000 0.35590  0.76330  0.50000  Biso   1.000  N
  O8       1.0000 0.38035  0.06370  0.00000  Biso   1.000  O
  C22      1.0000 0.37140  0.18380  0.00000  Biso   1.000  C
  H207     1.0000 0.40160  0.19190  0.00000  Biso   1.000  H
  C23      1.0000 0.33960  0.21670  0.00000  Biso   1.000  C
  C24      1.0000 0.27090  0.25170  0.00000  Biso   1.000  C
  H208     1.0000 0.28810  0.27870  0.00000  Biso   1.000  H
  N8       1.0000 0.35590  0.26330  0.00000  Biso   1.000  N
  O9       1.0000 0.88035  0.43630  0.00000  Biso   1.000  O
  C25      1.0000 0.87140  0.31620  0.00000  Biso   1.000  C
  H209     1.0000 0.90160  0.30810  0.00000  Biso   1.000  H
  C26      1.0000 0.83960  0.28330  0.00000  Biso   1.000  C
  C27      1.0000 0.77090  0.24830  0.00000  Biso   1.000  C
  H210     1.0000 0.78810  0.22130  0.00000  Biso   1.000  H
  N9       1.0000 0.85590  0.23670  0.00000  Biso   1.000  N
  O10      1.0000 0.88035  0.93630  0.50000  Biso   1.000  O
  C28      1.0000 0.87140  0.81620  0.50000  Biso   1.000  C
  H211     1.0000 0.90160  0.80810  0.50000  Biso   1.000  H
  C29      1.0000 0.83960  0.78330  0.50000  Biso   1.000  C
  C30      1.0000 0.77090  0.74830  0.50000  Biso   1.000  C
  H212     1.0000 0.78810  0.72130  0.50000  Biso   1.000  H
  N10      1.0000 0.85590  0.73670  0.50000  Biso   1.000  N
  O11      1.0000 0.38035  0.43630  0.50000  Biso   1.000  O
  C31      1.0000 0.37140  0.31620  0.50000  Biso   1.000  C
  H213     1.0000 0.40160  0.30810  0.50000  Biso   1.000  H
  C32      1.0000 0.33960  0.28330  0.50000  Biso   1.000  C
  C33      1.0000 0.27090  0.24830  0.50000  Biso   1.000  C
  H214     1.0000 0.28810  0.22130  0.50000  Biso   1.000  H
  N11      1.0000 0.35590  0.23670  0.50000  Biso   1.000  N
  O12      1.0000 0.38035  0.93630  0.00000  Biso   1.000  O
  C34      1.0000 0.37140  0.81620  0.00000  Biso   1.000  C
  H215     1.0000 0.40160  0.80810  0.00000  Biso   1.000  H
  C35      1.0000 0.33960  0.78330  0.00000  Biso   1.000  C
  C36      1.0000 0.27090  0.74830  0.00000  Biso   1.000  C
  H216     1.0000 0.28810  0.72130  0.00000  Biso   1.000  H
  N12      1.0000 0.35590  0.73670  0.00000  Biso   1.000  N
  O13      1.0000 0.11965  0.56370  0.00000  Biso   1.000  O
  C37      1.0000 0.12860  0.68380  0.00000  Biso   1.000  C
  H217     1.0000 0.09840  0.69190  0.00000  Biso   1.000  H
  C38      1.0000 0.16040  0.71670  0.00000  Biso   1.000  C
  C39      1.0000 0.22910  0.75170  0.00000  Biso   1.000  C
  H218     1.0000 0.21190  0.77870  0.00000  Biso   1.000  H
  N13      1.0000 0.14410  0.76330  0.00000  Biso   1.000  N
  O14      1.0000 0.11965  0.06370  0.50000  Biso   1.000  O
  C40      1.0000 0.12860  0.18380  0.50000  Biso   1.000  C
  H219     1.0000 0.09840  0.19190  0.50000  Biso   1.000  H
  C41      1.0000 0.16040  0.21670  0.50000  Biso   1.000  C
  C42      1.0000 0.22910  0.25170  0.50000  Biso   1.000  C
  H220     1.0000 0.21190  0.27870  0.50000  Biso   1.000  H
  N14      1.0000 0.14410  0.26330  0.50000  Biso   1.000  N
  O15      1.0000 0.61965  0.56370  0.50000  Biso   1.000  O
  C43      1.0000 0.62860  0.68380  0.50000  Biso   1.000  C
  H221     1.0000 0.59840  0.69190  0.50000  Biso   1.000  H
  C44      1.0000 0.66040  0.71670  0.50000  Biso   1.000  C
  C45      1.0000 0.72910  0.75170  0.50000  Biso   1.000  C
  H222     1.0000 0.71190  0.77870  0.50000  Biso   1.000  H
  N15      1.0000 0.64410  0.76330  0.50000  Biso   1.000  N
  O16      1.0000 0.61965  0.06370  0.00000  Biso   1.000  O
  C46      1.0000 0.62860  0.18380  0.00000  Biso   1.000  C
  H223     1.0000 0.59840  0.19190  0.00000  Biso   1.000  H
  C47      1.0000 0.66040  0.21670  0.00000  Biso   1.000  C
  C48      1.0000 0.72910  0.25170  0.00000  Biso   1.000  C
  H224     1.0000 0.71190  0.27870  0.00000  Biso   1.000  H
  N16      1.0000 0.64410  0.26330  0.00000  Biso   1.000  N
  O17      1.0000 0.00000  0.11965  0.43630  Biso   1.000  O
  C49      1.0000 0.00000  0.12860  0.31620  Biso   1.000  C
  H225     1.0000 0.00000  0.09840  0.30810  Biso   1.000  H
  C50      1.0000 0.00000  0.16040  0.28330  Biso   1.000  C
  C51      1.0000 0.00000  0.22910  0.24830  Biso   1.000  C
  H226     1.0000 0.00000  0.21190  0.22130  Biso   1.000  H
  N17      1.0000 0.00000  0.14410  0.23670  Biso   1.000  N
  O18      1.0000 0.00000  0.61965  0.93630  Biso   1.000  O
  C52      1.0000 0.00000  0.62860  0.81620  Biso   1.000  C
  H227     1.0000 0.00000  0.59840  0.80810  Biso   1.000  H
  C53      1.0000 0.00000  0.66040  0.78330  Biso   1.000  C
  C54      1.0000 0.00000  0.72910  0.74830  Biso   1.000  C
  H228     1.0000 0.00000  0.71190  0.72130  Biso   1.000  H
  N18      1.0000 0.00000  0.64410  0.73670  Biso   1.000  N
  O19      1.0000 0.50000  0.11965  0.93630  Biso   1.000  O
  C55      1.0000 0.50000  0.12860  0.81620  Biso   1.000  C
  H229     1.0000 0.50000  0.09840  0.80810  Biso   1.000  H
  C56      1.0000 0.50000  0.16040  0.78330  Biso   1.000  C
  C57      1.0000 0.50000  0.22910  0.74830  Biso   1.000  C
  H230     1.0000 0.50000  0.21190  0.72130  Biso   1.000  H
  N19      1.0000 0.50000  0.14410  0.73670  Biso   1.000  N
  O20      1.0000 0.50000  0.61965  0.43630  Biso   1.000  O
  C58      1.0000 0.50000  0.62860  0.31620  Biso   1.000  C
  H231     1.0000 0.50000  0.59840  0.30810  Biso   1.000  H
  C59      1.0000 0.50000  0.66040  0.28330  Biso   1.000  C
  C60      1.0000 0.50000  0.72910  0.24830  Biso   1.000  C
  H232     1.0000 0.50000  0.71190  0.22130  Biso   1.000  H
  N20      1.0000 0.50000  0.64410  0.23670  Biso   1.000  N
  O21      1.0000 0.00000  0.88035  0.56370  Biso   1.000  O
  C61      1.0000 0.00000  0.87140  0.68380  Biso   1.000  C
  H233     1.0000 0.00000  0.90160  0.69190  Biso   1.000  H
  C62      1.0000 0.00000  0.83960  0.71670  Biso   1.000  C
  C63      1.0000 0.00000  0.77090  0.75170  Biso   1.000  C
  H234     1.0000 0.00000  0.78810  0.77870  Biso   1.000  H
  N21      1.0000 0.00000  0.85590  0.76330  Biso   1.000  N
  O22      1.0000 0.00000  0.38035  0.06370  Biso   1.000  O
  C64      1.0000 0.00000  0.37140  0.18380  Biso   1.000  C
  H235     1.0000 0.00000  0.40160  0.19190  Biso   1.000  H
  C65      1.0000 0.00000  0.33960  0.21670  Biso   1.000  C
  C66      1.0000 0.00000  0.27090  0.25170  Biso   1.000  C
  H236     1.0000 0.00000  0.28810  0.27870  Biso   1.000  H
  N22      1.0000 0.00000  0.35590  0.26330  Biso   1.000  N
  O23      1.0000 0.50000  0.88035  0.06370  Biso   1.000  O
  C67      1.0000 0.50000  0.87140  0.18380  Biso   1.000  C
  H237     1.0000 0.50000  0.90160  0.19190  Biso   1.000  H
  C68      1.0000 0.50000  0.83960  0.21670  Biso   1.000  C
  C69      1.0000 0.50000  0.77090  0.25170  Biso   1.000  C
  H238     1.0000 0.50000  0.78810  0.27870  Biso   1.000  H
  N23      1.0000 0.50000  0.85590  0.26330  Biso   1.000  N
  O24      1.0000 0.50000  0.38035  0.56370  Biso   1.000  O
  C70      1.0000 0.50000  0.37140  0.68380  Biso   1.000  C
  H239     1.0000 0.50000  0.40160  0.69190  Biso   1.000  H
  C71      1.0000 0.50000  0.33960  0.71670  Biso   1.000  C
  C72      1.0000 0.50000  0.27090  0.75170  Biso   1.000  C
  H240     1.0000 0.50000  0.28810  0.77870  Biso   1.000  H
  N24      1.0000 0.50000  0.35590  0.76330  Biso   1.000  N
  O25      1.0000 0.00000  0.88035  0.43630  Biso   1.000  O
  C73      1.0000 0.00000  0.87140  0.31620  Biso   1.000  C
  H241     1.0000 0.00000  0.90160  0.30810  Biso   1.000  H
  C74      1.0000 0.00000  0.83960  0.28330  Biso   1.000  C
  C75      1.0000 0.00000  0.77090  0.24830  Biso   1.000  C
  H242     1.0000 0.00000  0.78810  0.22130  Biso   1.000  H
  N25      1.0000 0.00000  0.85590  0.23670  Biso   1.000  N
  O26      1.0000 0.00000  0.38035  0.93630  Biso   1.000  O
  C76      1.0000 0.00000  0.37140  0.81620  Biso   1.000  C
  H243     1.0000 0.00000  0.40160  0.80810  Biso   1.000  H
  C77      1.0000 0.00000  0.33960  0.78330  Biso   1.000  C
  C78      1.0000 0.00000  0.27090  0.74830  Biso   1.000  C
  H244     1.0000 0.00000  0.28810  0.72130  Biso   1.000  H
  N26      1.0000 0.00000  0.35590  0.73670  Biso   1.000  N
  O27      1.0000 0.50000  0.88035  0.93630  Biso   1.000  O
  C79      1.0000 0.50000  0.87140  0.81620  Biso   1.000  C
  H245     1.0000 0.50000  0.90160  0.80810  Biso   1.000  H
  C80      1.0000 0.50000  0.83960  0.78330  Biso   1.000  C
  C81      1.0000 0.50000  0.77090  0.74830  Biso   1.000  C
  H246     1.0000 0.50000  0.78810  0.72130  Biso   1.000  H
  N27      1.0000 0.50000  0.85590  0.73670  Biso   1.000  N
  O28      1.0000 0.50000  0.38035  0.43630  Biso   1.000  O
  C82      1.0000 0.50000  0.37140  0.31620  Biso   1.000  C
  H247     1.0000 0.50000  0.40160  0.30810  Biso   1.000  H
  C83      1.0000 0.50000  0.33960  0.28330  Biso   1.000  C
  C84      1.0000 0.50000  0.27090  0.24830  Biso   1.000  C
  H248     1.0000 0.50000  0.28810  0.22130  Biso   1.000  H
  N28      1.0000 0.50000  0.35590  0.23670  Biso   1.000  N
  O29      1.0000 0.00000  0.11965  0.56370  Biso   1.000  O
  C85      1.0000 0.00000  0.12860  0.68380  Biso   1.000  C
  H249     1.0000 0.00000  0.09840  0.69190  Biso   1.000  H
  C86      1.0000 0.00000  0.16040  0.71670  Biso   1.000  C
  C87      1.0000 0.00000  0.22910  0.75170  Biso   1.000  C
  H250     1.0000 0.00000  0.21190  0.77870  Biso   1.000  H
  N29      1.0000 0.00000  0.14410  0.76330  Biso   1.000  N
  O30      1.0000 0.00000  0.61965  0.06370  Biso   1.000  O
  C88      1.0000 0.00000  0.62860  0.18380  Biso   1.000  C
  H251     1.0000 0.00000  0.59840  0.19190  Biso   1.000  H
  C89      1.0000 0.00000  0.66040  0.21670  Biso   1.000  C
  C90      1.0000 0.00000  0.72910  0.25170  Biso   1.000  C
  H252     1.0000 0.00000  0.71190  0.27870  Biso   1.000  H
  N30      1.0000 0.00000  0.64410  0.26330  Biso   1.000  N
  O31      1.0000 0.50000  0.11965  0.06370  Biso   1.000  O
  C91      1.0000 0.50000  0.12860  0.18380  Biso   1.000  C
  H253     1.0000 0.50000  0.09840  0.19190  Biso   1.000  H
  C92      1.0000 0.50000  0.16040  0.21670  Biso   1.000  C
  C93      1.0000 0.50000  0.22910  0.25170  Biso   1.000  C
  H254     1.0000 0.50000  0.21190  0.27870  Biso   1.000  H
  N31      1.0000 0.50000  0.14410  0.26330  Biso   1.000  N
  O32      1.0000 0.50000  0.61965  0.56370  Biso   1.000  O
  C94      1.0000 0.50000  0.62860  0.68380  Biso   1.000  C
  H255     1.0000 0.50000  0.59840  0.69190  Biso   1.000  H
  C95      1.0000 0.50000  0.66040  0.71670  Biso   1.000  C
  C96      1.0000 0.50000  0.72910  0.75170  Biso   1.000  C
  H256     1.0000 0.50000  0.71190  0.77870  Biso   1.000  H
  N32      1.0000 0.50000  0.64410  0.76330  Biso   1.000  N
  O33      1.0000 0.43630  0.00000  0.11965  Biso   1.000  O
  C97      1.0000 0.31620  0.00000  0.12860  Biso   1.000  C
  H257     1.0000 0.30810  0.00000  0.09840  Biso   1.000  H
  C98      1.0000 0.28330  0.00000  0.16040  Biso   1.000  C
  C99      1.0000 0.24830  0.00000  0.22910  Biso   1.000  C
  H258     1.0000 0.22130  0.00000  0.21190  Biso   1.000  H
  N33      1.0000 0.23670  0.00000  0.14410  Biso   1.000  N
  O34      1.0000 0.43630  0.50000  0.61965  Biso   1.000  O
  C100     1.0000 0.31620  0.50000  0.62860  Biso   1.000  C
  H259     1.0000 0.30810  0.50000  0.59840  Biso   1.000  H
  C101     1.0000 0.28330  0.50000  0.66040  Biso   1.000  C
  C102     1.0000 0.24830  0.50000  0.72910  Biso   1.000  C
  H260     1.0000 0.22130  0.50000  0.71190  Biso   1.000  H
  N34      1.0000 0.23670  0.50000  0.64410  Biso   1.000  N
  O35      1.0000 0.93630  0.00000  0.61965  Biso   1.000  O
  C103     1.0000 0.81620  0.00000  0.62860  Biso   1.000  C
  H261     1.0000 0.80810  0.00000  0.59840  Biso   1.000  H
  C104     1.0000 0.78330  0.00000  0.66040  Biso   1.000  C
  C105     1.0000 0.74830  0.00000  0.72910  Biso   1.000  C
  H262     1.0000 0.72130  0.00000  0.71190  Biso   1.000  H
  N35      1.0000 0.73670  0.00000  0.64410  Biso   1.000  N
  O36      1.0000 0.93630  0.50000  0.11965  Biso   1.000  O
  C106     1.0000 0.81620  0.50000  0.12860  Biso   1.000  C
  H263     1.0000 0.80810  0.50000  0.09840  Biso   1.000  H
  C107     1.0000 0.78330  0.50000  0.16040  Biso   1.000  C
  C108     1.0000 0.74830  0.50000  0.22910  Biso   1.000  C
  H264     1.0000 0.72130  0.50000  0.21190  Biso   1.000  H
  N36      1.0000 0.73670  0.50000  0.14410  Biso   1.000  N
  O37      1.0000 0.56370  0.00000  0.88035  Biso   1.000  O
  C109     1.0000 0.68380  0.00000  0.87140  Biso   1.000  C
  H265     1.0000 0.69190  0.00000  0.90160  Biso   1.000  H
  C110     1.0000 0.71670  0.00000  0.83960  Biso   1.000  C
  C111     1.0000 0.75170  0.00000  0.77090  Biso   1.000  C
  H266     1.0000 0.77870  0.00000  0.78810  Biso   1.000  H
  N37      1.0000 0.76330  0.00000  0.85590  Biso   1.000  N
  O38      1.0000 0.56370  0.50000  0.38035  Biso   1.000  O
  C112     1.0000 0.68380  0.50000  0.37140  Biso   1.000  C
  H267     1.0000 0.69190  0.50000  0.40160  Biso   1.000  H
  C113     1.0000 0.71670  0.50000  0.33960  Biso   1.000  C
  C114     1.0000 0.75170  0.50000  0.27090  Biso   1.000  C
  H268     1.0000 0.77870  0.50000  0.28810  Biso   1.000  H
  N38      1.0000 0.76330  0.50000  0.35590  Biso   1.000  N
  O39      1.0000 0.06370  0.00000  0.38035  Biso   1.000  O
  C115     1.0000 0.18380  0.00000  0.37140  Biso   1.000  C
  H269     1.0000 0.19190  0.00000  0.40160  Biso   1.000  H
  C116     1.0000 0.21670  0.00000  0.33960  Biso   1.000  C
  C117     1.0000 0.25170  0.00000  0.27090  Biso   1.000  C
  H270     1.0000 0.27870  0.00000  0.28810  Biso   1.000  H
  N39      1.0000 0.26330  0.00000  0.35590  Biso   1.000  N
  O40      1.0000 0.06370  0.50000  0.88035  Biso   1.000  O
  C118     1.0000 0.18380  0.50000  0.87140  Biso   1.000  C
  H271     1.0000 0.19190  0.50000  0.90160  Biso   1.000  H
  C119     1.0000 0.21670  0.50000  0.83960  Biso   1.000  C
  C120     1.0000 0.25170  0.50000  0.77090  Biso   1.000  C
  H272     1.0000 0.27870  0.50000  0.78810  Biso   1.000  H
  N40      1.0000 0.26330  0.50000  0.85590  Biso   1.000  N
  O41      1.0000 0.43630  0.00000  0.88035  Biso   1.000  O
  C121     1.0000 0.31620  0.00000  0.87140  Biso   1.000  C
  H273     1.0000 0.30810  0.00000  0.90160  Biso   1.000  H
  C122     1.0000 0.28330  0.00000  0.83960  Biso   1.000  C
  C123     1.0000 0.24830  0.00000  0.77090  Biso   1.000  C
  H274     1.0000 0.22130  0.00000  0.78810  Biso   1.000  H
  N41      1.0000 0.23670  0.00000  0.85590  Biso   1.000  N
  O42      1.0000 0.43630  0.50000  0.38035  Biso   1.000  O
  C124     1.0000 0.31620  0.50000  0.37140  Biso   1.000  C
  H275     1.0000 0.30810  0.50000  0.40160  Biso   1.000  H
  C125     1.0000 0.28330  0.50000  0.33960  Biso   1.000  C
  C126     1.0000 0.24830  0.50000  0.27090  Biso   1.000  C
  H276     1.0000 0.22130  0.50000  0.28810  Biso   1.000  H
  N42      1.0000 0.23670  0.50000  0.35590  Biso   1.000  N
  O43      1.0000 0.93630  0.00000  0.38035  Biso   1.000  O
  C127     1.0000 0.81620  0.00000  0.37140  Biso   1.000  C
  H277     1.0000 0.80810  0.00000  0.40160  Biso   1.000  H
  C128     1.0000 0.78330  0.00000  0.33960  Biso   1.000  C
  C129     1.0000 0.74830  0.00000  0.27090  Biso   1.000  C
  H278     1.0000 0.72130  0.00000  0.28810  Biso   1.000  H
  N43      1.0000 0.73670  0.00000  0.35590  Biso   1.000  N
  O44      1.0000 0.93630  0.50000  0.88035  Biso   1.000  O
  C130     1.0000 0.81620  0.50000  0.87140  Biso   1.000  C
  H279     1.0000 0.80810  0.50000  0.90160  Biso   1.000  H
  C131     1.0000 0.78330  0.50000  0.83960  Biso   1.000  C
  C132     1.0000 0.74830  0.50000  0.77090  Biso   1.000  C
  H280     1.0000 0.72130  0.50000  0.78810  Biso   1.000  H
  N44      1.0000 0.73670  0.50000  0.85590  Biso   1.000  N
  O45      1.0000 0.56370  0.00000  0.11965  Biso   1.000  O
  C133     1.0000 0.68380  0.00000  0.12860  Biso   1.000  C
  H281     1.0000 0.69190  0.00000  0.09840  Biso   1.000  H
  C134     1.0000 0.71670  0.00000  0.16040  Biso   1.000  C
  C135     1.0000 0.75170  0.00000  0.22910  Biso   1.000  C
  H282     1.0000 0.77870  0.00000  0.21190  Biso   1.000  H
  N45      1.0000 0.76330  0.00000  0.14410  Biso   1.000  N
  O46      1.0000 0.56370  0.50000  0.61965  Biso   1.000  O
  C136     1.0000 0.68380  0.50000  0.62860  Biso   1.000  C
  H283     1.0000 0.69190  0.50000  0.59840  Biso   1.000  H
  C137     1.0000 0.71670  0.50000  0.66040  Biso   1.000  C
  C138     1.0000 0.75170  0.50000  0.72910  Biso   1.000  C
  H284     1.0000 0.77870  0.50000  0.71190  Biso   1.000  H
  N46      1.0000 0.76330  0.50000  0.64410  Biso   1.000  N
  O47      1.0000 0.06370  0.00000  0.61965  Biso   1.000  O
  C139     1.0000 0.18380  0.00000  0.62860  Biso   1.000  C
  H285     1.0000 0.19190  0.00000  0.59840  Biso   1.000  H
  C140     1.0000 0.21670  0.00000  0.66040  Biso   1.000  C
  C141     1.0000 0.25170  0.00000  0.72910  Biso   1.000  C
  H286     1.0000 0.27870  0.00000  0.71190  Biso   1.000  H
  N47      1.0000 0.26330  0.00000  0.64410  Biso   1.000  N
  O48      1.0000 0.06370  0.50000  0.11965  Biso   1.000  O
  C142     1.0000 0.18380  0.50000  0.12860  Biso   1.000  C
  H287     1.0000 0.19190  0.50000  0.09840  Biso   1.000  H
  C143     1.0000 0.21670  0.50000  0.16040  Biso   1.000  C
  C144     1.0000 0.25170  0.50000  0.22910  Biso   1.000  C
  H288     1.0000 0.27870  0.50000  0.21190  Biso   1.000  H
  N48      1.0000 0.26330  0.50000  0.14410  Biso   1.000  N
  O49      1.0000 0.43630  0.11965  0.00000  Biso   1.000  O
  C145     1.0000 0.31620  0.12860  0.00000  Biso   1.000  C
  H289     1.0000 0.30810  0.09840  0.00000  Biso   1.000  H
  C146     1.0000 0.28330  0.16040  0.00000  Biso   1.000  C
  C147     1.0000 0.24830  0.22910  0.00000  Biso   1.000  C
  H290     1.0000 0.22130  0.21190  0.00000  Biso   1.000  H
  N49      1.0000 0.23670  0.14410  0.00000  Biso   1.000  N
  O50      1.0000 0.43630  0.61965  0.50000  Biso   1.000  O
  C148     1.0000 0.31620  0.62860  0.50000  Biso   1.000  C
  H291     1.0000 0.30810  0.59840  0.50000  Biso   1.000  H
  C149     1.0000 0.28330  0.66040  0.50000  Biso   1.000  C
  C150     1.0000 0.24830  0.72910  0.50000  Biso   1.000  C
  H292     1.0000 0.22130  0.71190  0.50000  Biso   1.000  H
  N50      1.0000 0.23670  0.64410  0.50000  Biso   1.000  N
  O51      1.0000 0.93630  0.11965  0.50000  Biso   1.000  O
  C151     1.0000 0.81620  0.12860  0.50000  Biso   1.000  C
  H293     1.0000 0.80810  0.09840  0.50000  Biso   1.000  H
  C152     1.0000 0.78330  0.16040  0.50000  Biso   1.000  C
  C153     1.0000 0.74830  0.22910  0.50000  Biso   1.000  C
  H294     1.0000 0.72130  0.21190  0.50000  Biso   1.000  H
  N51      1.0000 0.73670  0.14410  0.50000  Biso   1.000  N
  O52      1.0000 0.93630  0.61965  0.00000  Biso   1.000  O
  C154     1.0000 0.81620  0.62860  0.00000  Biso   1.000  C
  H295     1.0000 0.80810  0.59840  0.00000  Biso   1.000  H
  C155     1.0000 0.78330  0.66040  0.00000  Biso   1.000  C
  C156     1.0000 0.74830  0.72910  0.00000  Biso   1.000  C
  H296     1.0000 0.72130  0.71190  0.00000  Biso   1.000  H
  N52      1.0000 0.73670  0.64410  0.00000  Biso   1.000  N
  O53      1.0000 0.56370  0.88035  0.00000  Biso   1.000  O
  C157     1.0000 0.68380  0.87140  0.00000  Biso   1.000  C
  H297     1.0000 0.69190  0.90160  0.00000  Biso   1.000  H
  C158     1.0000 0.71670  0.83960  0.00000  Biso   1.000  C
  C159     1.0000 0.75170  0.77090  0.00000  Biso   1.000  C
  H298     1.0000 0.77870  0.78810  0.00000  Biso   1.000  H
  N53      1.0000 0.76330  0.85590  0.00000  Biso   1.000  N
  O54      1.0000 0.56370  0.38035  0.50000  Biso   1.000  O
  C160     1.0000 0.68380  0.37140  0.50000  Biso   1.000  C
  H299     1.0000 0.69190  0.40160  0.50000  Biso   1.000  H
  C161     1.0000 0.71670  0.33960  0.50000  Biso   1.000  C
  C162     1.0000 0.75170  0.27090  0.50000  Biso   1.000  C
  H300     1.0000 0.77870  0.28810  0.50000  Biso   1.000  H
  N54      1.0000 0.76330  0.35590  0.50000  Biso   1.000  N
  O55      1.0000 0.06370  0.88035  0.50000  Biso   1.000  O
  C163     1.0000 0.18380  0.87140  0.50000  Biso   1.000  C
  H301     1.0000 0.19190  0.90160  0.50000  Biso   1.000  H
  C164     1.0000 0.21670  0.83960  0.50000  Biso   1.000  C
  C165     1.0000 0.25170  0.77090  0.50000  Biso   1.000  C
  H302     1.0000 0.27870  0.78810  0.50000  Biso   1.000  H
  N55      1.0000 0.26330  0.85590  0.50000  Biso   1.000  N
  O56      1.0000 0.06370  0.38035  0.00000  Biso   1.000  O
  C166     1.0000 0.18380  0.37140  0.00000  Biso   1.000  C
  H303     1.0000 0.19190  0.40160  0.00000  Biso   1.000  H
  C167     1.0000 0.21670  0.33960  0.00000  Biso   1.000  C
  C168     1.0000 0.25170  0.27090  0.00000  Biso   1.000  C
  H304     1.0000 0.27870  0.28810  0.00000  Biso   1.000  H
  N56      1.0000 0.26330  0.35590  0.00000  Biso   1.000  N
  O57      1.0000 0.43630  0.88035  0.00000  Biso   1.000  O
  C169     1.0000 0.31620  0.87140  0.00000  Biso   1.000  C
  H305     1.0000 0.30810  0.90160  0.00000  Biso   1.000  H
  C170     1.0000 0.28330  0.83960  0.00000  Biso   1.000  C
  C171     1.0000 0.24830  0.77090  0.00000  Biso   1.000  C
  H306     1.0000 0.22130  0.78810  0.00000  Biso   1.000  H
  N57      1.0000 0.23670  0.85590  0.00000  Biso   1.000  N
  O58      1.0000 0.43630  0.38035  0.50000  Biso   1.000  O
  C172     1.0000 0.31620  0.37140  0.50000  Biso   1.000  C
  H307     1.0000 0.30810  0.40160  0.50000  Biso   1.000  H
  C173     1.0000 0.28330  0.33960  0.50000  Biso   1.000  C
  C174     1.0000 0.24830  0.27090  0.50000  Biso   1.000  C
  H308     1.0000 0.22130  0.28810  0.50000  Biso   1.000  H
  N58      1.0000 0.23670  0.35590  0.50000  Biso   1.000  N
  O59      1.0000 0.93630  0.88035  0.50000  Biso   1.000  O
  C175     1.0000 0.81620  0.87140  0.50000  Biso   1.000  C
  H309     1.0000 0.80810  0.90160  0.50000  Biso   1.000  H
  C176     1.0000 0.78330  0.83960  0.50000  Biso   1.000  C
  C177     1.0000 0.74830  0.77090  0.50000  Biso   1.000  C
  H310     1.0000 0.72130  0.78810  0.50000  Biso   1.000  H
  N59      1.0000 0.73670  0.85590  0.50000  Biso   1.000  N
  O60      1.0000 0.93630  0.38035  0.00000  Biso   1.000  O
  C178     1.0000 0.81620  0.37140  0.00000  Biso   1.000  C
  H311     1.0000 0.80810  0.40160  0.00000  Biso   1.000  H
  C179     1.0000 0.78330  0.33960  0.00000  Biso   1.000  C
  C180     1.0000 0.74830  0.27090  0.00000  Biso   1.000  C
  H312     1.0000 0.72130  0.28810  0.00000  Biso   1.000  H
  N60      1.0000 0.73670  0.35590  0.00000  Biso   1.000  N
  O61      1.0000 0.56370  0.11965  0.00000  Biso   1.000  O
  C181     1.0000 0.68380  0.12860  0.00000  Biso   1.000  C
  H313     1.0000 0.69190  0.09840  0.00000  Biso   1.000  H
  C182     1.0000 0.71670  0.16040  0.00000  Biso   1.000  C
  C183     1.0000 0.75170  0.22910  0.00000  Biso   1.000  C
  H314     1.0000 0.77870  0.21190  0.00000  Biso   1.000  H
  N61      1.0000 0.76330  0.14410  0.00000  Biso   1.000  N
  O62      1.0000 0.56370  0.61965  0.50000  Biso   1.000  O
  C184     1.0000 0.68380  0.62860  0.50000  Biso   1.000  C
  H315     1.0000 0.69190  0.59840  0.50000  Biso   1.000  H
  C185     1.0000 0.71670  0.66040  0.50000  Biso   1.000  C
  C186     1.0000 0.75170  0.72910  0.50000  Biso   1.000  C
  H316     1.0000 0.77870  0.71190  0.50000  Biso   1.000  H
  N62      1.0000 0.76330  0.64410  0.50000  Biso   1.000  N
  O63      1.0000 0.06370  0.11965  0.50000  Biso   1.000  O
  C187     1.0000 0.18380  0.12860  0.50000  Biso   1.000  C
  H317     1.0000 0.19190  0.09840  0.50000  Biso   1.000  H
  C188     1.0000 0.21670  0.16040  0.50000  Biso   1.000  C
  C189     1.0000 0.25170  0.22910  0.50000  Biso   1.000  C
  H318     1.0000 0.27870  0.21190  0.50000  Biso   1.000  H
  N63      1.0000 0.26330  0.14410  0.50000  Biso   1.000  N
  O64      1.0000 0.06370  0.61965  0.00000  Biso   1.000  O
  C190     1.0000 0.18380  0.62860  0.00000  Biso   1.000  C
  H319     1.0000 0.19190  0.59840  0.00000  Biso   1.000  H
  C191     1.0000 0.21670  0.66040  0.00000  Biso   1.000  C
  C192     1.0000 0.25170  0.72910  0.00000  Biso   1.000  C
  H320     1.0000 0.27870  0.71190  0.00000  Biso   1.000  H
  N64      1.0000 0.26330  0.64410  0.00000  Biso   1.000  N
  O65      1.0000 0.11965  0.00000  0.56370  Biso   1.000  O
  C193     1.0000 0.12860  0.00000  0.68380  Biso   1.000  C
  H321     1.0000 0.09840  0.00000  0.69190  Biso   1.000  H
  C194     1.0000 0.16040  0.00000  0.71670  Biso   1.000  C
  C195     1.0000 0.22910  0.00000  0.75170  Biso   1.000  C
  H322     1.0000 0.21190  0.00000  0.77870  Biso   1.000  H
  N65      1.0000 0.14410  0.00000  0.76330  Biso   1.000  N
  O66      1.0000 0.11965  0.50000  0.06370  Biso   1.000  O
  C196     1.0000 0.12860  0.50000  0.18380  Biso   1.000  C
  H323     1.0000 0.09840  0.50000  0.19190  Biso   1.000  H
  C197     1.0000 0.16040  0.50000  0.21670  Biso   1.000  C
  C198     1.0000 0.22910  0.50000  0.25170  Biso   1.000  C
  H324     1.0000 0.21190  0.50000  0.27870  Biso   1.000  H
  N66      1.0000 0.14410  0.50000  0.26330  Biso   1.000  N
  O67      1.0000 0.61965  0.00000  0.06370  Biso   1.000  O
  C199     1.0000 0.62860  0.00000  0.18380  Biso   1.000  C
  H325     1.0000 0.59840  0.00000  0.19190  Biso   1.000  H
  C200     1.0000 0.66040  0.00000  0.21670  Biso   1.000  C
  C201     1.0000 0.72910  0.00000  0.25170  Biso   1.000  C
  H326     1.0000 0.71190  0.00000  0.27870  Biso   1.000  H
  N67      1.0000 0.64410  0.00000  0.26330  Biso   1.000  N
  O68      1.0000 0.61965  0.50000  0.56370  Biso   1.000  O
  C202     1.0000 0.62860  0.50000  0.68380  Biso   1.000  C
  H327     1.0000 0.59840  0.50000  0.69190  Biso   1.000  H
  C203     1.0000 0.66040  0.50000  0.71670  Biso   1.000  C
  C204     1.0000 0.72910  0.50000  0.75170  Biso   1.000  C
  H328     1.0000 0.71190  0.50000  0.77870  Biso   1.000  H
  N68      1.0000 0.64410  0.50000  0.76330  Biso   1.000  N
  O69      1.0000 0.88035  0.00000  0.43630  Biso   1.000  O
  C205     1.0000 0.87140  0.00000  0.31620  Biso   1.000  C
  H329     1.0000 0.90160  0.00000  0.30810  Biso   1.000  H
  C206     1.0000 0.83960  0.00000  0.28330  Biso   1.000  C
  C207     1.0000 0.77090  0.00000  0.24830  Biso   1.000  C
  H330     1.0000 0.78810  0.00000  0.22130  Biso   1.000  H
  N69      1.0000 0.85590  0.00000  0.23670  Biso   1.000  N
  O70      1.0000 0.88035  0.50000  0.93630  Biso   1.000  O
  C208     1.0000 0.87140  0.50000  0.81620  Biso   1.000  C
  H331     1.0000 0.90160  0.50000  0.80810  Biso   1.000  H
  C209     1.0000 0.83960  0.50000  0.78330  Biso   1.000  C
  C210     1.0000 0.77090  0.50000  0.74830  Biso   1.000  C
  H332     1.0000 0.78810  0.50000  0.72130  Biso   1.000  H
  N70      1.0000 0.85590  0.50000  0.73670  Biso   1.000  N
  O71      1.0000 0.38035  0.00000  0.93630  Biso   1.000  O
  C211     1.0000 0.37140  0.00000  0.81620  Biso   1.000  C
  H333     1.0000 0.40160  0.00000  0.80810  Biso   1.000  H
  C212     1.0000 0.33960  0.00000  0.78330  Biso   1.000  C
  C213     1.0000 0.27090  0.00000  0.74830  Biso   1.000  C
  H334     1.0000 0.28810  0.00000  0.72130  Biso   1.000  H
  N71      1.0000 0.35590  0.00000  0.73670  Biso   1.000  N
  O72      1.0000 0.38035  0.50000  0.43630  Biso   1.000  O
  C214     1.0000 0.37140  0.50000  0.31620  Biso   1.000  C
  H335     1.0000 0.40160  0.50000  0.30810  Biso   1.000  H
  C215     1.0000 0.33960  0.50000  0.28330  Biso   1.000  C
  C216     1.0000 0.27090  0.50000  0.24830  Biso   1.000  C
  H336     1.0000 0.28810  0.50000  0.22130  Biso   1.000  H
  N72      1.0000 0.35590  0.50000  0.23670  Biso   1.000  N
  O73      1.0000 0.88035  0.00000  0.56370  Biso   1.000  O
  C217     1.0000 0.87140  0.00000  0.68380  Biso   1.000  C
  H337     1.0000 0.90160  0.00000  0.69190  Biso   1.000  H
  C218     1.0000 0.83960  0.00000  0.71670  Biso   1.000  C
  C219     1.0000 0.77090  0.00000  0.75170  Biso   1.000  C
  H338     1.0000 0.78810  0.00000  0.77870  Biso   1.000  H
  N73      1.0000 0.85590  0.00000  0.76330  Biso   1.000  N
  O74      1.0000 0.88035  0.50000  0.06370  Biso   1.000  O
  C220     1.0000 0.87140  0.50000  0.18380  Biso   1.000  C
  H339     1.0000 0.90160  0.50000  0.19190  Biso   1.000  H
  C221     1.0000 0.83960  0.50000  0.21670  Biso   1.000  C
  C222     1.0000 0.77090  0.50000  0.25170  Biso   1.000  C
  H340     1.0000 0.78810  0.50000  0.27870  Biso   1.000  H
  N74      1.0000 0.85590  0.50000  0.26330  Biso   1.000  N
  O75      1.0000 0.38035  0.00000  0.06370  Biso   1.000  O
  C223     1.0000 0.37140  0.00000  0.18380  Biso   1.000  C
  H341     1.0000 0.40160  0.00000  0.19190  Biso   1.000  H
  C224     1.0000 0.33960  0.00000  0.21670  Biso   1.000  C
  C225     1.0000 0.27090  0.00000  0.25170  Biso   1.000  C
  H342     1.0000 0.28810  0.00000  0.27870  Biso   1.000  H
  N75      1.0000 0.35590  0.00000  0.26330  Biso   1.000  N
  O76      1.0000 0.38035  0.50000  0.56370  Biso   1.000  O
  C226     1.0000 0.37140  0.50000  0.68380  Biso   1.000  C
  H343     1.0000 0.40160  0.50000  0.69190  Biso   1.000  H
  C227     1.0000 0.33960  0.50000  0.71670  Biso   1.000  C
  C228     1.0000 0.27090  0.50000  0.75170  Biso   1.000  C
  H344     1.0000 0.28810  0.50000  0.77870  Biso   1.000  H
  N76      1.0000 0.35590  0.50000  0.76330  Biso   1.000  N
  O77      1.0000 0.11965  0.00000  0.43630  Biso   1.000  O
  C229     1.0000 0.12860  0.00000  0.31620  Biso   1.000  C
  H345     1.0000 0.09840  0.00000  0.30810  Biso   1.000  H
  C230     1.0000 0.16040  0.00000  0.28330  Biso   1.000  C
  C231     1.0000 0.22910  0.00000  0.24830  Biso   1.000  C
  H346     1.0000 0.21190  0.00000  0.22130  Biso   1.000  H
  N77      1.0000 0.14410  0.00000  0.23670  Biso   1.000  N
  O78      1.0000 0.11965  0.50000  0.93630  Biso   1.000  O
  C232     1.0000 0.12860  0.50000  0.81620  Biso   1.000  C
  H347     1.0000 0.09840  0.50000  0.80810  Biso   1.000  H
  C233     1.0000 0.16040  0.50000  0.78330  Biso   1.000  C
  C234     1.0000 0.22910  0.50000  0.74830  Biso   1.000  C
  H348     1.0000 0.21190  0.50000  0.72130  Biso   1.000  H
  N78      1.0000 0.14410  0.50000  0.73670  Biso   1.000  N
  O79      1.0000 0.61965  0.00000  0.93630  Biso   1.000  O
  C235     1.0000 0.62860  0.00000  0.81620  Biso   1.000  C
  H349     1.0000 0.59840  0.00000  0.80810  Biso   1.000  H
  C236     1.0000 0.66040  0.00000  0.78330  Biso   1.000  C
  C237     1.0000 0.72910  0.00000  0.74830  Biso   1.000  C
  H350     1.0000 0.71190  0.00000  0.72130  Biso   1.000  H
  N79      1.0000 0.64410  0.00000  0.73670  Biso   1.000  N
  O80      1.0000 0.61965  0.50000  0.43630  Biso   1.000  O
  C238     1.0000 0.62860  0.50000  0.31620  Biso   1.000  C
  H351     1.0000 0.59840  0.50000  0.30810  Biso   1.000  H
  C239     1.0000 0.66040  0.50000  0.28330  Biso   1.000  C
  C240     1.0000 0.72910  0.50000  0.24830  Biso   1.000  C
  H352     1.0000 0.71190  0.50000  0.22130  Biso   1.000  H
  N80      1.0000 0.64410  0.50000  0.23670  Biso   1.000  N
  O81      1.0000 0.00000  0.43630  0.88035  Biso   1.000  O
  C241     1.0000 0.00000  0.31620  0.87140  Biso   1.000  C
  H353     1.0000 0.00000  0.30810  0.90160  Biso   1.000  H
  C242     1.0000 0.00000  0.28330  0.83960  Biso   1.000  C
  C243     1.0000 0.00000  0.24830  0.77090  Biso   1.000  C
  H354     1.0000 0.00000  0.22130  0.78810  Biso   1.000  H
  N81      1.0000 0.00000  0.23670  0.85590  Biso   1.000  N
  O82      1.0000 0.00000  0.93630  0.38035  Biso   1.000  O
  C244     1.0000 0.00000  0.81620  0.37140  Biso   1.000  C
  H355     1.0000 0.00000  0.80810  0.40160  Biso   1.000  H
  C245     1.0000 0.00000  0.78330  0.33960  Biso   1.000  C
  C246     1.0000 0.00000  0.74830  0.27090  Biso   1.000  C
  H356     1.0000 0.00000  0.72130  0.28810  Biso   1.000  H
  N82      1.0000 0.00000  0.73670  0.35590  Biso   1.000  N
  O83      1.0000 0.50000  0.43630  0.38035  Biso   1.000  O
  C247     1.0000 0.50000  0.31620  0.37140  Biso   1.000  C
  H357     1.0000 0.50000  0.30810  0.40160  Biso   1.000  H
  C248     1.0000 0.50000  0.28330  0.33960  Biso   1.000  C
  C249     1.0000 0.50000  0.24830  0.27090  Biso   1.000  C
  H358     1.0000 0.50000  0.22130  0.28810  Biso   1.000  H
  N83      1.0000 0.50000  0.23670  0.35590  Biso   1.000  N
  O84      1.0000 0.50000  0.93630  0.88035  Biso   1.000  O
  C250     1.0000 0.50000  0.81620  0.87140  Biso   1.000  C
  H359     1.0000 0.50000  0.80810  0.90160  Biso   1.000  H
  C251     1.0000 0.50000  0.78330  0.83960  Biso   1.000  C
  C252     1.0000 0.50000  0.74830  0.77090  Biso   1.000  C
  H360     1.0000 0.50000  0.72130  0.78810  Biso   1.000  H
  N84      1.0000 0.50000  0.73670  0.85590  Biso   1.000  N
  O85      1.0000 0.00000  0.56370  0.11965  Biso   1.000  O
  C253     1.0000 0.00000  0.68380  0.12860  Biso   1.000  C
  H361     1.0000 0.00000  0.69190  0.09840  Biso   1.000  H
  C254     1.0000 0.00000  0.71670  0.16040  Biso   1.000  C
  C255     1.0000 0.00000  0.75170  0.22910  Biso   1.000  C
  H362     1.0000 0.00000  0.77870  0.21190  Biso   1.000  H
  N85      1.0000 0.00000  0.76330  0.14410  Biso   1.000  N
  O86      1.0000 0.00000  0.06370  0.61965  Biso   1.000  O
  C256     1.0000 0.00000  0.18380  0.62860  Biso   1.000  C
  H363     1.0000 0.00000  0.19190  0.59840  Biso   1.000  H
  C257     1.0000 0.00000  0.21670  0.66040  Biso   1.000  C
  C258     1.0000 0.00000  0.25170  0.72910  Biso   1.000  C
  H364     1.0000 0.00000  0.27870  0.71190  Biso   1.000  H
  N86      1.0000 0.00000  0.26330  0.64410  Biso   1.000  N
  O87      1.0000 0.50000  0.56370  0.61965  Biso   1.000  O
  C259     1.0000 0.50000  0.68380  0.62860  Biso   1.000  C
  H365     1.0000 0.50000  0.69190  0.59840  Biso   1.000  H
  C260     1.0000 0.50000  0.71670  0.66040  Biso   1.000  C
  C261     1.0000 0.50000  0.75170  0.72910  Biso   1.000  C
  H366     1.0000 0.50000  0.77870  0.71190  Biso   1.000  H
  N87      1.0000 0.50000  0.76330  0.64410  Biso   1.000  N
  O88      1.0000 0.50000  0.06370  0.11965  Biso   1.000  O
  C262     1.0000 0.50000  0.18380  0.12860  Biso   1.000  C
  H367     1.0000 0.50000  0.19190  0.09840  Biso   1.000  H
  C263     1.0000 0.50000  0.21670  0.16040  Biso   1.000  C
  C264     1.0000 0.50000  0.25170  0.22910  Biso   1.000  C
  H368     1.0000 0.50000  0.27870  0.21190  Biso   1.000  H
  N88      1.0000 0.50000  0.26330  0.14410  Biso   1.000  N
  O89      1.0000 0.00000  0.43630  0.11965  Biso   1.000  O
  C265     1.0000 0.00000  0.31620  0.12860  Biso   1.000  C
  H369     1.0000 0.00000  0.30810  0.09840  Biso   1.000  H
  C266     1.0000 0.00000  0.28330  0.16040  Biso   1.000  C
  C267     1.0000 0.00000  0.24830  0.22910  Biso   1.000  C
  H370     1.0000 0.00000  0.22130  0.21190  Biso   1.000  H
  N89      1.0000 0.00000  0.23670  0.14410  Biso   1.000  N
  O90      1.0000 0.00000  0.93630  0.61965  Biso   1.000  O
  C268     1.0000 0.00000  0.81620  0.62860  Biso   1.000  C
  H371     1.0000 0.00000  0.80810  0.59840  Biso   1.000  H
  C269     1.0000 0.00000  0.78330  0.66040  Biso   1.000  C
  C270     1.0000 0.00000  0.74830  0.72910  Biso   1.000  C
  H372     1.0000 0.00000  0.72130  0.71190  Biso   1.000  H
  N90      1.0000 0.00000  0.73670  0.64410  Biso   1.000  N
  O91      1.0000 0.50000  0.43630  0.61965  Biso   1.000  O
  C271     1.0000 0.50000  0.31620  0.62860  Biso   1.000  C
  H373     1.0000 0.50000  0.30810  0.59840  Biso   1.000  H
  C272     1.0000 0.50000  0.28330  0.66040  Biso   1.000  C
  C273     1.0000 0.50000  0.24830  0.72910  Biso   1.000  C
  H374     1.0000 0.50000  0.22130  0.71190  Biso   1.000  H
  N91      1.0000 0.50000  0.23670  0.64410  Biso   1.000  N
  O92      1.0000 0.50000  0.93630  0.11965  Biso   1.000  O
  C274     1.0000 0.50000  0.81620  0.12860  Biso   1.000  C
  H375     1.0000 0.50000  0.80810  0.09840  Biso   1.000  H
  C275     1.0000 0.50000  0.78330  0.16040  Biso   1.000  C
  C276     1.0000 0.50000  0.74830  0.22910  Biso   1.000  C
  H376     1.0000 0.50000  0.72130  0.21190  Biso   1.000  H
  N92      1.0000 0.50000  0.73670  0.14410  Biso   1.000  N
  O93      1.0000 0.00000  0.56370  0.88035  Biso   1.000  O
  C277     1.0000 0.00000  0.68380  0.87140  Biso   1.000  C
  H377     1.0000 0.00000  0.69190  0.90160  Biso   1.000  H
  C278     1.0000 0.00000  0.71670  0.83960  Biso   1.000  C
  C279     1.0000 0.00000  0.75170  0.77090  Biso   1.000  C
  H378     1.0000 0.00000  0.77870  0.78810  Biso   1.000  H
  N93      1.0000 0.00000  0.76330  0.85590  Biso   1.000  N
  O94      1.0000 0.00000  0.06370  0.38035  Biso   1.000  O
  C280     1.0000 0.00000  0.18380  0.37140  Biso   1.000  C
  H379     1.0000 0.00000  0.19190  0.40160  Biso   1.000  H
  C281     1.0000 0.00000  0.21670  0.33960  Biso   1.000  C
  C282     1.0000 0.00000  0.25170  0.27090  Biso   1.000  C
  H380     1.0000 0.00000  0.27870  0.28810  Biso   1.000  H
  N94      1.0000 0.00000  0.26330  0.35590  Biso   1.000  N
  O95      1.0000 0.50000  0.56370  0.38035  Biso   1.000  O
  C283     1.0000 0.50000  0.68380  0.37140  Biso   1.000  C
  H381     1.0000 0.50000  0.69190  0.40160  Biso   1.000  H
  C284     1.0000 0.50000  0.71670  0.33960  Biso   1.000  C
  C285     1.0000 0.50000  0.75170  0.27090  Biso   1.000  C
  H382     1.0000 0.50000  0.77870  0.28810  Biso   1.000  H
  N95      1.0000 0.50000  0.76330  0.35590  Biso   1.000  N
  O96      1.0000 0.50000  0.06370  0.88035  Biso   1.000  O
  C286     1.0000 0.50000  0.18380  0.87140  Biso   1.000  C
  H383     1.0000 0.50000  0.19190  0.90160  Biso   1.000  H
  C287     1.0000 0.50000  0.21670  0.83960  Biso   1.000  C
  C288     1.0000 0.50000  0.25170  0.77090  Biso   1.000  C
  H384     1.0000 0.50000  0.27870  0.78810  Biso   1.000  H
  N96      1.0000 0.50000  0.26330  0.85590  Biso   1.000  N
  O97      1.0000 0.04082  0.45918  0.04082  Biso   1.000  O
  O98      1.0000 0.95918  0.54082  0.04082  Biso   1.000  O
  O99      1.0000 0.45918  0.04082  0.04082  Biso   1.000  O
  O100     1.0000 0.95918  0.45918  0.95918  Biso   1.000  O
  O101     1.0000 0.45918  0.45918  0.45918  Biso   1.000  O
  O102     1.0000 0.04082  0.54082  0.95918  Biso   1.000  O
  O103     1.0000 0.04082  0.04082  0.45918  Biso   1.000  O
  O104     1.0000 0.04082  0.95918  0.54082  Biso   1.000  O
  O105     1.0000 0.95918  0.95918  0.45918  Biso   1.000  O
  O106     1.0000 0.95918  0.04082  0.54082  Biso   1.000  O
  O107     1.0000 0.45918  0.54082  0.54082  Biso   1.000  O
  O108     1.0000 0.54082  0.04082  0.95918  Biso   1.000  O
  O109     1.0000 0.54082  0.54082  0.45918  Biso   1.000  O
  O110     1.0000 0.45918  0.95918  0.95918  Biso   1.000  O
  O111     1.0000 0.54082  0.95918  0.04082  Biso   1.000  O
  O112     1.0000 0.54082  0.45918  0.54082  Biso   1.000  O
  O113     1.0000 0.45918  0.04082  0.95918  Biso   1.000  O
  O114     1.0000 0.45918  0.54082  0.45918  Biso   1.000  O
  O115     1.0000 0.54082  0.95918  0.95918  Biso   1.000  O
  O116     1.0000 0.54082  0.45918  0.45918  Biso   1.000  O
  O117     1.0000 0.04082  0.95918  0.45918  Biso   1.000  O
  O118     1.0000 0.04082  0.45918  0.95918  Biso   1.000  O
  O119     1.0000 0.45918  0.95918  0.04082  Biso   1.000  O
  O120     1.0000 0.45918  0.45918  0.54082  Biso   1.000  O
  O121     1.0000 0.54082  0.04082  0.04082  Biso   1.000  O
  O122     1.0000 0.54082  0.54082  0.54082  Biso   1.000  O
  O123     1.0000 0.04082  0.04082  0.54082  Biso   1.000  O
  O124     1.0000 0.95918  0.04082  0.45918  Biso   1.000  O
  O125     1.0000 0.95918  0.95918  0.54082  Biso   1.000  O
  O126     1.0000 0.95918  0.45918  0.04082  Biso   1.000  O
  O127     1.0000 0.04082  0.54082  0.04082  Biso   1.000  O
  O128     1.0000 0.95918  0.54082  0.95918  Biso   1.000  O
  C289     1.0000 0.10515  0.39485  0.00000  Biso   1.000  C
  C290     1.0000 0.13970  0.36030  0.00000  Biso   1.000  C
  C291     1.0000 0.20490  0.29510  0.00000  Biso   1.000  C
  C292     1.0000 0.10515  0.89485  0.50000  Biso   1.000  C
  C293     1.0000 0.13970  0.86030  0.50000  Biso   1.000  C
  C294     1.0000 0.20490  0.79510  0.50000  Biso   1.000  C
  C295     1.0000 0.89485  0.60515  0.00000  Biso   1.000  C
  C296     1.0000 0.86030  0.63970  0.00000  Biso   1.000  C
  C297     1.0000 0.79510  0.70490  0.00000  Biso   1.000  C
  C298     1.0000 0.89485  0.10515  0.50000  Biso   1.000  C
  C299     1.0000 0.86030  0.13970  0.50000  Biso   1.000  C
  C300     1.0000 0.79510  0.20490  0.50000  Biso   1.000  C
  C301     1.0000 0.39485  0.10515  0.00000  Biso   1.000  C
  C302     1.0000 0.36030  0.13970  0.00000  Biso   1.000  C
  C303     1.0000 0.29510  0.20490  0.00000  Biso   1.000  C
  C304     1.0000 0.89485  0.39485  0.00000  Biso   1.000  C
  C305     1.0000 0.86030  0.36030  0.00000  Biso   1.000  C
  C306     1.0000 0.79510  0.29510  0.00000  Biso   1.000  C
  C307     1.0000 0.89485  0.89485  0.50000  Biso   1.000  C
  C308     1.0000 0.86030  0.86030  0.50000  Biso   1.000  C
  C309     1.0000 0.79510  0.79510  0.50000  Biso   1.000  C
  C310     1.0000 0.39485  0.39485  0.50000  Biso   1.000  C
  C311     1.0000 0.36030  0.36030  0.50000  Biso   1.000  C
  C312     1.0000 0.29510  0.29510  0.50000  Biso   1.000  C
  C313     1.0000 0.10515  0.60515  0.00000  Biso   1.000  C
  C314     1.0000 0.13970  0.63970  0.00000  Biso   1.000  C
  C315     1.0000 0.20490  0.70490  0.00000  Biso   1.000  C
  C316     1.0000 0.10515  0.10515  0.50000  Biso   1.000  C
  C317     1.0000 0.13970  0.13970  0.50000  Biso   1.000  C
  C318     1.0000 0.20490  0.20490  0.50000  Biso   1.000  C
  C319     1.0000 0.00000  0.10515  0.39485  Biso   1.000  C
  C320     1.0000 0.00000  0.13970  0.36030  Biso   1.000  C
  C321     1.0000 0.00000  0.20490  0.29510  Biso   1.000  C
  C322     1.0000 0.50000  0.10515  0.89485  Biso   1.000  C
  C323     1.0000 0.50000  0.13970  0.86030  Biso   1.000  C
  C324     1.0000 0.50000  0.20490  0.79510  Biso   1.000  C
  C325     1.0000 0.00000  0.89485  0.60515  Biso   1.000  C
  C326     1.0000 0.00000  0.86030  0.63970  Biso   1.000  C
  C327     1.0000 0.00000  0.79510  0.70490  Biso   1.000  C
  C328     1.0000 0.00000  0.39485  0.10515  Biso   1.000  C
  C329     1.0000 0.00000  0.36030  0.13970  Biso   1.000  C
  C330     1.0000 0.00000  0.29510  0.20490  Biso   1.000  C
  C331     1.0000 0.50000  0.89485  0.10515  Biso   1.000  C
  C332     1.0000 0.50000  0.86030  0.13970  Biso   1.000  C
  C333     1.0000 0.50000  0.79510  0.20490  Biso   1.000  C
  C334     1.0000 0.00000  0.89485  0.39485  Biso   1.000  C
  C335     1.0000 0.00000  0.86030  0.36030  Biso   1.000  C
  C336     1.0000 0.00000  0.79510  0.29510  Biso   1.000  C
  C337     1.0000 0.50000  0.89485  0.89485  Biso   1.000  C
  C338     1.0000 0.50000  0.86030  0.86030  Biso   1.000  C
  C339     1.0000 0.50000  0.79510  0.79510  Biso   1.000  C
  C340     1.0000 0.50000  0.39485  0.39485  Biso   1.000  C
  C341     1.0000 0.50000  0.36030  0.36030  Biso   1.000  C
  C342     1.0000 0.50000  0.29510  0.29510  Biso   1.000  C
  C343     1.0000 0.00000  0.10515  0.60515  Biso   1.000  C
  C344     1.0000 0.00000  0.13970  0.63970  Biso   1.000  C
  C345     1.0000 0.00000  0.20490  0.70490  Biso   1.000  C
  C346     1.0000 0.50000  0.10515  0.10515  Biso   1.000  C
  C347     1.0000 0.50000  0.13970  0.13970  Biso   1.000  C
  C348     1.0000 0.50000  0.20490  0.20490  Biso   1.000  C
  C349     1.0000 0.39485  0.00000  0.10515  Biso   1.000  C
  C350     1.0000 0.36030  0.00000  0.13970  Biso   1.000  C
  C351     1.0000 0.29510  0.00000  0.20490  Biso   1.000  C
  C352     1.0000 0.39485  0.50000  0.60515  Biso   1.000  C
  C353     1.0000 0.36030  0.50000  0.63970  Biso   1.000  C
  C354     1.0000 0.29510  0.50000  0.70490  Biso   1.000  C
  C355     1.0000 0.60515  0.00000  0.89485  Biso   1.000  C
  C356     1.0000 0.63970  0.00000  0.86030  Biso   1.000  C
  C357     1.0000 0.70490  0.00000  0.79510  Biso   1.000  C
  C358     1.0000 0.60515  0.50000  0.39485  Biso   1.000  C
  C359     1.0000 0.63970  0.50000  0.36030  Biso   1.000  C
  C360     1.0000 0.70490  0.50000  0.29510  Biso   1.000  C
  C361     1.0000 0.10515  0.00000  0.39485  Biso   1.000  C
  C362     1.0000 0.13970  0.00000  0.36030  Biso   1.000  C
  C363     1.0000 0.20490  0.00000  0.29510  Biso   1.000  C
  C364     1.0000 0.39485  0.00000  0.89485  Biso   1.000  C
  C365     1.0000 0.36030  0.00000  0.86030  Biso   1.000  C
  C366     1.0000 0.29510  0.00000  0.79510  Biso   1.000  C
  C367     1.0000 0.39485  0.50000  0.39485  Biso   1.000  C
  C368     1.0000 0.36030  0.50000  0.36030  Biso   1.000  C
  C369     1.0000 0.29510  0.50000  0.29510  Biso   1.000  C
  C370     1.0000 0.60515  0.00000  0.10515  Biso   1.000  C
  C371     1.0000 0.63970  0.00000  0.13970  Biso   1.000  C
  C372     1.0000 0.70490  0.00000  0.20490  Biso   1.000  C
  C373     1.0000 0.60515  0.50000  0.60515  Biso   1.000  C
  C374     1.0000 0.63970  0.50000  0.63970  Biso   1.000  C
  C375     1.0000 0.70490  0.50000  0.70490  Biso   1.000  C
  C376     1.0000 0.10515  0.50000  0.10515  Biso   1.000  C
  C377     1.0000 0.13970  0.50000  0.13970  Biso   1.000  C
  C378     1.0000 0.20490  0.50000  0.20490  Biso   1.000  C
  C379     1.0000 0.39485  0.60515  0.50000  Biso   1.000  C
  C380     1.0000 0.36030  0.63970  0.50000  Biso   1.000  C
  C381     1.0000 0.29510  0.70490  0.50000  Biso   1.000  C
  C382     1.0000 0.60515  0.89485  0.00000  Biso   1.000  C
  C383     1.0000 0.63970  0.86030  0.00000  Biso   1.000  C
  C384     1.0000 0.70490  0.79510  0.00000  Biso   1.000  C
  C385     1.0000 0.60515  0.39485  0.50000  Biso   1.000  C
  C386     1.0000 0.63970  0.36030  0.50000  Biso   1.000  C
  C387     1.0000 0.70490  0.29510  0.50000  Biso   1.000  C
  C388     1.0000 0.39485  0.89485  0.00000  Biso   1.000  C
  C389     1.0000 0.36030  0.86030  0.00000  Biso   1.000  C
  C390     1.0000 0.29510  0.79510  0.00000  Biso   1.000  C
  C391     1.0000 0.60515  0.10515  0.00000  Biso   1.000  C
  C392     1.0000 0.63970  0.13970  0.00000  Biso   1.000  C
  C393     1.0000 0.70490  0.20490  0.00000  Biso   1.000  C
  C394     1.0000 0.60515  0.60515  0.50000  Biso   1.000  C
  C395     1.0000 0.63970  0.63970  0.50000  Biso   1.000  C
  C396     1.0000 0.70490  0.70490  0.50000  Biso   1.000  C
  C397     1.0000 0.10515  0.00000  0.60515  Biso   1.000  C
  C398     1.0000 0.13970  0.00000  0.63970  Biso   1.000  C
  C399     1.0000 0.20490  0.00000  0.70490  Biso   1.000  C
  C400     1.0000 0.89485  0.00000  0.39485  Biso   1.000  C
  C401     1.0000 0.86030  0.00000  0.36030  Biso   1.000  C
  C402     1.0000 0.79510  0.00000  0.29510  Biso   1.000  C
  C403     1.0000 0.89485  0.50000  0.89485  Biso   1.000  C
  C404     1.0000 0.86030  0.50000  0.86030  Biso   1.000  C
  C405     1.0000 0.79510  0.50000  0.79510  Biso   1.000  C
  C406     1.0000 0.89485  0.00000  0.60515  Biso   1.000  C
  C407     1.0000 0.86030  0.00000  0.63970  Biso   1.000  C
  C408     1.0000 0.79510  0.00000  0.70490  Biso   1.000  C
  C409     1.0000 0.89485  0.50000  0.10515  Biso   1.000  C
  C410     1.0000 0.86030  0.50000  0.13970  Biso   1.000  C
  C411     1.0000 0.79510  0.50000  0.20490  Biso   1.000  C
  C412     1.0000 0.10515  0.50000  0.89485  Biso   1.000  C
  C413     1.0000 0.13970  0.50000  0.86030  Biso   1.000  C
  C414     1.0000 0.20490  0.50000  0.79510  Biso   1.000  C
  C415     1.0000 0.00000  0.39485  0.89485  Biso   1.000  C
  C416     1.0000 0.00000  0.36030  0.86030  Biso   1.000  C
  C417     1.0000 0.00000  0.29510  0.79510  Biso   1.000  C
  C418     1.0000 0.00000  0.60515  0.10515  Biso   1.000  C
  C419     1.0000 0.00000  0.63970  0.13970  Biso   1.000  C
  C420     1.0000 0.00000  0.70490  0.20490  Biso   1.000  C
  C421     1.0000 0.50000  0.60515  0.60515  Biso   1.000  C
  C422     1.0000 0.50000  0.63970  0.63970  Biso   1.000  C
  C423     1.0000 0.50000  0.70490  0.70490  Biso   1.000  C
  C424     1.0000 0.50000  0.39485  0.60515  Biso   1.000  C
  C425     1.0000 0.50000  0.36030  0.63970  Biso   1.000  C
  C426     1.0000 0.50000  0.29510  0.70490  Biso   1.000  C
  C427     1.0000 0.00000  0.60515  0.89485  Biso   1.000  C
  C428     1.0000 0.00000  0.63970  0.86030  Biso   1.000  C
  C429     1.0000 0.00000  0.70490  0.79510  Biso   1.000  C
  C430     1.0000 0.50000  0.60515  0.39485  Biso   1.000  C
  C431     1.0000 0.50000  0.63970  0.36030  Biso   1.000  C
  C432     1.0000 0.50000  0.70490  0.29510  Biso   1.000  C
