data_image0
_cell_length_a       23.0299
_cell_length_b       23.0299
_cell_length_c       24.3973
_cell_angle_alpha    90
_cell_angle_beta     90
_cell_angle_gamma    90

_symmetry_space_group_name_H-M    "P 1"
_symmetry_int_tables_number       1

loop_
  _symmetry_equiv_pos_as_xyz
  'x, y, z'

loop_
  _atom_site_label
  _atom_site_occupancy
  _atom_site_fract_x
  _atom_site_fract_y
  _atom_site_fract_z
  _atom_site_thermal_displace_type
  _atom_site_B_iso_or_equiv
  _atom_site_type_symbol
  O1       1.0000 0.72890  0.51550  0.53950  Biso   1.000  O
  O2       1.0000 0.70840  0.43720  0.63440  Biso   1.000  O
  O3       1.0000 0.74830  0.38380  0.56770  Biso   1.000  O
  O4       1.0000 0.63610  0.54640  0.61990  Biso   1.000  O
  N1       1.0000 0.67710  0.09180  0.75720  Biso   1.000  N
  N2       1.0000 0.67900  0.18300  0.73460  Biso   1.000  N
  C1       1.0000 0.72460  0.39110  0.61330  Biso   1.000  C
  C2       1.0000 0.64410  0.17960  0.77650  Biso   1.000  C
  H1       1.0000 0.62410  0.20960  0.79370  Biso   1.000  H
  C3       1.0000 0.68940  0.23660  0.70490  Biso   1.000  C
  C4       1.0000 0.71240  0.33550  0.64580  Biso   1.000  C
  C5       1.0000 0.68250  0.33890  0.69380  Biso   1.000  C
  H2       1.0000 0.66970  0.37460  0.70700  Biso   1.000  H
  H3       1.0000 0.73230  0.62370  0.53310  Biso   1.000  H
  H4       1.0000 0.72840  0.62370  0.46900  Biso   1.000  H
  H5       1.0000 0.78920  0.62370  0.49790  Biso   1.000  H
  C6       1.0000 0.70000  0.12950  0.72340  Biso   1.000  C
  H6       1.0000 0.72660  0.12080  0.69590  Biso   1.000  H
  C7       1.0000 0.67140  0.28800  0.72260  Biso   1.000  C
  H7       1.0000 0.65080  0.29010  0.75540  Biso   1.000  H
  C8       1.0000 0.64360  0.12480  0.78880  Biso   1.000  C
  H8       1.0000 0.62160  0.10980  0.81740  Biso   1.000  H
  C9       1.0000 0.72200  0.23330  0.65760  Biso   1.000  C
  H9       1.0000 0.73680  0.19780  0.64590  Biso   1.000  H
  C10      1.0000 0.73240  0.28270  0.62800  Biso   1.000  C
  H10      1.0000 0.75330  0.28040  0.59540  Biso   1.000  H
  H11      1.0000 0.62230  0.68290  0.62910  Biso   1.000  H
  H12      1.0000 0.57820  0.63880  0.65490  Biso   1.000  H
  H13      1.0000 0.58360  0.64420  0.59100  Biso   1.000  H
  O5       1.0000 0.22890  0.01550  0.03950  Biso   1.000  O
  O6       1.0000 0.20840  0.93720  0.13440  Biso   1.000  O
  O7       1.0000 0.24830  0.88380  0.06770  Biso   1.000  O
  O8       1.0000 0.13610  0.04640  0.11990  Biso   1.000  O
  N3       1.0000 0.17710  0.59180  0.25720  Biso   1.000  N
  N4       1.0000 0.17900  0.68300  0.23460  Biso   1.000  N
  C11      1.0000 0.22460  0.89110  0.11330  Biso   1.000  C
  C12      1.0000 0.14410  0.67960  0.27650  Biso   1.000  C
  H14      1.0000 0.12410  0.70960  0.29370  Biso   1.000  H
  C13      1.0000 0.18940  0.73660  0.20490  Biso   1.000  C
  C14      1.0000 0.21240  0.83550  0.14580  Biso   1.000  C
  C15      1.0000 0.18250  0.83890  0.19380  Biso   1.000  C
  H15      1.0000 0.16970  0.87460  0.20700  Biso   1.000  H
  H16      1.0000 0.23230  0.12370  0.03310  Biso   1.000  H
  H17      1.0000 0.22840  0.12370  0.96900  Biso   1.000  H
  H18      1.0000 0.28920  0.12370  0.99790  Biso   1.000  H
  C16      1.0000 0.20000  0.62950  0.22340  Biso   1.000  C
  H19      1.0000 0.22660  0.62080  0.19590  Biso   1.000  H
  C17      1.0000 0.17140  0.78800  0.22260  Biso   1.000  C
  H20      1.0000 0.15080  0.79010  0.25540  Biso   1.000  H
  C18      1.0000 0.14360  0.62480  0.28880  Biso   1.000  C
  H21      1.0000 0.12160  0.60980  0.31740  Biso   1.000  H
  C19      1.0000 0.22200  0.73330  0.15760  Biso   1.000  C
  H22      1.0000 0.23680  0.69780  0.14590  Biso   1.000  H
  C20      1.0000 0.23240  0.78270  0.12800  Biso   1.000  C
  H23      1.0000 0.25330  0.78040  0.09540  Biso   1.000  H
  H24      1.0000 0.12230  0.18290  0.12910  Biso   1.000  H
  H25      1.0000 0.07820  0.13880  0.15490  Biso   1.000  H
  H26      1.0000 0.08360  0.14420  0.09100  Biso   1.000  H
  O9       1.0000 0.77110  0.48450  0.03950  Biso   1.000  O
  O10      1.0000 0.79160  0.56280  0.13440  Biso   1.000  O
  O11      1.0000 0.75170  0.61620  0.06770  Biso   1.000  O
  O12      1.0000 0.86390  0.45360  0.11990  Biso   1.000  O
  N5       1.0000 0.82290  0.90820  0.25720  Biso   1.000  N
  N6       1.0000 0.82100  0.81700  0.23460  Biso   1.000  N
  C21      1.0000 0.77540  0.60890  0.11330  Biso   1.000  C
  C22      1.0000 0.85590  0.82040  0.27650  Biso   1.000  C
  H27      1.0000 0.87590  0.79040  0.29370  Biso   1.000  H
  C23      1.0000 0.81060  0.76340  0.20490  Biso   1.000  C
  C24      1.0000 0.78760  0.66450  0.14580  Biso   1.000  C
  C25      1.0000 0.81750  0.66110  0.19380  Biso   1.000  C
  H28      1.0000 0.83030  0.62540  0.20700  Biso   1.000  H
  H29      1.0000 0.76770  0.37630  0.03310  Biso   1.000  H
  H30      1.0000 0.77160  0.37630  0.96900  Biso   1.000  H
  H31      1.0000 0.71080  0.37630  0.99790  Biso   1.000  H
  C26      1.0000 0.80000  0.87050  0.22340  Biso   1.000  C
  H32      1.0000 0.77340  0.87920  0.19590  Biso   1.000  H
  C27      1.0000 0.82860  0.71200  0.22260  Biso   1.000  C
  H33      1.0000 0.84920  0.70990  0.25540  Biso   1.000  H
  C28      1.0000 0.85640  0.87520  0.28880  Biso   1.000  C
  H34      1.0000 0.87840  0.89020  0.31740  Biso   1.000  H
  C29      1.0000 0.77800  0.76670  0.15760  Biso   1.000  C
  H35      1.0000 0.76320  0.80220  0.14590  Biso   1.000  H
  C30      1.0000 0.76760  0.71730  0.12800  Biso   1.000  C
  H36      1.0000 0.74670  0.71960  0.09540  Biso   1.000  H
  H37      1.0000 0.87770  0.31710  0.12910  Biso   1.000  H
  H38      1.0000 0.92180  0.36120  0.15490  Biso   1.000  H
  H39      1.0000 0.91640  0.35580  0.09100  Biso   1.000  H
  O13      1.0000 0.27110  0.98450  0.53950  Biso   1.000  O
  O14      1.0000 0.29160  0.06280  0.63440  Biso   1.000  O
  O15      1.0000 0.25170  0.11620  0.56770  Biso   1.000  O
  O16      1.0000 0.36390  0.95360  0.61990  Biso   1.000  O
  N7       1.0000 0.32290  0.40820  0.75720  Biso   1.000  N
  N8       1.0000 0.32100  0.31700  0.73460  Biso   1.000  N
  C31      1.0000 0.27540  0.10890  0.61330  Biso   1.000  C
  C32      1.0000 0.35590  0.32040  0.77650  Biso   1.000  C
  H40      1.0000 0.37590  0.29040  0.79370  Biso   1.000  H
  C33      1.0000 0.31060  0.26340  0.70490  Biso   1.000  C
  C34      1.0000 0.28760  0.16450  0.64580  Biso   1.000  C
  C35      1.0000 0.31750  0.16110  0.69380  Biso   1.000  C
  H41      1.0000 0.33030  0.12540  0.70700  Biso   1.000  H
  H42      1.0000 0.26770  0.87630  0.53310  Biso   1.000  H
  H43      1.0000 0.27160  0.87630  0.46900  Biso   1.000  H
  H44      1.0000 0.21080  0.87630  0.49790  Biso   1.000  H
  C36      1.0000 0.30000  0.37050  0.72340  Biso   1.000  C
  H45      1.0000 0.27340  0.37920  0.69590  Biso   1.000  H
  C37      1.0000 0.32860  0.21200  0.72260  Biso   1.000  C
  H46      1.0000 0.34920  0.20990  0.75540  Biso   1.000  H
  C38      1.0000 0.35640  0.37520  0.78880  Biso   1.000  C
  H47      1.0000 0.37840  0.39020  0.81740  Biso   1.000  H
  C39      1.0000 0.27800  0.26670  0.65760  Biso   1.000  C
  H48      1.0000 0.26320  0.30220  0.64590  Biso   1.000  H
  C40      1.0000 0.26760  0.21730  0.62800  Biso   1.000  C
  H49      1.0000 0.24670  0.21960  0.59540  Biso   1.000  H
  H50      1.0000 0.37770  0.81710  0.62910  Biso   1.000  H
  H51      1.0000 0.42180  0.86120  0.65490  Biso   1.000  H
  H52      1.0000 0.41640  0.85580  0.59100  Biso   1.000  H
  O17      1.0000 0.73450  0.47890  0.78950  Biso   1.000  O
  O18      1.0000 0.81280  0.45840  0.88440  Biso   1.000  O
  O19      1.0000 0.86620  0.49830  0.81770  Biso   1.000  O
  O20      1.0000 0.70360  0.38610  0.86990  Biso   1.000  O
  N9       1.0000 0.15820  0.42710  0.00720  Biso   1.000  N
  N10      1.0000 0.06700  0.42900  0.98460  Biso   1.000  N
  C41      1.0000 0.85890  0.47460  0.86330  Biso   1.000  C
  C42      1.0000 0.07040  0.39410  0.02650  Biso   1.000  C
  H53      1.0000 0.04040  0.37410  0.04370  Biso   1.000  H
  C43      1.0000 0.01340  0.43940  0.95490  Biso   1.000  C
  C44      1.0000 0.91450  0.46240  0.89580  Biso   1.000  C
  C45      1.0000 0.91110  0.43250  0.94380  Biso   1.000  C
  H54      1.0000 0.87540  0.41970  0.95700  Biso   1.000  H
  H55      1.0000 0.62630  0.48230  0.78310  Biso   1.000  H
  H56      1.0000 0.62630  0.47840  0.71900  Biso   1.000  H
  H57      1.0000 0.62630  0.53920  0.74790  Biso   1.000  H
  C46      1.0000 0.12050  0.45000  0.97340  Biso   1.000  C
  H58      1.0000 0.12920  0.47660  0.94590  Biso   1.000  H
  C47      1.0000 0.96200  0.42140  0.97260  Biso   1.000  C
  H59      1.0000 0.95990  0.40080  0.00540  Biso   1.000  H
  C48      1.0000 0.12520  0.39360  0.03880  Biso   1.000  C
  H60      1.0000 0.14020  0.37160  0.06740  Biso   1.000  H
  C49      1.0000 0.01670  0.47200  0.90760  Biso   1.000  C
  H61      1.0000 0.05220  0.48680  0.89590  Biso   1.000  H
  C50      1.0000 0.96730  0.48240  0.87800  Biso   1.000  C
  H62      1.0000 0.96960  0.50330  0.84540  Biso   1.000  H
  H63      1.0000 0.56710  0.37230  0.87910  Biso   1.000  H
  H64      1.0000 0.61120  0.32820  0.90490  Biso   1.000  H
  H65      1.0000 0.60580  0.33360  0.84100  Biso   1.000  H
  O21      1.0000 0.23450  0.97890  0.28950  Biso   1.000  O
  O22      1.0000 0.31280  0.95840  0.38440  Biso   1.000  O
  O23      1.0000 0.36620  0.99830  0.31770  Biso   1.000  O
  O24      1.0000 0.20360  0.88610  0.36990  Biso   1.000  O
  N11      1.0000 0.65820  0.92710  0.50720  Biso   1.000  N
  N12      1.0000 0.56700  0.92900  0.48460  Biso   1.000  N
  C51      1.0000 0.35890  0.97460  0.36330  Biso   1.000  C
  C52      1.0000 0.57040  0.89410  0.52650  Biso   1.000  C
  H66      1.0000 0.54040  0.87410  0.54370  Biso   1.000  H
  C53      1.0000 0.51340  0.93940  0.45490  Biso   1.000  C
  C54      1.0000 0.41450  0.96240  0.39580  Biso   1.000  C
  C55      1.0000 0.41110  0.93250  0.44380  Biso   1.000  C
  H67      1.0000 0.37540  0.91970  0.45700  Biso   1.000  H
  H68      1.0000 0.12630  0.98230  0.28310  Biso   1.000  H
  H69      1.0000 0.12630  0.97840  0.21900  Biso   1.000  H
  H70      1.0000 0.12630  0.03920  0.24790  Biso   1.000  H
  C56      1.0000 0.62050  0.95000  0.47340  Biso   1.000  C
  H71      1.0000 0.62920  0.97660  0.44590  Biso   1.000  H
  C57      1.0000 0.46200  0.92140  0.47260  Biso   1.000  C
  H72      1.0000 0.45990  0.90080  0.50540  Biso   1.000  H
  C58      1.0000 0.62520  0.89360  0.53880  Biso   1.000  C
  H73      1.0000 0.64020  0.87160  0.56740  Biso   1.000  H
  C59      1.0000 0.51670  0.97200  0.40760  Biso   1.000  C
  H74      1.0000 0.55220  0.98680  0.39590  Biso   1.000  H
  C60      1.0000 0.46730  0.98240  0.37800  Biso   1.000  C
  H75      1.0000 0.46960  0.00330  0.34540  Biso   1.000  H
  H76      1.0000 0.06710  0.87230  0.37910  Biso   1.000  H
  H77      1.0000 0.11120  0.82820  0.40490  Biso   1.000  H
  H78      1.0000 0.10580  0.83360  0.34100  Biso   1.000  H
  O25      1.0000 0.76550  0.52110  0.28950  Biso   1.000  O
  O26      1.0000 0.68720  0.54160  0.38440  Biso   1.000  O
  O27      1.0000 0.63380  0.50170  0.31770  Biso   1.000  O
  O28      1.0000 0.79640  0.61390  0.36990  Biso   1.000  O
  N13      1.0000 0.34180  0.57290  0.50720  Biso   1.000  N
  N14      1.0000 0.43300  0.57100  0.48460  Biso   1.000  N
  C61      1.0000 0.64110  0.52540  0.36330  Biso   1.000  C
  C62      1.0000 0.42960  0.60590  0.52650  Biso   1.000  C
  H79      1.0000 0.45960  0.62590  0.54370  Biso   1.000  H
  C63      1.0000 0.48660  0.56060  0.45490  Biso   1.000  C
  C64      1.0000 0.58550  0.53760  0.39580  Biso   1.000  C
  C65      1.0000 0.58890  0.56750  0.44380  Biso   1.000  C
  H80      1.0000 0.62460  0.58030  0.45700  Biso   1.000  H
  H81      1.0000 0.87370  0.51770  0.28310  Biso   1.000  H
  H82      1.0000 0.87370  0.52160  0.21900  Biso   1.000  H
  H83      1.0000 0.87370  0.46080  0.24790  Biso   1.000  H
  C66      1.0000 0.37950  0.55000  0.47340  Biso   1.000  C
  H84      1.0000 0.37080  0.52340  0.44590  Biso   1.000  H
  C67      1.0000 0.53800  0.57860  0.47260  Biso   1.000  C
  H85      1.0000 0.54010  0.59920  0.50540  Biso   1.000  H
  C68      1.0000 0.37480  0.60640  0.53880  Biso   1.000  C
  H86      1.0000 0.35980  0.62840  0.56740  Biso   1.000  H
  C69      1.0000 0.48330  0.52800  0.40760  Biso   1.000  C
  H87      1.0000 0.44780  0.51320  0.39590  Biso   1.000  H
  C70      1.0000 0.53270  0.51760  0.37800  Biso   1.000  C
  H88      1.0000 0.53040  0.49670  0.34540  Biso   1.000  H
  H89      1.0000 0.93290  0.62770  0.37910  Biso   1.000  H
  H90      1.0000 0.88880  0.67180  0.40490  Biso   1.000  H
  H91      1.0000 0.89420  0.66640  0.34100  Biso   1.000  H
  O29      1.0000 0.26550  0.02110  0.78950  Biso   1.000  O
  O30      1.0000 0.18720  0.04160  0.88440  Biso   1.000  O
  O31      1.0000 0.13380  0.00170  0.81770  Biso   1.000  O
  O32      1.0000 0.29640  0.11390  0.86990  Biso   1.000  O
  N15      1.0000 0.84180  0.07290  0.00720  Biso   1.000  N
  N16      1.0000 0.93300  0.07100  0.98460  Biso   1.000  N
  C71      1.0000 0.14110  0.02540  0.86330  Biso   1.000  C
  C72      1.0000 0.92960  0.10590  0.02650  Biso   1.000  C
  H92      1.0000 0.95960  0.12590  0.04370  Biso   1.000  H
  C73      1.0000 0.98660  0.06060  0.95490  Biso   1.000  C
  C74      1.0000 0.08550  0.03760  0.89580  Biso   1.000  C
  C75      1.0000 0.08890  0.06750  0.94380  Biso   1.000  C
  H93      1.0000 0.12460  0.08030  0.95700  Biso   1.000  H
  H94      1.0000 0.37370  0.01770  0.78310  Biso   1.000  H
  H95      1.0000 0.37370  0.02160  0.71900  Biso   1.000  H
  H96      1.0000 0.37370  0.96080  0.74790  Biso   1.000  H
  C76      1.0000 0.87950  0.05000  0.97340  Biso   1.000  C
  H97      1.0000 0.87080  0.02340  0.94590  Biso   1.000  H
  C77      1.0000 0.03800  0.07860  0.97260  Biso   1.000  C
  H98      1.0000 0.04010  0.09920  0.00540  Biso   1.000  H
  C78      1.0000 0.87480  0.10640  0.03880  Biso   1.000  C
  H99      1.0000 0.85980  0.12840  0.06740  Biso   1.000  H
  C79      1.0000 0.98330  0.02800  0.90760  Biso   1.000  C
  H100     1.0000 0.94780  0.01320  0.89590  Biso   1.000  H
  C80      1.0000 0.03270  0.01760  0.87800  Biso   1.000  C
  H101     1.0000 0.03040  0.99670  0.84540  Biso   1.000  H
  H102     1.0000 0.43290  0.12770  0.87910  Biso   1.000  H
  H103     1.0000 0.38880  0.17180  0.90490  Biso   1.000  H
  H104     1.0000 0.39420  0.16640  0.84100  Biso   1.000  H
  O33      1.0000 0.77110  0.51550  0.46050  Biso   1.000  O
  O34      1.0000 0.79160  0.43720  0.36560  Biso   1.000  O
  O35      1.0000 0.75170  0.38380  0.43230  Biso   1.000  O
  O36      1.0000 0.86390  0.54640  0.38010  Biso   1.000  O
  N17      1.0000 0.82290  0.09180  0.24280  Biso   1.000  N
  N18      1.0000 0.82100  0.18300  0.26540  Biso   1.000  N
  C81      1.0000 0.77540  0.39110  0.38670  Biso   1.000  C
  C82      1.0000 0.85590  0.17960  0.22350  Biso   1.000  C
  H105     1.0000 0.87590  0.20960  0.20630  Biso   1.000  H
  C83      1.0000 0.81060  0.23660  0.29510  Biso   1.000  C
  C84      1.0000 0.78760  0.33550  0.35420  Biso   1.000  C
  C85      1.0000 0.81750  0.33890  0.30620  Biso   1.000  C
  H106     1.0000 0.83030  0.37460  0.29300  Biso   1.000  H
  H107     1.0000 0.76770  0.62370  0.46690  Biso   1.000  H
  H108     1.0000 0.77160  0.62370  0.53100  Biso   1.000  H
  H109     1.0000 0.71080  0.62370  0.50210  Biso   1.000  H
  C86      1.0000 0.80000  0.12950  0.27660  Biso   1.000  C
  H110     1.0000 0.77340  0.12080  0.30410  Biso   1.000  H
  C87      1.0000 0.82860  0.28800  0.27740  Biso   1.000  C
  H111     1.0000 0.84920  0.29010  0.24460  Biso   1.000  H
  C88      1.0000 0.85640  0.12480  0.21120  Biso   1.000  C
  H112     1.0000 0.87840  0.10980  0.18260  Biso   1.000  H
  C89      1.0000 0.77800  0.23330  0.34240  Biso   1.000  C
  H113     1.0000 0.76320  0.19780  0.35410  Biso   1.000  H
  C90      1.0000 0.76760  0.28270  0.37200  Biso   1.000  C
  H114     1.0000 0.74670  0.28040  0.40460  Biso   1.000  H
  H115     1.0000 0.87770  0.68290  0.37090  Biso   1.000  H
  H116     1.0000 0.92180  0.63880  0.34510  Biso   1.000  H
  H117     1.0000 0.91640  0.64420  0.40900  Biso   1.000  H
  O37      1.0000 0.27110  0.01550  0.96050  Biso   1.000  O
  O38      1.0000 0.29160  0.93720  0.86560  Biso   1.000  O
  O39      1.0000 0.25170  0.88380  0.93230  Biso   1.000  O
  O40      1.0000 0.36390  0.04640  0.88010  Biso   1.000  O
  N19      1.0000 0.32290  0.59180  0.74280  Biso   1.000  N
  N20      1.0000 0.32100  0.68300  0.76540  Biso   1.000  N
  C91      1.0000 0.27540  0.89110  0.88670  Biso   1.000  C
  C92      1.0000 0.35590  0.67960  0.72350  Biso   1.000  C
  H118     1.0000 0.37590  0.70960  0.70630  Biso   1.000  H
  C93      1.0000 0.31060  0.73660  0.79510  Biso   1.000  C
  C94      1.0000 0.28760  0.83550  0.85420  Biso   1.000  C
  C95      1.0000 0.31750  0.83890  0.80620  Biso   1.000  C
  H119     1.0000 0.33030  0.87460  0.79300  Biso   1.000  H
  H120     1.0000 0.26770  0.12370  0.96690  Biso   1.000  H
  H121     1.0000 0.27160  0.12370  0.03100  Biso   1.000  H
  H122     1.0000 0.21080  0.12370  0.00210  Biso   1.000  H
  C96      1.0000 0.30000  0.62950  0.77660  Biso   1.000  C
  H123     1.0000 0.27340  0.62080  0.80410  Biso   1.000  H
  C97      1.0000 0.32860  0.78800  0.77740  Biso   1.000  C
  H124     1.0000 0.34920  0.79010  0.74460  Biso   1.000  H
  C98      1.0000 0.35640  0.62480  0.71120  Biso   1.000  C
  H125     1.0000 0.37840  0.60980  0.68260  Biso   1.000  H
  C99      1.0000 0.27800  0.73330  0.84240  Biso   1.000  C
  H126     1.0000 0.26320  0.69780  0.85410  Biso   1.000  H
  C100     1.0000 0.26760  0.78270  0.87200  Biso   1.000  C
  H127     1.0000 0.24670  0.78040  0.90460  Biso   1.000  H
  H128     1.0000 0.37770  0.18290  0.87090  Biso   1.000  H
  H129     1.0000 0.42180  0.13880  0.84510  Biso   1.000  H
  H130     1.0000 0.41640  0.14420  0.90900  Biso   1.000  H
  O41      1.0000 0.72890  0.48450  0.96050  Biso   1.000  O
  O42      1.0000 0.70840  0.56280  0.86560  Biso   1.000  O
  O43      1.0000 0.74830  0.61620  0.93230  Biso   1.000  O
  O44      1.0000 0.63610  0.45360  0.88010  Biso   1.000  O
  N21      1.0000 0.67710  0.90820  0.74280  Biso   1.000  N
  N22      1.0000 0.67900  0.81700  0.76540  Biso   1.000  N
  C101     1.0000 0.72460  0.60890  0.88670  Biso   1.000  C
  C102     1.0000 0.64410  0.82040  0.72350  Biso   1.000  C
  H131     1.0000 0.62410  0.79040  0.70630  Biso   1.000  H
  C103     1.0000 0.68940  0.76340  0.79510  Biso   1.000  C
  C104     1.0000 0.71240  0.66450  0.85420  Biso   1.000  C
  C105     1.0000 0.68250  0.66110  0.80620  Biso   1.000  C
  H132     1.0000 0.66970  0.62540  0.79300  Biso   1.000  H
  H133     1.0000 0.73230  0.37630  0.96690  Biso   1.000  H
  H134     1.0000 0.72840  0.37630  0.03100  Biso   1.000  H
  H135     1.0000 0.78920  0.37630  0.00210  Biso   1.000  H
  C106     1.0000 0.70000  0.87050  0.77660  Biso   1.000  C
  H136     1.0000 0.72660  0.87920  0.80410  Biso   1.000  H
  C107     1.0000 0.67140  0.71200  0.77740  Biso   1.000  C
  H137     1.0000 0.65080  0.70990  0.74460  Biso   1.000  H
  C108     1.0000 0.64360  0.87520  0.71120  Biso   1.000  C
  H138     1.0000 0.62160  0.89020  0.68260  Biso   1.000  H
  C109     1.0000 0.72200  0.76670  0.84240  Biso   1.000  C
  H139     1.0000 0.73680  0.80220  0.85410  Biso   1.000  H
  C110     1.0000 0.73240  0.71730  0.87200  Biso   1.000  C
  H140     1.0000 0.75330  0.71960  0.90460  Biso   1.000  H
  H141     1.0000 0.62230  0.31710  0.87090  Biso   1.000  H
  H142     1.0000 0.57820  0.36120  0.84510  Biso   1.000  H
  H143     1.0000 0.58360  0.35580  0.90900  Biso   1.000  H
  O45      1.0000 0.22890  0.98450  0.46050  Biso   1.000  O
  O46      1.0000 0.20840  0.06280  0.36560  Biso   1.000  O
  O47      1.0000 0.24830  0.11620  0.43230  Biso   1.000  O
  O48      1.0000 0.13610  0.95360  0.38010  Biso   1.000  O
  N23      1.0000 0.17710  0.40820  0.24280  Biso   1.000  N
  N24      1.0000 0.17900  0.31700  0.26540  Biso   1.000  N
  C111     1.0000 0.22460  0.10890  0.38670  Biso   1.000  C
  C112     1.0000 0.14410  0.32040  0.22350  Biso   1.000  C
  H144     1.0000 0.12410  0.29040  0.20630  Biso   1.000  H
  C113     1.0000 0.18940  0.26340  0.29510  Biso   1.000  C
  C114     1.0000 0.21240  0.16450  0.35420  Biso   1.000  C
  C115     1.0000 0.18250  0.16110  0.30620  Biso   1.000  C
  H145     1.0000 0.16970  0.12540  0.29300  Biso   1.000  H
  H146     1.0000 0.23230  0.87630  0.46690  Biso   1.000  H
  H147     1.0000 0.22840  0.87630  0.53100  Biso   1.000  H
  H148     1.0000 0.28920  0.87630  0.50210  Biso   1.000  H
  C116     1.0000 0.20000  0.37050  0.27660  Biso   1.000  C
  H149     1.0000 0.22660  0.37920  0.30410  Biso   1.000  H
  C117     1.0000 0.17140  0.21200  0.27740  Biso   1.000  C
  H150     1.0000 0.15080  0.20990  0.24460  Biso   1.000  H
  C118     1.0000 0.14360  0.37520  0.21120  Biso   1.000  C
  H151     1.0000 0.12160  0.39020  0.18260  Biso   1.000  H
  C119     1.0000 0.22200  0.26670  0.34240  Biso   1.000  C
  H152     1.0000 0.23680  0.30220  0.35410  Biso   1.000  H
  C120     1.0000 0.23240  0.21730  0.37200  Biso   1.000  C
  H153     1.0000 0.25330  0.21960  0.40460  Biso   1.000  H
  H154     1.0000 0.12230  0.81710  0.37090  Biso   1.000  H
  H155     1.0000 0.07820  0.86120  0.34510  Biso   1.000  H
  H156     1.0000 0.08360  0.85580  0.40900  Biso   1.000  H
  O49      1.0000 0.76550  0.47890  0.21050  Biso   1.000  O
  O50      1.0000 0.68720  0.45840  0.11560  Biso   1.000  O
  O51      1.0000 0.63380  0.49830  0.18230  Biso   1.000  O
  O52      1.0000 0.79640  0.38610  0.13010  Biso   1.000  O
  N25      1.0000 0.34180  0.42710  0.99280  Biso   1.000  N
  N26      1.0000 0.43300  0.42900  0.01540  Biso   1.000  N
  C121     1.0000 0.64110  0.47460  0.13670  Biso   1.000  C
  C122     1.0000 0.42960  0.39410  0.97350  Biso   1.000  C
  H157     1.0000 0.45960  0.37410  0.95630  Biso   1.000  H
  C123     1.0000 0.48660  0.43940  0.04510  Biso   1.000  C
  C124     1.0000 0.58550  0.46240  0.10420  Biso   1.000  C
  C125     1.0000 0.58890  0.43250  0.05620  Biso   1.000  C
  H158     1.0000 0.62460  0.41970  0.04300  Biso   1.000  H
  H159     1.0000 0.87370  0.48230  0.21690  Biso   1.000  H
  H160     1.0000 0.87370  0.47840  0.28100  Biso   1.000  H
  H161     1.0000 0.87370  0.53920  0.25210  Biso   1.000  H
  C126     1.0000 0.37950  0.45000  0.02660  Biso   1.000  C
  H162     1.0000 0.37080  0.47660  0.05410  Biso   1.000  H
  C127     1.0000 0.53800  0.42140  0.02740  Biso   1.000  C
  H163     1.0000 0.54010  0.40080  0.99460  Biso   1.000  H
  C128     1.0000 0.37480  0.39360  0.96120  Biso   1.000  C
  H164     1.0000 0.35980  0.37160  0.93260  Biso   1.000  H
  C129     1.0000 0.48330  0.47200  0.09240  Biso   1.000  C
  H165     1.0000 0.44780  0.48680  0.10410  Biso   1.000  H
  C130     1.0000 0.53270  0.48240  0.12200  Biso   1.000  C
  H166     1.0000 0.53040  0.50330  0.15460  Biso   1.000  H
  H167     1.0000 0.93290  0.37230  0.12090  Biso   1.000  H
  H168     1.0000 0.88880  0.32820  0.09510  Biso   1.000  H
  H169     1.0000 0.89420  0.33360  0.15900  Biso   1.000  H
  O53      1.0000 0.26550  0.97890  0.71050  Biso   1.000  O
  O54      1.0000 0.18720  0.95840  0.61560  Biso   1.000  O
  O55      1.0000 0.13380  0.99830  0.68230  Biso   1.000  O
  O56      1.0000 0.29640  0.88610  0.63010  Biso   1.000  O
  N27      1.0000 0.84180  0.92710  0.49280  Biso   1.000  N
  N28      1.0000 0.93300  0.92900  0.51540  Biso   1.000  N
  C131     1.0000 0.14110  0.97460  0.63670  Biso   1.000  C
  C132     1.0000 0.92960  0.89410  0.47350  Biso   1.000  C
  H170     1.0000 0.95960  0.87410  0.45630  Biso   1.000  H
  C133     1.0000 0.98660  0.93940  0.54510  Biso   1.000  C
  C134     1.0000 0.08550  0.96240  0.60420  Biso   1.000  C
  C135     1.0000 0.08890  0.93250  0.55620  Biso   1.000  C
  H171     1.0000 0.12460  0.91970  0.54300  Biso   1.000  H
  H172     1.0000 0.37370  0.98230  0.71690  Biso   1.000  H
  H173     1.0000 0.37370  0.97840  0.78100  Biso   1.000  H
  H174     1.0000 0.37370  0.03920  0.75210  Biso   1.000  H
  C136     1.0000 0.87950  0.95000  0.52660  Biso   1.000  C
  H175     1.0000 0.87080  0.97660  0.55410  Biso   1.000  H
  C137     1.0000 0.03800  0.92140  0.52740  Biso   1.000  C
  H176     1.0000 0.04010  0.90080  0.49460  Biso   1.000  H
  C138     1.0000 0.87480  0.89360  0.46120  Biso   1.000  C
  H177     1.0000 0.85980  0.87160  0.43260  Biso   1.000  H
  C139     1.0000 0.98330  0.97200  0.59240  Biso   1.000  C
  H178     1.0000 0.94780  0.98680  0.60410  Biso   1.000  H
  C140     1.0000 0.03270  0.98240  0.62200  Biso   1.000  C
  H179     1.0000 0.03040  0.00330  0.65460  Biso   1.000  H
  H180     1.0000 0.43290  0.87230  0.62090  Biso   1.000  H
  H181     1.0000 0.38880  0.82820  0.59510  Biso   1.000  H
  H182     1.0000 0.39420  0.83360  0.65900  Biso   1.000  H
  O57      1.0000 0.73450  0.52110  0.71050  Biso   1.000  O
  O58      1.0000 0.81280  0.54160  0.61560  Biso   1.000  O
  O59      1.0000 0.86620  0.50170  0.68230  Biso   1.000  O
  O60      1.0000 0.70360  0.61390  0.63010  Biso   1.000  O
  N29      1.0000 0.15820  0.57290  0.49280  Biso   1.000  N
  N30      1.0000 0.06700  0.57100  0.51540  Biso   1.000  N
  C141     1.0000 0.85890  0.52540  0.63670  Biso   1.000  C
  C142     1.0000 0.07040  0.60590  0.47350  Biso   1.000  C
  H183     1.0000 0.04040  0.62590  0.45630  Biso   1.000  H
  C143     1.0000 0.01340  0.56060  0.54510  Biso   1.000  C
  C144     1.0000 0.91450  0.53760  0.60420  Biso   1.000  C
  C145     1.0000 0.91110  0.56750  0.55620  Biso   1.000  C
  H184     1.0000 0.87540  0.58030  0.54300  Biso   1.000  H
  H185     1.0000 0.62630  0.51770  0.71690  Biso   1.000  H
  H186     1.0000 0.62630  0.52160  0.78100  Biso   1.000  H
  H187     1.0000 0.62630  0.46080  0.75210  Biso   1.000  H
  C146     1.0000 0.12050  0.55000  0.52660  Biso   1.000  C
  H188     1.0000 0.12920  0.52340  0.55410  Biso   1.000  H
  C147     1.0000 0.96200  0.57860  0.52740  Biso   1.000  C
  H189     1.0000 0.95990  0.59920  0.49460  Biso   1.000  H
  C148     1.0000 0.12520  0.60640  0.46120  Biso   1.000  C
  H190     1.0000 0.14020  0.62840  0.43260  Biso   1.000  H
  C149     1.0000 0.01670  0.52800  0.59240  Biso   1.000  C
  H191     1.0000 0.05220  0.51320  0.60410  Biso   1.000  H
  C150     1.0000 0.96730  0.51760  0.62200  Biso   1.000  C
  H192     1.0000 0.96960  0.49670  0.65460  Biso   1.000  H
  H193     1.0000 0.56710  0.62770  0.62090  Biso   1.000  H
  H194     1.0000 0.61120  0.67180  0.59510  Biso   1.000  H
  H195     1.0000 0.60580  0.66640  0.65900  Biso   1.000  H
  O61      1.0000 0.23450  0.02110  0.21050  Biso   1.000  O
  O62      1.0000 0.31280  0.04160  0.11560  Biso   1.000  O
  O63      1.0000 0.36620  0.00170  0.18230  Biso   1.000  O
  O64      1.0000 0.20360  0.11390  0.13010  Biso   1.000  O
  N31      1.0000 0.65820  0.07290  0.99280  Biso   1.000  N
  N32      1.0000 0.56700  0.07100  0.01540  Biso   1.000  N
  C151     1.0000 0.35890  0.02540  0.13670  Biso   1.000  C
  C152     1.0000 0.57040  0.10590  0.97350  Biso   1.000  C
  H196     1.0000 0.54040  0.12590  0.95630  Biso   1.000  H
  C153     1.0000 0.51340  0.06060  0.04510  Biso   1.000  C
  C154     1.0000 0.41450  0.03760  0.10420  Biso   1.000  C
  C155     1.0000 0.41110  0.06750  0.05620  Biso   1.000  C
  H197     1.0000 0.37540  0.08030  0.04300  Biso   1.000  H
  H198     1.0000 0.12630  0.01770  0.21690  Biso   1.000  H
  H199     1.0000 0.12630  0.02160  0.28100  Biso   1.000  H
  H200     1.0000 0.12630  0.96080  0.25210  Biso   1.000  H
  C156     1.0000 0.62050  0.05000  0.02660  Biso   1.000  C
  H201     1.0000 0.62920  0.02340  0.05410  Biso   1.000  H
  C157     1.0000 0.46200  0.07860  0.02740  Biso   1.000  C
  H202     1.0000 0.45990  0.09920  0.99460  Biso   1.000  H
  C158     1.0000 0.62520  0.10640  0.96120  Biso   1.000  C
  H203     1.0000 0.64020  0.12840  0.93260  Biso   1.000  H
  C159     1.0000 0.51670  0.02800  0.09240  Biso   1.000  C
  H204     1.0000 0.55220  0.01320  0.10410  Biso   1.000  H
  C160     1.0000 0.46730  0.01760  0.12200  Biso   1.000  C
  H205     1.0000 0.46960  0.99670  0.15460  Biso   1.000  H
  H206     1.0000 0.06710  0.12770  0.12090  Biso   1.000  H
  H207     1.0000 0.11120  0.17180  0.09510  Biso   1.000  H
  H208     1.0000 0.10580  0.16640  0.15900  Biso   1.000  H
  O65      1.0000 0.27110  0.48450  0.46050  Biso   1.000  O
  O66      1.0000 0.29160  0.56280  0.36560  Biso   1.000  O
  O67      1.0000 0.25170  0.61620  0.43230  Biso   1.000  O
  O68      1.0000 0.36390  0.45360  0.38010  Biso   1.000  O
  N33      1.0000 0.32290  0.90820  0.24280  Biso   1.000  N
  N34      1.0000 0.32100  0.81700  0.26540  Biso   1.000  N
  C161     1.0000 0.27540  0.60890  0.38670  Biso   1.000  C
  C162     1.0000 0.35590  0.82040  0.22350  Biso   1.000  C
  H209     1.0000 0.37590  0.79040  0.20630  Biso   1.000  H
  C163     1.0000 0.31060  0.76340  0.29510  Biso   1.000  C
  C164     1.0000 0.28760  0.66450  0.35420  Biso   1.000  C
  C165     1.0000 0.31750  0.66110  0.30620  Biso   1.000  C
  H210     1.0000 0.33030  0.62540  0.29300  Biso   1.000  H
  H211     1.0000 0.26770  0.37630  0.46690  Biso   1.000  H
  H212     1.0000 0.27160  0.37630  0.53100  Biso   1.000  H
  H213     1.0000 0.21080  0.37630  0.50210  Biso   1.000  H
  C166     1.0000 0.30000  0.87050  0.27660  Biso   1.000  C
  H214     1.0000 0.27340  0.87920  0.30410  Biso   1.000  H
  C167     1.0000 0.32860  0.71200  0.27740  Biso   1.000  C
  H215     1.0000 0.34920  0.70990  0.24460  Biso   1.000  H
  C168     1.0000 0.35640  0.87520  0.21120  Biso   1.000  C
  H216     1.0000 0.37840  0.89020  0.18260  Biso   1.000  H
  C169     1.0000 0.27800  0.76670  0.34240  Biso   1.000  C
  H217     1.0000 0.26320  0.80220  0.35410  Biso   1.000  H
  C170     1.0000 0.26760  0.71730  0.37200  Biso   1.000  C
  H218     1.0000 0.24670  0.71960  0.40460  Biso   1.000  H
  H219     1.0000 0.37770  0.31710  0.37090  Biso   1.000  H
  H220     1.0000 0.42180  0.36120  0.34510  Biso   1.000  H
  H221     1.0000 0.41640  0.35580  0.40900  Biso   1.000  H
  O69      1.0000 0.77110  0.98450  0.96050  Biso   1.000  O
  O70      1.0000 0.79160  0.06280  0.86560  Biso   1.000  O
  O71      1.0000 0.75170  0.11620  0.93230  Biso   1.000  O
  O72      1.0000 0.86390  0.95360  0.88010  Biso   1.000  O
  N35      1.0000 0.82290  0.40820  0.74280  Biso   1.000  N
  N36      1.0000 0.82100  0.31700  0.76540  Biso   1.000  N
  C171     1.0000 0.77540  0.10890  0.88670  Biso   1.000  C
  C172     1.0000 0.85590  0.32040  0.72350  Biso   1.000  C
  H222     1.0000 0.87590  0.29040  0.70630  Biso   1.000  H
  C173     1.0000 0.81060  0.26340  0.79510  Biso   1.000  C
  C174     1.0000 0.78760  0.16450  0.85420  Biso   1.000  C
  C175     1.0000 0.81750  0.16110  0.80620  Biso   1.000  C
  H223     1.0000 0.83030  0.12540  0.79300  Biso   1.000  H
  H224     1.0000 0.76770  0.87630  0.96690  Biso   1.000  H
  H225     1.0000 0.77160  0.87630  0.03100  Biso   1.000  H
  H226     1.0000 0.71080  0.87630  0.00210  Biso   1.000  H
  C176     1.0000 0.80000  0.37050  0.77660  Biso   1.000  C
  H227     1.0000 0.77340  0.37920  0.80410  Biso   1.000  H
  C177     1.0000 0.82860  0.21200  0.77740  Biso   1.000  C
  H228     1.0000 0.84920  0.20990  0.74460  Biso   1.000  H
  C178     1.0000 0.85640  0.37520  0.71120  Biso   1.000  C
  H229     1.0000 0.87840  0.39020  0.68260  Biso   1.000  H
  C179     1.0000 0.77800  0.26670  0.84240  Biso   1.000  C
  H230     1.0000 0.76320  0.30220  0.85410  Biso   1.000  H
  C180     1.0000 0.76760  0.21730  0.87200  Biso   1.000  C
  H231     1.0000 0.74670  0.21960  0.90460  Biso   1.000  H
  H232     1.0000 0.87770  0.81710  0.87090  Biso   1.000  H
  H233     1.0000 0.92180  0.86120  0.84510  Biso   1.000  H
  H234     1.0000 0.91640  0.85580  0.90900  Biso   1.000  H
  O73      1.0000 0.22890  0.51550  0.96050  Biso   1.000  O
  O74      1.0000 0.20840  0.43720  0.86560  Biso   1.000  O
  O75      1.0000 0.24830  0.38380  0.93230  Biso   1.000  O
  O76      1.0000 0.13610  0.54640  0.88010  Biso   1.000  O
  N37      1.0000 0.17710  0.09180  0.74280  Biso   1.000  N
  N38      1.0000 0.17900  0.18300  0.76540  Biso   1.000  N
  C181     1.0000 0.22460  0.39110  0.88670  Biso   1.000  C
  C182     1.0000 0.14410  0.17960  0.72350  Biso   1.000  C
  H235     1.0000 0.12410  0.20960  0.70630  Biso   1.000  H
  C183     1.0000 0.18940  0.23660  0.79510  Biso   1.000  C
  C184     1.0000 0.21240  0.33550  0.85420  Biso   1.000  C
  C185     1.0000 0.18250  0.33890  0.80620  Biso   1.000  C
  H236     1.0000 0.16970  0.37460  0.79300  Biso   1.000  H
  H237     1.0000 0.23230  0.62370  0.96690  Biso   1.000  H
  H238     1.0000 0.22840  0.62370  0.03100  Biso   1.000  H
  H239     1.0000 0.28920  0.62370  0.00210  Biso   1.000  H
  C186     1.0000 0.20000  0.12950  0.77660  Biso   1.000  C
  H240     1.0000 0.22660  0.12080  0.80410  Biso   1.000  H
  C187     1.0000 0.17140  0.28800  0.77740  Biso   1.000  C
  H241     1.0000 0.15080  0.29010  0.74460  Biso   1.000  H
  C188     1.0000 0.14360  0.12480  0.71120  Biso   1.000  C
  H242     1.0000 0.12160  0.10980  0.68260  Biso   1.000  H
  C189     1.0000 0.22200  0.23330  0.84240  Biso   1.000  C
  H243     1.0000 0.23680  0.19780  0.85410  Biso   1.000  H
  C190     1.0000 0.23240  0.28270  0.87200  Biso   1.000  C
  H244     1.0000 0.25330  0.28040  0.90460  Biso   1.000  H
  H245     1.0000 0.12230  0.68290  0.87090  Biso   1.000  H
  H246     1.0000 0.07820  0.63880  0.84510  Biso   1.000  H
  H247     1.0000 0.08360  0.64420  0.90900  Biso   1.000  H
  O77      1.0000 0.72890  0.01550  0.46050  Biso   1.000  O
  O78      1.0000 0.70840  0.93720  0.36560  Biso   1.000  O
  O79      1.0000 0.74830  0.88380  0.43230  Biso   1.000  O
  O80      1.0000 0.63610  0.04640  0.38010  Biso   1.000  O
  N39      1.0000 0.67710  0.59180  0.24280  Biso   1.000  N
  N40      1.0000 0.67900  0.68300  0.26540  Biso   1.000  N
  C191     1.0000 0.72460  0.89110  0.38670  Biso   1.000  C
  C192     1.0000 0.64410  0.67960  0.22350  Biso   1.000  C
  H248     1.0000 0.62410  0.70960  0.20630  Biso   1.000  H
  C193     1.0000 0.68940  0.73660  0.29510  Biso   1.000  C
  C194     1.0000 0.71240  0.83550  0.35420  Biso   1.000  C
  C195     1.0000 0.68250  0.83890  0.30620  Biso   1.000  C
  H249     1.0000 0.66970  0.87460  0.29300  Biso   1.000  H
  H250     1.0000 0.73230  0.12370  0.46690  Biso   1.000  H
  H251     1.0000 0.72840  0.12370  0.53100  Biso   1.000  H
  H252     1.0000 0.78920  0.12370  0.50210  Biso   1.000  H
  C196     1.0000 0.70000  0.62950  0.27660  Biso   1.000  C
  H253     1.0000 0.72660  0.62080  0.30410  Biso   1.000  H
  C197     1.0000 0.67140  0.78800  0.27740  Biso   1.000  C
  H254     1.0000 0.65080  0.79010  0.24460  Biso   1.000  H
  C198     1.0000 0.64360  0.62480  0.21120  Biso   1.000  C
  H255     1.0000 0.62160  0.60980  0.18260  Biso   1.000  H
  C199     1.0000 0.72200  0.73330  0.34240  Biso   1.000  C
  H256     1.0000 0.73680  0.69780  0.35410  Biso   1.000  H
  C200     1.0000 0.73240  0.78270  0.37200  Biso   1.000  C
  H257     1.0000 0.75330  0.78040  0.40460  Biso   1.000  H
  H258     1.0000 0.62230  0.18290  0.37090  Biso   1.000  H
  H259     1.0000 0.57820  0.13880  0.34510  Biso   1.000  H
  H260     1.0000 0.58360  0.14420  0.40900  Biso   1.000  H
  O81      1.0000 0.26550  0.52110  0.21050  Biso   1.000  O
  O82      1.0000 0.18720  0.54160  0.11560  Biso   1.000  O
  O83      1.0000 0.13380  0.50170  0.18230  Biso   1.000  O
  O84      1.0000 0.29640  0.61390  0.13010  Biso   1.000  O
  N41      1.0000 0.84180  0.57290  0.99280  Biso   1.000  N
  N42      1.0000 0.93300  0.57100  0.01540  Biso   1.000  N
  C201     1.0000 0.14110  0.52540  0.13670  Biso   1.000  C
  C202     1.0000 0.92960  0.60590  0.97350  Biso   1.000  C
  H261     1.0000 0.95960  0.62590  0.95630  Biso   1.000  H
  C203     1.0000 0.98660  0.56060  0.04510  Biso   1.000  C
  C204     1.0000 0.08550  0.53760  0.10420  Biso   1.000  C
  C205     1.0000 0.08890  0.56750  0.05620  Biso   1.000  C
  H262     1.0000 0.12460  0.58030  0.04300  Biso   1.000  H
  H263     1.0000 0.37370  0.51770  0.21690  Biso   1.000  H
  H264     1.0000 0.37370  0.52160  0.28100  Biso   1.000  H
  H265     1.0000 0.37370  0.46080  0.25210  Biso   1.000  H
  C206     1.0000 0.87950  0.55000  0.02660  Biso   1.000  C
  H266     1.0000 0.87080  0.52340  0.05410  Biso   1.000  H
  C207     1.0000 0.03800  0.57860  0.02740  Biso   1.000  C
  H267     1.0000 0.04010  0.59920  0.99460  Biso   1.000  H
  C208     1.0000 0.87480  0.60640  0.96120  Biso   1.000  C
  H268     1.0000 0.85980  0.62840  0.93260  Biso   1.000  H
  C209     1.0000 0.98330  0.52800  0.09240  Biso   1.000  C
  H269     1.0000 0.94780  0.51320  0.10410  Biso   1.000  H
  C210     1.0000 0.03270  0.51760  0.12200  Biso   1.000  C
  H270     1.0000 0.03040  0.49670  0.15460  Biso   1.000  H
  H271     1.0000 0.43290  0.62770  0.12090  Biso   1.000  H
  H272     1.0000 0.38880  0.67180  0.09510  Biso   1.000  H
  H273     1.0000 0.39420  0.66640  0.15900  Biso   1.000  H
  O85      1.0000 0.76550  0.02110  0.71050  Biso   1.000  O
  O86      1.0000 0.68720  0.04160  0.61560  Biso   1.000  O
  O87      1.0000 0.63380  0.00170  0.68230  Biso   1.000  O
  O88      1.0000 0.79640  0.11390  0.63010  Biso   1.000  O
  N43      1.0000 0.34180  0.07290  0.49280  Biso   1.000  N
  N44      1.0000 0.43300  0.07100  0.51540  Biso   1.000  N
  C211     1.0000 0.64110  0.02540  0.63670  Biso   1.000  C
  C212     1.0000 0.42960  0.10590  0.47350  Biso   1.000  C
  H274     1.0000 0.45960  0.12590  0.45630  Biso   1.000  H
  C213     1.0000 0.48660  0.06060  0.54510  Biso   1.000  C
  C214     1.0000 0.58550  0.03760  0.60420  Biso   1.000  C
  C215     1.0000 0.58890  0.06750  0.55620  Biso   1.000  C
  H275     1.0000 0.62460  0.08030  0.54300  Biso   1.000  H
  H276     1.0000 0.87370  0.01770  0.71690  Biso   1.000  H
  H277     1.0000 0.87370  0.02160  0.78100  Biso   1.000  H
  H278     1.0000 0.87370  0.96080  0.75210  Biso   1.000  H
  C216     1.0000 0.37950  0.05000  0.52660  Biso   1.000  C
  H279     1.0000 0.37080  0.02340  0.55410  Biso   1.000  H
  C217     1.0000 0.53800  0.07860  0.52740  Biso   1.000  C
  H280     1.0000 0.54010  0.09920  0.49460  Biso   1.000  H
  C218     1.0000 0.37480  0.10640  0.46120  Biso   1.000  C
  H281     1.0000 0.35980  0.12840  0.43260  Biso   1.000  H
  C219     1.0000 0.48330  0.02800  0.59240  Biso   1.000  C
  H282     1.0000 0.44780  0.01320  0.60410  Biso   1.000  H
  C220     1.0000 0.53270  0.01760  0.62200  Biso   1.000  C
  H283     1.0000 0.53040  0.99670  0.65460  Biso   1.000  H
  H284     1.0000 0.93290  0.12770  0.62090  Biso   1.000  H
  H285     1.0000 0.88880  0.17180  0.59510  Biso   1.000  H
  H286     1.0000 0.89420  0.16640  0.65900  Biso   1.000  H
  O89      1.0000 0.23450  0.47890  0.71050  Biso   1.000  O
  O90      1.0000 0.31280  0.45840  0.61560  Biso   1.000  O
  O91      1.0000 0.36620  0.49830  0.68230  Biso   1.000  O
  O92      1.0000 0.20360  0.38610  0.63010  Biso   1.000  O
  N45      1.0000 0.65820  0.42710  0.49280  Biso   1.000  N
  N46      1.0000 0.56700  0.42900  0.51540  Biso   1.000  N
  C221     1.0000 0.35890  0.47460  0.63670  Biso   1.000  C
  C222     1.0000 0.57040  0.39410  0.47350  Biso   1.000  C
  H287     1.0000 0.54040  0.37410  0.45630  Biso   1.000  H
  C223     1.0000 0.51340  0.43940  0.54510  Biso   1.000  C
  C224     1.0000 0.41450  0.46240  0.60420  Biso   1.000  C
  C225     1.0000 0.41110  0.43250  0.55620  Biso   1.000  C
  H288     1.0000 0.37540  0.41970  0.54300  Biso   1.000  H
  H289     1.0000 0.12630  0.48230  0.71690  Biso   1.000  H
  H290     1.0000 0.12630  0.47840  0.78100  Biso   1.000  H
  H291     1.0000 0.12630  0.53920  0.75210  Biso   1.000  H
  C226     1.0000 0.62050  0.45000  0.52660  Biso   1.000  C
  H292     1.0000 0.62920  0.47660  0.55410  Biso   1.000  H
  C227     1.0000 0.46200  0.42140  0.52740  Biso   1.000  C
  H293     1.0000 0.45990  0.40080  0.49460  Biso   1.000  H
  C228     1.0000 0.62520  0.39360  0.46120  Biso   1.000  C
  H294     1.0000 0.64020  0.37160  0.43260  Biso   1.000  H
  C229     1.0000 0.51670  0.47200  0.59240  Biso   1.000  C
  H295     1.0000 0.55220  0.48680  0.60410  Biso   1.000  H
  C230     1.0000 0.46730  0.48240  0.62200  Biso   1.000  C
  H296     1.0000 0.46960  0.50330  0.65460  Biso   1.000  H
  H297     1.0000 0.06710  0.37230  0.62090  Biso   1.000  H
  H298     1.0000 0.11120  0.32820  0.59510  Biso   1.000  H
  H299     1.0000 0.10580  0.33360  0.65900  Biso   1.000  H
  O93      1.0000 0.73450  0.97890  0.21050  Biso   1.000  O
  O94      1.0000 0.81280  0.95840  0.11560  Biso   1.000  O
  O95      1.0000 0.86620  0.99830  0.18230  Biso   1.000  O
  O96      1.0000 0.70360  0.88610  0.13010  Biso   1.000  O
  N47      1.0000 0.15820  0.92710  0.99280  Biso   1.000  N
  N48      1.0000 0.06700  0.92900  0.01540  Biso   1.000  N
  C231     1.0000 0.85890  0.97460  0.13670  Biso   1.000  C
  C232     1.0000 0.07040  0.89410  0.97350  Biso   1.000  C
  H300     1.0000 0.04040  0.87410  0.95630  Biso   1.000  H
  C233     1.0000 0.01340  0.93940  0.04510  Biso   1.000  C
  C234     1.0000 0.91450  0.96240  0.10420  Biso   1.000  C
  C235     1.0000 0.91110  0.93250  0.05620  Biso   1.000  C
  H301     1.0000 0.87540  0.91970  0.04300  Biso   1.000  H
  H302     1.0000 0.62630  0.98230  0.21690  Biso   1.000  H
  H303     1.0000 0.62630  0.97840  0.28100  Biso   1.000  H
  H304     1.0000 0.62630  0.03920  0.25210  Biso   1.000  H
  C236     1.0000 0.12050  0.95000  0.02660  Biso   1.000  C
  H305     1.0000 0.12920  0.97660  0.05410  Biso   1.000  H
  C237     1.0000 0.96200  0.92140  0.02740  Biso   1.000  C
  H306     1.0000 0.95990  0.90080  0.99460  Biso   1.000  H
  C238     1.0000 0.12520  0.89360  0.96120  Biso   1.000  C
  H307     1.0000 0.14020  0.87160  0.93260  Biso   1.000  H
  C239     1.0000 0.01670  0.97200  0.09240  Biso   1.000  C
  H308     1.0000 0.05220  0.98680  0.10410  Biso   1.000  H
  C240     1.0000 0.96730  0.98240  0.12200  Biso   1.000  C
  H309     1.0000 0.96960  0.00330  0.15460  Biso   1.000  H
  H310     1.0000 0.56710  0.87230  0.12090  Biso   1.000  H
  H311     1.0000 0.61120  0.82820  0.09510  Biso   1.000  H
  H312     1.0000 0.60580  0.83360  0.15900  Biso   1.000  H
  O97      1.0000 0.22890  0.48450  0.53950  Biso   1.000  O
  O98      1.0000 0.20840  0.56280  0.63440  Biso   1.000  O
  O99      1.0000 0.24830  0.61620  0.56770  Biso   1.000  O
  O100     1.0000 0.13610  0.45360  0.61990  Biso   1.000  O
  N49      1.0000 0.17710  0.90820  0.75720  Biso   1.000  N
  N50      1.0000 0.17900  0.81700  0.73460  Biso   1.000  N
  C241     1.0000 0.22460  0.60890  0.61330  Biso   1.000  C
  C242     1.0000 0.14410  0.82040  0.77650  Biso   1.000  C
  H313     1.0000 0.12410  0.79040  0.79370  Biso   1.000  H
  C243     1.0000 0.18940  0.76340  0.70490  Biso   1.000  C
  C244     1.0000 0.21240  0.66450  0.64580  Biso   1.000  C
  C245     1.0000 0.18250  0.66110  0.69380  Biso   1.000  C
  H314     1.0000 0.16970  0.62540  0.70700  Biso   1.000  H
  H315     1.0000 0.23230  0.37630  0.53310  Biso   1.000  H
  H316     1.0000 0.22840  0.37630  0.46900  Biso   1.000  H
  H317     1.0000 0.28920  0.37630  0.49790  Biso   1.000  H
  C246     1.0000 0.20000  0.87050  0.72340  Biso   1.000  C
  H318     1.0000 0.22660  0.87920  0.69590  Biso   1.000  H
  C247     1.0000 0.17140  0.71200  0.72260  Biso   1.000  C
  H319     1.0000 0.15080  0.70990  0.75540  Biso   1.000  H
  C248     1.0000 0.14360  0.87520  0.78880  Biso   1.000  C
  H320     1.0000 0.12160  0.89020  0.81740  Biso   1.000  H
  C249     1.0000 0.22200  0.76670  0.65760  Biso   1.000  C
  H321     1.0000 0.23680  0.80220  0.64590  Biso   1.000  H
  C250     1.0000 0.23240  0.71730  0.62800  Biso   1.000  C
  H322     1.0000 0.25330  0.71960  0.59540  Biso   1.000  H
  H323     1.0000 0.12230  0.31710  0.62910  Biso   1.000  H
  H324     1.0000 0.07820  0.36120  0.65490  Biso   1.000  H
  H325     1.0000 0.08360  0.35580  0.59100  Biso   1.000  H
  O101     1.0000 0.72890  0.98450  0.03950  Biso   1.000  O
  O102     1.0000 0.70840  0.06280  0.13440  Biso   1.000  O
  O103     1.0000 0.74830  0.11620  0.06770  Biso   1.000  O
  O104     1.0000 0.63610  0.95360  0.11990  Biso   1.000  O
  N51      1.0000 0.67710  0.40820  0.25720  Biso   1.000  N
  N52      1.0000 0.67900  0.31700  0.23460  Biso   1.000  N
  C251     1.0000 0.72460  0.10890  0.11330  Biso   1.000  C
  C252     1.0000 0.64410  0.32040  0.27650  Biso   1.000  C
  H326     1.0000 0.62410  0.29040  0.29370  Biso   1.000  H
  C253     1.0000 0.68940  0.26340  0.20490  Biso   1.000  C
  C254     1.0000 0.71240  0.16450  0.14580  Biso   1.000  C
  C255     1.0000 0.68250  0.16110  0.19380  Biso   1.000  C
  H327     1.0000 0.66970  0.12540  0.20700  Biso   1.000  H
  H328     1.0000 0.73230  0.87630  0.03310  Biso   1.000  H
  H329     1.0000 0.72840  0.87630  0.96900  Biso   1.000  H
  H330     1.0000 0.78920  0.87630  0.99790  Biso   1.000  H
  C256     1.0000 0.70000  0.37050  0.22340  Biso   1.000  C
  H331     1.0000 0.72660  0.37920  0.19590  Biso   1.000  H
  C257     1.0000 0.67140  0.21200  0.22260  Biso   1.000  C
  H332     1.0000 0.65080  0.20990  0.25540  Biso   1.000  H
  C258     1.0000 0.64360  0.37520  0.28880  Biso   1.000  C
  H333     1.0000 0.62160  0.39020  0.31740  Biso   1.000  H
  C259     1.0000 0.72200  0.26670  0.15760  Biso   1.000  C
  H334     1.0000 0.73680  0.30220  0.14590  Biso   1.000  H
  C260     1.0000 0.73240  0.21730  0.12800  Biso   1.000  C
  H335     1.0000 0.75330  0.21960  0.09540  Biso   1.000  H
  H336     1.0000 0.62230  0.81710  0.12910  Biso   1.000  H
  H337     1.0000 0.57820  0.86120  0.15490  Biso   1.000  H
  H338     1.0000 0.58360  0.85580  0.09100  Biso   1.000  H
  O105     1.0000 0.27110  0.51550  0.03950  Biso   1.000  O
  O106     1.0000 0.29160  0.43720  0.13440  Biso   1.000  O
  O107     1.0000 0.25170  0.38380  0.06770  Biso   1.000  O
  O108     1.0000 0.36390  0.54640  0.11990  Biso   1.000  O
  N53      1.0000 0.32290  0.09180  0.25720  Biso   1.000  N
  N54      1.0000 0.32100  0.18300  0.23460  Biso   1.000  N
  C261     1.0000 0.27540  0.39110  0.11330  Biso   1.000  C
  C262     1.0000 0.35590  0.17960  0.27650  Biso   1.000  C
  H339     1.0000 0.37590  0.20960  0.29370  Biso   1.000  H
  C263     1.0000 0.31060  0.23660  0.20490  Biso   1.000  C
  C264     1.0000 0.28760  0.33550  0.14580  Biso   1.000  C
  C265     1.0000 0.31750  0.33890  0.19380  Biso   1.000  C
  H340     1.0000 0.33030  0.37460  0.20700  Biso   1.000  H
  H341     1.0000 0.26770  0.62370  0.03310  Biso   1.000  H
  H342     1.0000 0.27160  0.62370  0.96900  Biso   1.000  H
  H343     1.0000 0.21080  0.62370  0.99790  Biso   1.000  H
  C266     1.0000 0.30000  0.12950  0.22340  Biso   1.000  C
  H344     1.0000 0.27340  0.12080  0.19590  Biso   1.000  H
  C267     1.0000 0.32860  0.28800  0.22260  Biso   1.000  C
  H345     1.0000 0.34920  0.29010  0.25540  Biso   1.000  H
  C268     1.0000 0.35640  0.12480  0.28880  Biso   1.000  C
  H346     1.0000 0.37840  0.10980  0.31740  Biso   1.000  H
  C269     1.0000 0.27800  0.23330  0.15760  Biso   1.000  C
  H347     1.0000 0.26320  0.19780  0.14590  Biso   1.000  H
  C270     1.0000 0.26760  0.28270  0.12800  Biso   1.000  C
  H348     1.0000 0.24670  0.28040  0.09540  Biso   1.000  H
  H349     1.0000 0.37770  0.68290  0.12910  Biso   1.000  H
  H350     1.0000 0.42180  0.63880  0.15490  Biso   1.000  H
  H351     1.0000 0.41640  0.64420  0.09100  Biso   1.000  H
  O109     1.0000 0.77110  0.01550  0.53950  Biso   1.000  O
  O110     1.0000 0.79160  0.93720  0.63440  Biso   1.000  O
  O111     1.0000 0.75170  0.88380  0.56770  Biso   1.000  O
  O112     1.0000 0.86390  0.04640  0.61990  Biso   1.000  O
  N55      1.0000 0.82290  0.59180  0.75720  Biso   1.000  N
  N56      1.0000 0.82100  0.68300  0.73460  Biso   1.000  N
  C271     1.0000 0.77540  0.89110  0.61330  Biso   1.000  C
  C272     1.0000 0.85590  0.67960  0.77650  Biso   1.000  C
  H352     1.0000 0.87590  0.70960  0.79370  Biso   1.000  H
  C273     1.0000 0.81060  0.73660  0.70490  Biso   1.000  C
  C274     1.0000 0.78760  0.83550  0.64580  Biso   1.000  C
  C275     1.0000 0.81750  0.83890  0.69380  Biso   1.000  C
  H353     1.0000 0.83030  0.87460  0.70700  Biso   1.000  H
  H354     1.0000 0.76770  0.12370  0.53310  Biso   1.000  H
  H355     1.0000 0.77160  0.12370  0.46900  Biso   1.000  H
  H356     1.0000 0.71080  0.12370  0.49790  Biso   1.000  H
  C276     1.0000 0.80000  0.62950  0.72340  Biso   1.000  C
  H357     1.0000 0.77340  0.62080  0.69590  Biso   1.000  H
  C277     1.0000 0.82860  0.78800  0.72260  Biso   1.000  C
  H358     1.0000 0.84920  0.79010  0.75540  Biso   1.000  H
  C278     1.0000 0.85640  0.62480  0.78880  Biso   1.000  C
  H359     1.0000 0.87840  0.60980  0.81740  Biso   1.000  H
  C279     1.0000 0.77800  0.73330  0.65760  Biso   1.000  C
  H360     1.0000 0.76320  0.69780  0.64590  Biso   1.000  H
  C280     1.0000 0.76760  0.78270  0.62800  Biso   1.000  C
  H361     1.0000 0.74670  0.78040  0.59540  Biso   1.000  H
  H362     1.0000 0.87770  0.18290  0.62910  Biso   1.000  H
  H363     1.0000 0.92180  0.13880  0.65490  Biso   1.000  H
  H364     1.0000 0.91640  0.14420  0.59100  Biso   1.000  H
  O113     1.0000 0.23450  0.52110  0.78950  Biso   1.000  O
  O114     1.0000 0.31280  0.54160  0.88440  Biso   1.000  O
  O115     1.0000 0.36620  0.50170  0.81770  Biso   1.000  O
  O116     1.0000 0.20360  0.61390  0.86990  Biso   1.000  O
  N57      1.0000 0.65820  0.57290  0.00720  Biso   1.000  N
  N58      1.0000 0.56700  0.57100  0.98460  Biso   1.000  N
  C281     1.0000 0.35890  0.52540  0.86330  Biso   1.000  C
  C282     1.0000 0.57040  0.60590  0.02650  Biso   1.000  C
  H365     1.0000 0.54040  0.62590  0.04370  Biso   1.000  H
  C283     1.0000 0.51340  0.56060  0.95490  Biso   1.000  C
  C284     1.0000 0.41450  0.53760  0.89580  Biso   1.000  C
  C285     1.0000 0.41110  0.56750  0.94380  Biso   1.000  C
  H366     1.0000 0.37540  0.58030  0.95700  Biso   1.000  H
  H367     1.0000 0.12630  0.51770  0.78310  Biso   1.000  H
  H368     1.0000 0.12630  0.52160  0.71900  Biso   1.000  H
  H369     1.0000 0.12630  0.46080  0.74790  Biso   1.000  H
  C286     1.0000 0.62050  0.55000  0.97340  Biso   1.000  C
  H370     1.0000 0.62920  0.52340  0.94590  Biso   1.000  H
  C287     1.0000 0.46200  0.57860  0.97260  Biso   1.000  C
  H371     1.0000 0.45990  0.59920  0.00540  Biso   1.000  H
  C288     1.0000 0.62520  0.60640  0.03880  Biso   1.000  C
  H372     1.0000 0.64020  0.62840  0.06740  Biso   1.000  H
  C289     1.0000 0.51670  0.52800  0.90760  Biso   1.000  C
  H373     1.0000 0.55220  0.51320  0.89590  Biso   1.000  H
  C290     1.0000 0.46730  0.51760  0.87800  Biso   1.000  C
  H374     1.0000 0.46960  0.49670  0.84540  Biso   1.000  H
  H375     1.0000 0.06710  0.62770  0.87910  Biso   1.000  H
  H376     1.0000 0.11120  0.67180  0.90490  Biso   1.000  H
  H377     1.0000 0.10580  0.66640  0.84100  Biso   1.000  H
  O117     1.0000 0.73450  0.02110  0.28950  Biso   1.000  O
  O118     1.0000 0.81280  0.04160  0.38440  Biso   1.000  O
  O119     1.0000 0.86620  0.00170  0.31770  Biso   1.000  O
  O120     1.0000 0.70360  0.11390  0.36990  Biso   1.000  O
  N59      1.0000 0.15820  0.07290  0.50720  Biso   1.000  N
  N60      1.0000 0.06700  0.07100  0.48460  Biso   1.000  N
  C291     1.0000 0.85890  0.02540  0.36330  Biso   1.000  C
  C292     1.0000 0.07040  0.10590  0.52650  Biso   1.000  C
  H378     1.0000 0.04040  0.12590  0.54370  Biso   1.000  H
  C293     1.0000 0.01340  0.06060  0.45490  Biso   1.000  C
  C294     1.0000 0.91450  0.03760  0.39580  Biso   1.000  C
  C295     1.0000 0.91110  0.06750  0.44380  Biso   1.000  C
  H379     1.0000 0.87540  0.08030  0.45700  Biso   1.000  H
  H380     1.0000 0.62630  0.01770  0.28310  Biso   1.000  H
  H381     1.0000 0.62630  0.02160  0.21900  Biso   1.000  H
  H382     1.0000 0.62630  0.96080  0.24790  Biso   1.000  H
  C296     1.0000 0.12050  0.05000  0.47340  Biso   1.000  C
  H383     1.0000 0.12920  0.02340  0.44590  Biso   1.000  H
  C297     1.0000 0.96200  0.07860  0.47260  Biso   1.000  C
  H384     1.0000 0.95990  0.09920  0.50540  Biso   1.000  H
  C298     1.0000 0.12520  0.10640  0.53880  Biso   1.000  C
  H385     1.0000 0.14020  0.12840  0.56740  Biso   1.000  H
  C299     1.0000 0.01670  0.02800  0.40760  Biso   1.000  C
  H386     1.0000 0.05220  0.01320  0.39590  Biso   1.000  H
  C300     1.0000 0.96730  0.01760  0.37800  Biso   1.000  C
  H387     1.0000 0.96960  0.99670  0.34540  Biso   1.000  H
  H388     1.0000 0.56710  0.12770  0.37910  Biso   1.000  H
  H389     1.0000 0.61120  0.17180  0.40490  Biso   1.000  H
  H390     1.0000 0.60580  0.16640  0.34100  Biso   1.000  H
  O121     1.0000 0.26550  0.47890  0.28950  Biso   1.000  O
  O122     1.0000 0.18720  0.45840  0.38440  Biso   1.000  O
  O123     1.0000 0.13380  0.49830  0.31770  Biso   1.000  O
  O124     1.0000 0.29640  0.38610  0.36990  Biso   1.000  O
  N61      1.0000 0.84180  0.42710  0.50720  Biso   1.000  N
  N62      1.0000 0.93300  0.42900  0.48460  Biso   1.000  N
  C301     1.0000 0.14110  0.47460  0.36330  Biso   1.000  C
  C302     1.0000 0.92960  0.39410  0.52650  Biso   1.000  C
  H391     1.0000 0.95960  0.37410  0.54370  Biso   1.000  H
  C303     1.0000 0.98660  0.43940  0.45490  Biso   1.000  C
  C304     1.0000 0.08550  0.46240  0.39580  Biso   1.000  C
  C305     1.0000 0.08890  0.43250  0.44380  Biso   1.000  C
  H392     1.0000 0.12460  0.41970  0.45700  Biso   1.000  H
  H393     1.0000 0.37370  0.48230  0.28310  Biso   1.000  H
  H394     1.0000 0.37370  0.47840  0.21900  Biso   1.000  H
  H395     1.0000 0.37370  0.53920  0.24790  Biso   1.000  H
  C306     1.0000 0.87950  0.45000  0.47340  Biso   1.000  C
  H396     1.0000 0.87080  0.47660  0.44590  Biso   1.000  H
  C307     1.0000 0.03800  0.42140  0.47260  Biso   1.000  C
  H397     1.0000 0.04010  0.40080  0.50540  Biso   1.000  H
  C308     1.0000 0.87480  0.39360  0.53880  Biso   1.000  C
  H398     1.0000 0.85980  0.37160  0.56740  Biso   1.000  H
  C309     1.0000 0.98330  0.47200  0.40760  Biso   1.000  C
  H399     1.0000 0.94780  0.48680  0.39590  Biso   1.000  H
  C310     1.0000 0.03270  0.48240  0.37800  Biso   1.000  C
  H400     1.0000 0.03040  0.50330  0.34540  Biso   1.000  H
  H401     1.0000 0.43290  0.37230  0.37910  Biso   1.000  H
  H402     1.0000 0.38880  0.32820  0.40490  Biso   1.000  H
  H403     1.0000 0.39420  0.33360  0.34100  Biso   1.000  H
  O125     1.0000 0.76550  0.97890  0.78950  Biso   1.000  O
  O126     1.0000 0.68720  0.95840  0.88440  Biso   1.000  O
  O127     1.0000 0.63380  0.99830  0.81770  Biso   1.000  O
  O128     1.0000 0.79640  0.88610  0.86990  Biso   1.000  O
  N63      1.0000 0.34180  0.92710  0.00720  Biso   1.000  N
  N64      1.0000 0.43300  0.92900  0.98460  Biso   1.000  N
  C311     1.0000 0.64110  0.97460  0.86330  Biso   1.000  C
  C312     1.0000 0.42960  0.89410  0.02650  Biso   1.000  C
  H404     1.0000 0.45960  0.87410  0.04370  Biso   1.000  H
  C313     1.0000 0.48660  0.93940  0.95490  Biso   1.000  C
  C314     1.0000 0.58550  0.96240  0.89580  Biso   1.000  C
  C315     1.0000 0.58890  0.93250  0.94380  Biso   1.000  C
  H405     1.0000 0.62460  0.91970  0.95700  Biso   1.000  H
  H406     1.0000 0.87370  0.98230  0.78310  Biso   1.000  H
  H407     1.0000 0.87370  0.97840  0.71900  Biso   1.000  H
  H408     1.0000 0.87370  0.03920  0.74790  Biso   1.000  H
  C316     1.0000 0.37950  0.95000  0.97340  Biso   1.000  C
  H409     1.0000 0.37080  0.97660  0.94590  Biso   1.000  H
  C317     1.0000 0.53800  0.92140  0.97260  Biso   1.000  C
  H410     1.0000 0.54010  0.90080  0.00540  Biso   1.000  H
  C318     1.0000 0.37480  0.89360  0.03880  Biso   1.000  C
  H411     1.0000 0.35980  0.87160  0.06740  Biso   1.000  H
  C319     1.0000 0.48330  0.97200  0.90760  Biso   1.000  C
  H412     1.0000 0.44780  0.98680  0.89590  Biso   1.000  H
  C320     1.0000 0.53270  0.98240  0.87800  Biso   1.000  C
  H413     1.0000 0.53040  0.00330  0.84540  Biso   1.000  H
  H414     1.0000 0.93290  0.87230  0.87910  Biso   1.000  H
  H415     1.0000 0.88880  0.82820  0.90490  Biso   1.000  H
  H416     1.0000 0.89420  0.83360  0.84100  Biso   1.000  H
  Co1      1.0000 0.72621  0.52379  0.62500  Biso   1.000  Co
  C321     1.0000 0.65170  0.59830  0.62500  Biso   1.000  C
  C322     1.0000 0.60450  0.64550  0.62500  Biso   1.000  C
  Co2      1.0000 0.22621  0.02379  0.12500  Biso   1.000  Co
  C323     1.0000 0.15170  0.09830  0.12500  Biso   1.000  C
  C324     1.0000 0.10450  0.14550  0.12500  Biso   1.000  C
  Co3      1.0000 0.77379  0.47621  0.12500  Biso   1.000  Co
  C325     1.0000 0.84830  0.40170  0.12500  Biso   1.000  C
  C326     1.0000 0.89550  0.35450  0.12500  Biso   1.000  C
  Co4      1.0000 0.27379  0.97621  0.62500  Biso   1.000  Co
  C327     1.0000 0.34830  0.90170  0.62500  Biso   1.000  C
  C328     1.0000 0.39550  0.85450  0.62500  Biso   1.000  C
  Co5      1.0000 0.72621  0.47621  0.87500  Biso   1.000  Co
  C329     1.0000 0.65170  0.40170  0.87500  Biso   1.000  C
  C330     1.0000 0.60450  0.35450  0.87500  Biso   1.000  C
  Co6      1.0000 0.22621  0.97621  0.37500  Biso   1.000  Co
  C331     1.0000 0.15170  0.90170  0.37500  Biso   1.000  C
  C332     1.0000 0.10450  0.85450  0.37500  Biso   1.000  C
  Co7      1.0000 0.77379  0.52379  0.37500  Biso   1.000  Co
  C333     1.0000 0.84830  0.59830  0.37500  Biso   1.000  C
  C334     1.0000 0.89550  0.64550  0.37500  Biso   1.000  C
  Co8      1.0000 0.27379  0.02379  0.87500  Biso   1.000  Co
  C335     1.0000 0.34830  0.09830  0.87500  Biso   1.000  C
  C336     1.0000 0.39550  0.14550  0.87500  Biso   1.000  C
  Co9      1.0000 0.27379  0.47621  0.37500  Biso   1.000  Co
  C337     1.0000 0.34830  0.40170  0.37500  Biso   1.000  C
  C338     1.0000 0.39550  0.35450  0.37500  Biso   1.000  C
  Co10     1.0000 0.77379  0.97621  0.87500  Biso   1.000  Co
  C339     1.0000 0.84830  0.90170  0.87500  Biso   1.000  C
  C340     1.0000 0.89550  0.85450  0.87500  Biso   1.000  C
  Co11     1.0000 0.22621  0.52379  0.87500  Biso   1.000  Co
  C341     1.0000 0.15170  0.59830  0.87500  Biso   1.000  C
  C342     1.0000 0.10450  0.64550  0.87500  Biso   1.000  C
  Co12     1.0000 0.72621  0.02379  0.37500  Biso   1.000  Co
  C343     1.0000 0.65170  0.09830  0.37500  Biso   1.000  C
  C344     1.0000 0.60450  0.14550  0.37500  Biso   1.000  C
  Co13     1.0000 0.27379  0.52379  0.12500  Biso   1.000  Co
  C345     1.0000 0.34830  0.59830  0.12500  Biso   1.000  C
  C346     1.0000 0.39550  0.64550  0.12500  Biso   1.000  C
  Co14     1.0000 0.77379  0.02379  0.62500  Biso   1.000  Co
  C347     1.0000 0.84830  0.09830  0.62500  Biso   1.000  C
  C348     1.0000 0.89550  0.14550  0.62500  Biso   1.000  C
  Co15     1.0000 0.22621  0.47621  0.62500  Biso   1.000  Co
  C349     1.0000 0.15170  0.40170  0.62500  Biso   1.000  C
  C350     1.0000 0.10450  0.35450  0.62500  Biso   1.000  C
  Co16     1.0000 0.72621  0.97621  0.12500  Biso   1.000  Co
  C351     1.0000 0.65170  0.90170  0.12500  Biso   1.000  C
  C352     1.0000 0.60450  0.85450  0.12500  Biso   1.000  C
  Co17     1.0000 0.75000  0.43353  0.50000  Biso   1.000  Co
  C353     1.0000 0.75000  0.54390  0.50000  Biso   1.000  C
  C354     1.0000 0.75000  0.60980  0.50000  Biso   1.000  C
  Co18     1.0000 0.25000  0.93353  0.00000  Biso   1.000  Co
  C355     1.0000 0.25000  0.04390  0.00000  Biso   1.000  C
  C356     1.0000 0.25000  0.10980  0.00000  Biso   1.000  C
  Co19     1.0000 0.75000  0.56647  0.00000  Biso   1.000  Co
  C357     1.0000 0.75000  0.45610  0.00000  Biso   1.000  C
  C358     1.0000 0.75000  0.39020  0.00000  Biso   1.000  C
  Co20     1.0000 0.25000  0.06647  0.50000  Biso   1.000  Co
  C359     1.0000 0.25000  0.95610  0.50000  Biso   1.000  C
  C360     1.0000 0.25000  0.89020  0.50000  Biso   1.000  C
  Co21     1.0000 0.81647  0.50000  0.75000  Biso   1.000  Co
  C361     1.0000 0.70610  0.50000  0.75000  Biso   1.000  C
  C362     1.0000 0.64020  0.50000  0.75000  Biso   1.000  C
  Co22     1.0000 0.31647  0.00000  0.25000  Biso   1.000  Co
  C363     1.0000 0.20610  0.00000  0.25000  Biso   1.000  C
  C364     1.0000 0.14020  0.00000  0.25000  Biso   1.000  C
  Co23     1.0000 0.68353  0.50000  0.25000  Biso   1.000  Co
  C365     1.0000 0.79390  0.50000  0.25000  Biso   1.000  C
  C366     1.0000 0.85980  0.50000  0.25000  Biso   1.000  C
  Co24     1.0000 0.18353  0.00000  0.75000  Biso   1.000  Co
  C367     1.0000 0.29390  0.00000  0.75000  Biso   1.000  C
  C368     1.0000 0.35980  0.00000  0.75000  Biso   1.000  C
  Co25     1.0000 0.25000  0.56647  0.50000  Biso   1.000  Co
  C369     1.0000 0.25000  0.45610  0.50000  Biso   1.000  C
  C370     1.0000 0.25000  0.39020  0.50000  Biso   1.000  C
  Co26     1.0000 0.75000  0.06647  0.00000  Biso   1.000  Co
  C371     1.0000 0.75000  0.95610  0.00000  Biso   1.000  C
  C372     1.0000 0.75000  0.89020  0.00000  Biso   1.000  C
  Co27     1.0000 0.25000  0.43353  0.00000  Biso   1.000  Co
  C373     1.0000 0.25000  0.54390  0.00000  Biso   1.000  C
  C374     1.0000 0.25000  0.60980  0.00000  Biso   1.000  C
  Co28     1.0000 0.75000  0.93353  0.50000  Biso   1.000  Co
  C375     1.0000 0.75000  0.04390  0.50000  Biso   1.000  C
  C376     1.0000 0.75000  0.10980  0.50000  Biso   1.000  C
  Co29     1.0000 0.18353  0.50000  0.25000  Biso   1.000  Co
  C377     1.0000 0.29390  0.50000  0.25000  Biso   1.000  C
  C378     1.0000 0.35980  0.50000  0.25000  Biso   1.000  C
  Co30     1.0000 0.68353  0.00000  0.75000  Biso   1.000  Co
  C379     1.0000 0.79390  0.00000  0.75000  Biso   1.000  C
  C380     1.0000 0.85980  0.00000  0.75000  Biso   1.000  C
  Co31     1.0000 0.31647  0.50000  0.75000  Biso   1.000  Co
  C381     1.0000 0.20610  0.50000  0.75000  Biso   1.000  C
  C382     1.0000 0.14020  0.50000  0.75000  Biso   1.000  C
  Co32     1.0000 0.81647  0.00000  0.25000  Biso   1.000  Co
  C383     1.0000 0.70610  0.00000  0.25000  Biso   1.000  C
  C384     1.0000 0.64020  0.00000  0.25000  Biso   1.000  C
