data_image0
_cell_length_a       34.6957
_cell_length_b       34.6957
_cell_length_c       41.0328
_cell_angle_alpha    90
_cell_angle_beta     90
_cell_angle_gamma    90

_symmetry_space_group_name_H-M    "P 1"
_symmetry_int_tables_number       1

loop_
  _symmetry_equiv_pos_as_xyz
  'x, y, z'

loop_
  _atom_site_label
  _atom_site_occupancy
  _atom_site_fract_x
  _atom_site_fract_y
  _atom_site_fract_z
  _atom_site_thermal_displace_type
  _atom_site_B_iso_or_equiv
  _atom_site_type_symbol
  Zn1      1.0000 0.30236  0.26245  0.74717  Biso   1.000  Zn
  Zn2      1.0000 0.76254  0.19783  0.61923  Biso   1.000  Zn
  O1       1.0000 0.29064  0.31706  0.74227  Biso   1.000  O
  O2       1.0000 0.25057  0.30903  0.70085  Biso   1.000  O
  O3       1.0000 0.20215  0.63874  0.71755  Biso   1.000  O
  O4       1.0000 0.25786  0.64146  0.74277  Biso   1.000  O
  O5       1.0000 0.80725  0.25384  0.66550  Biso   1.000  O
  O6       1.0000 0.81628  0.20916  0.62507  Biso   1.000  O
  O7       1.0000 0.14127  0.24043  0.62312  Biso   1.000  O
  O8       1.0000 0.14013  0.29732  0.64694  Biso   1.000  O
  O9       1.0000 0.29209  0.25448  0.79443  Biso   1.000  O
  O10      1.0000 0.29210  0.25169  0.07312  Biso   1.000  O
  C1       1.0000 0.26900  0.32983  0.72114  Biso   1.000  C
  C2       1.0000 0.25890  0.37170  0.72218  Biso   1.000  C
  H1       1.0000 0.24050  0.38040  0.70750  Biso   1.000  H
  C3       1.0000 0.27360  0.39665  0.74173  Biso   1.000  C
  H2       1.0000 0.29100  0.38700  0.75700  Biso   1.000  H
  C4       1.0000 0.26682  0.43786  0.74317  Biso   1.000  C
  C5       1.0000 0.29182  0.46045  0.76150  Biso   1.000  C
  H3       1.0000 0.31140  0.44890  0.77350  Biso   1.000  H
  C6       1.0000 0.28755  0.50028  0.76187  Biso   1.000  C
  H4       1.0000 0.30430  0.51540  0.77410  Biso   1.000  H
  C7       1.0000 0.25827  0.51752  0.74392  Biso   1.000  C
  C8       1.0000 0.23326  0.49493  0.72560  Biso   1.000  C
  H5       1.0000 0.21370  0.50650  0.71360  Biso   1.000  H
  C9       1.0000 0.23754  0.45510  0.72523  Biso   1.000  C
  H6       1.0000 0.22080  0.44000  0.71300  Biso   1.000  H
  C10      1.0000 0.25690  0.55995  0.74100  Biso   1.000  C
  H7       1.0000 0.27900  0.57230  0.74840  Biso   1.000  H
  C11      1.0000 0.23170  0.58238  0.73050  Biso   1.000  C
  H8       1.0000 0.21040  0.57080  0.72090  Biso   1.000  H
  C12      1.0000 0.23130  0.62381  0.73140  Biso   1.000  C
  C13      1.0000 0.82830  0.23780  0.64587  Biso   1.000  C
  C14      1.0000 0.87080  0.24620  0.64600  Biso   1.000  C
  H9       1.0000 0.88010  0.26780  0.65690  Biso   1.000  H
  C15      1.0000 0.89540  0.22250  0.63040  Biso   1.000  C
  H10      1.0000 0.88500  0.20210  0.61860  Biso   1.000  H
  C16      1.0000 0.93981  0.22672  0.63086  Biso   1.000  C
  C17      1.0000 0.95626  0.26237  0.63762  Biso   1.000  C
  H11      1.0000 0.94070  0.28310  0.64330  Biso   1.000  H
  C18      1.0000 0.99600  0.26700  0.63585  Biso   1.000  C
  H12      1.0000 0.00700  0.29090  0.64040  Biso   1.000  H
  C19      1.0000 0.01930  0.23600  0.62731  Biso   1.000  C
  C20      1.0000 0.00280  0.20040  0.62056  Biso   1.000  C
  H13      1.0000 0.01840  0.17960  0.61480  Biso   1.000  H
  C21      1.0000 0.96309  0.19572  0.62233  Biso   1.000  C
  H14      1.0000 0.95210  0.17190  0.61780  Biso   1.000  H
  C22      1.0000 0.06050  0.24200  0.62410  Biso   1.000  C
  H15      1.0000 0.07360  0.22360  0.61190  Biso   1.000  H
  C23      1.0000 0.08130  0.26940  0.63589  Biso   1.000  C
  H16      1.0000 0.06860  0.29030  0.64520  Biso   1.000  H
  C24      1.0000 0.12490  0.27000  0.63556  Biso   1.000  C
  H17      1.0000 0.25700  0.20940  0.85080  Biso   1.000  H
  C25      1.0000 0.27540  0.25310  0.86810  Biso   1.000  C
  H18      1.0000 0.28750  0.27560  0.86120  Biso   1.000  H
  C26      1.0000 0.27220  0.25370  0.90322  Biso   1.000  C
  C27      1.0000 0.30060  0.27540  0.91847  Biso   1.000  C
  H19      1.0000 0.31440  0.29370  0.90670  Biso   1.000  H
  C28      1.0000 0.30830  0.26990  0.95140  Biso   1.000  C
  H20      1.0000 0.32730  0.28450  0.96160  Biso   1.000  H
  C29      1.0000 0.28770  0.24260  0.96903  Biso   1.000  C
  C30      1.0000 0.27910  0.24070  0.95378  Biso   1.000  C
  H21      1.0000 0.29740  0.25450  0.96560  Biso   1.000  H
  C31      1.0000 0.25160  0.22640  0.92088  Biso   1.000  C
  H22      1.0000 0.28820  0.26740  0.91070  Biso   1.000  H
  C32      1.0000 0.28950  0.24560  0.00260  Biso   1.000  C
  H23      1.0000 0.30400  0.26610  0.01060  Biso   1.000  H
  H24      1.0000 0.29730  0.23600  0.01480  Biso   1.000  H
  Zn3      1.0000 0.80236  0.76245  0.24717  Biso   1.000  Zn
  Zn4      1.0000 0.26254  0.69783  0.11923  Biso   1.000  Zn
  O11      1.0000 0.79064  0.81706  0.24227  Biso   1.000  O
  O12      1.0000 0.75057  0.80903  0.20085  Biso   1.000  O
  O13      1.0000 0.70215  0.13874  0.21755  Biso   1.000  O
  O14      1.0000 0.75786  0.14146  0.24277  Biso   1.000  O
  O15      1.0000 0.30725  0.75384  0.16550  Biso   1.000  O
  O16      1.0000 0.31628  0.70916  0.12507  Biso   1.000  O
  O17      1.0000 0.64127  0.74043  0.12312  Biso   1.000  O
  O18      1.0000 0.64013  0.79732  0.14694  Biso   1.000  O
  O19      1.0000 0.79209  0.75448  0.29443  Biso   1.000  O
  O20      1.0000 0.79210  0.75169  0.57312  Biso   1.000  O
  C33      1.0000 0.76900  0.82983  0.22114  Biso   1.000  C
  C34      1.0000 0.75890  0.87170  0.22218  Biso   1.000  C
  H25      1.0000 0.74050  0.88040  0.20750  Biso   1.000  H
  C35      1.0000 0.77360  0.89665  0.24173  Biso   1.000  C
  H26      1.0000 0.79100  0.88700  0.25700  Biso   1.000  H
  C36      1.0000 0.76682  0.93786  0.24317  Biso   1.000  C
  C37      1.0000 0.79182  0.96045  0.26150  Biso   1.000  C
  H27      1.0000 0.81140  0.94890  0.27350  Biso   1.000  H
  C38      1.0000 0.78755  0.00028  0.26187  Biso   1.000  C
  H28      1.0000 0.80430  0.01540  0.27410  Biso   1.000  H
  C39      1.0000 0.75827  0.01752  0.24392  Biso   1.000  C
  C40      1.0000 0.73326  0.99493  0.22560  Biso   1.000  C
  H29      1.0000 0.71370  0.00650  0.21360  Biso   1.000  H
  C41      1.0000 0.73754  0.95510  0.22523  Biso   1.000  C
  H30      1.0000 0.72080  0.94000  0.21300  Biso   1.000  H
  C42      1.0000 0.75690  0.05995  0.24100  Biso   1.000  C
  H31      1.0000 0.77900  0.07230  0.24840  Biso   1.000  H
  C43      1.0000 0.73170  0.08238  0.23050  Biso   1.000  C
  H32      1.0000 0.71040  0.07080  0.22090  Biso   1.000  H
  C44      1.0000 0.73130  0.12381  0.23140  Biso   1.000  C
  C45      1.0000 0.32830  0.73780  0.14587  Biso   1.000  C
  C46      1.0000 0.37080  0.74620  0.14600  Biso   1.000  C
  H33      1.0000 0.38010  0.76780  0.15690  Biso   1.000  H
  C47      1.0000 0.39540  0.72250  0.13040  Biso   1.000  C
  H34      1.0000 0.38500  0.70210  0.11860  Biso   1.000  H
  C48      1.0000 0.43981  0.72672  0.13086  Biso   1.000  C
  C49      1.0000 0.45626  0.76237  0.13762  Biso   1.000  C
  H35      1.0000 0.44070  0.78310  0.14330  Biso   1.000  H
  C50      1.0000 0.49600  0.76700  0.13585  Biso   1.000  C
  H36      1.0000 0.50700  0.79090  0.14040  Biso   1.000  H
  C51      1.0000 0.51930  0.73600  0.12731  Biso   1.000  C
  C52      1.0000 0.50280  0.70040  0.12056  Biso   1.000  C
  H37      1.0000 0.51840  0.67960  0.11480  Biso   1.000  H
  C53      1.0000 0.46309  0.69572  0.12233  Biso   1.000  C
  H38      1.0000 0.45210  0.67190  0.11780  Biso   1.000  H
  C54      1.0000 0.56050  0.74200  0.12410  Biso   1.000  C
  H39      1.0000 0.57360  0.72360  0.11190  Biso   1.000  H
  C55      1.0000 0.58130  0.76940  0.13589  Biso   1.000  C
  H40      1.0000 0.56860  0.79030  0.14520  Biso   1.000  H
  C56      1.0000 0.62490  0.77000  0.13556  Biso   1.000  C
  H41      1.0000 0.75700  0.70940  0.35080  Biso   1.000  H
  C57      1.0000 0.77540  0.75310  0.36810  Biso   1.000  C
  H42      1.0000 0.78750  0.77560  0.36120  Biso   1.000  H
  C58      1.0000 0.77220  0.75370  0.40322  Biso   1.000  C
  C59      1.0000 0.80060  0.77540  0.41847  Biso   1.000  C
  H43      1.0000 0.81440  0.79370  0.40670  Biso   1.000  H
  C60      1.0000 0.80830  0.76990  0.45140  Biso   1.000  C
  H44      1.0000 0.82730  0.78450  0.46160  Biso   1.000  H
  C61      1.0000 0.78770  0.74260  0.46903  Biso   1.000  C
  C62      1.0000 0.77910  0.74070  0.45378  Biso   1.000  C
  H45      1.0000 0.79740  0.75450  0.46560  Biso   1.000  H
  C63      1.0000 0.75160  0.72640  0.42088  Biso   1.000  C
  H46      1.0000 0.78820  0.76740  0.41070  Biso   1.000  H
  C64      1.0000 0.78950  0.74560  0.50260  Biso   1.000  C
  H47      1.0000 0.80400  0.76610  0.51060  Biso   1.000  H
  H48      1.0000 0.79730  0.73600  0.51480  Biso   1.000  H
  Zn5      1.0000 0.69764  0.73755  0.74717  Biso   1.000  Zn
  Zn6      1.0000 0.23746  0.80217  0.61923  Biso   1.000  Zn
  O21      1.0000 0.70936  0.68294  0.74227  Biso   1.000  O
  O22      1.0000 0.74943  0.69097  0.70085  Biso   1.000  O
  O23      1.0000 0.79785  0.36126  0.71755  Biso   1.000  O
  O24      1.0000 0.74214  0.35854  0.74277  Biso   1.000  O
  O25      1.0000 0.19275  0.74616  0.66550  Biso   1.000  O
  O26      1.0000 0.18372  0.79084  0.62507  Biso   1.000  O
  O27      1.0000 0.85873  0.75957  0.62312  Biso   1.000  O
  O28      1.0000 0.85987  0.70268  0.64694  Biso   1.000  O
  O29      1.0000 0.70791  0.74552  0.79443  Biso   1.000  O
  O30      1.0000 0.70790  0.74831  0.07312  Biso   1.000  O
  C65      1.0000 0.73100  0.67017  0.72114  Biso   1.000  C
  C66      1.0000 0.74110  0.62830  0.72218  Biso   1.000  C
  H49      1.0000 0.75950  0.61960  0.70750  Biso   1.000  H
  C67      1.0000 0.72640  0.60335  0.74173  Biso   1.000  C
  H50      1.0000 0.70900  0.61300  0.75700  Biso   1.000  H
  C68      1.0000 0.73318  0.56214  0.74317  Biso   1.000  C
  C69      1.0000 0.70818  0.53955  0.76150  Biso   1.000  C
  H51      1.0000 0.68860  0.55110  0.77350  Biso   1.000  H
  C70      1.0000 0.71245  0.49972  0.76187  Biso   1.000  C
  H52      1.0000 0.69570  0.48460  0.77410  Biso   1.000  H
  C71      1.0000 0.74173  0.48248  0.74392  Biso   1.000  C
  C72      1.0000 0.76674  0.50507  0.72560  Biso   1.000  C
  H53      1.0000 0.78630  0.49350  0.71360  Biso   1.000  H
  C73      1.0000 0.76246  0.54490  0.72523  Biso   1.000  C
  H54      1.0000 0.77920  0.56000  0.71300  Biso   1.000  H
  C74      1.0000 0.74310  0.44005  0.74100  Biso   1.000  C
  H55      1.0000 0.72100  0.42770  0.74840  Biso   1.000  H
  C75      1.0000 0.76830  0.41762  0.73050  Biso   1.000  C
  H56      1.0000 0.78960  0.42920  0.72090  Biso   1.000  H
  C76      1.0000 0.76870  0.37619  0.73140  Biso   1.000  C
  C77      1.0000 0.17170  0.76220  0.64587  Biso   1.000  C
  C78      1.0000 0.12920  0.75380  0.64600  Biso   1.000  C
  H57      1.0000 0.11990  0.73220  0.65690  Biso   1.000  H
  C79      1.0000 0.10460  0.77750  0.63040  Biso   1.000  C
  H58      1.0000 0.11500  0.79790  0.61860  Biso   1.000  H
  C80      1.0000 0.06019  0.77328  0.63086  Biso   1.000  C
  C81      1.0000 0.04374  0.73763  0.63762  Biso   1.000  C
  H59      1.0000 0.05930  0.71690  0.64330  Biso   1.000  H
  C82      1.0000 0.00400  0.73300  0.63585  Biso   1.000  C
  H60      1.0000 0.99300  0.70910  0.64040  Biso   1.000  H
  C83      1.0000 0.98070  0.76400  0.62731  Biso   1.000  C
  C84      1.0000 0.99720  0.79960  0.62056  Biso   1.000  C
  H61      1.0000 0.98160  0.82040  0.61480  Biso   1.000  H
  C85      1.0000 0.03691  0.80428  0.62233  Biso   1.000  C
  H62      1.0000 0.04790  0.82810  0.61780  Biso   1.000  H
  C86      1.0000 0.93950  0.75800  0.62410  Biso   1.000  C
  H63      1.0000 0.92640  0.77640  0.61190  Biso   1.000  H
  C87      1.0000 0.91870  0.73060  0.63589  Biso   1.000  C
  H64      1.0000 0.93140  0.70970  0.64520  Biso   1.000  H
  C88      1.0000 0.87510  0.73000  0.63556  Biso   1.000  C
  H65      1.0000 0.74300  0.79060  0.85080  Biso   1.000  H
  C89      1.0000 0.72460  0.74690  0.86810  Biso   1.000  C
  H66      1.0000 0.71250  0.72440  0.86120  Biso   1.000  H
  C90      1.0000 0.72780  0.74630  0.90322  Biso   1.000  C
  C91      1.0000 0.69940  0.72460  0.91847  Biso   1.000  C
  H67      1.0000 0.68560  0.70630  0.90670  Biso   1.000  H
  C92      1.0000 0.69170  0.73010  0.95140  Biso   1.000  C
  H68      1.0000 0.67270  0.71550  0.96160  Biso   1.000  H
  C93      1.0000 0.71230  0.75740  0.96903  Biso   1.000  C
  C94      1.0000 0.72090  0.75930  0.95378  Biso   1.000  C
  H69      1.0000 0.70260  0.74550  0.96560  Biso   1.000  H
  C95      1.0000 0.74840  0.77360  0.92088  Biso   1.000  C
  H70      1.0000 0.71180  0.73260  0.91070  Biso   1.000  H
  C96      1.0000 0.71050  0.75440  0.00260  Biso   1.000  C
  H71      1.0000 0.69600  0.73390  0.01060  Biso   1.000  H
  H72      1.0000 0.70270  0.76400  0.01480  Biso   1.000  H
  Zn7      1.0000 0.19764  0.23755  0.24717  Biso   1.000  Zn
  Zn8      1.0000 0.73746  0.30217  0.11923  Biso   1.000  Zn
  O31      1.0000 0.20936  0.18294  0.24227  Biso   1.000  O
  O32      1.0000 0.24943  0.19097  0.20085  Biso   1.000  O
  O33      1.0000 0.29785  0.86126  0.21755  Biso   1.000  O
  O34      1.0000 0.24214  0.85854  0.24277  Biso   1.000  O
  O35      1.0000 0.69275  0.24616  0.16550  Biso   1.000  O
  O36      1.0000 0.68372  0.29084  0.12507  Biso   1.000  O
  O37      1.0000 0.35873  0.25957  0.12312  Biso   1.000  O
  O38      1.0000 0.35987  0.20268  0.14694  Biso   1.000  O
  O39      1.0000 0.20791  0.24552  0.29443  Biso   1.000  O
  O40      1.0000 0.20790  0.24831  0.57312  Biso   1.000  O
  C97      1.0000 0.23100  0.17017  0.22114  Biso   1.000  C
  C98      1.0000 0.24110  0.12830  0.22218  Biso   1.000  C
  H73      1.0000 0.25950  0.11960  0.20750  Biso   1.000  H
  C99      1.0000 0.22640  0.10335  0.24173  Biso   1.000  C
  H74      1.0000 0.20900  0.11300  0.25700  Biso   1.000  H
  C100     1.0000 0.23318  0.06214  0.24317  Biso   1.000  C
  C101     1.0000 0.20818  0.03955  0.26150  Biso   1.000  C
  H75      1.0000 0.18860  0.05110  0.27350  Biso   1.000  H
  C102     1.0000 0.21245  0.99972  0.26187  Biso   1.000  C
  H76      1.0000 0.19570  0.98460  0.27410  Biso   1.000  H
  C103     1.0000 0.24173  0.98248  0.24392  Biso   1.000  C
  C104     1.0000 0.26674  0.00507  0.22560  Biso   1.000  C
  H77      1.0000 0.28630  0.99350  0.21360  Biso   1.000  H
  C105     1.0000 0.26246  0.04490  0.22523  Biso   1.000  C
  H78      1.0000 0.27920  0.06000  0.21300  Biso   1.000  H
  C106     1.0000 0.24310  0.94005  0.24100  Biso   1.000  C
  H79      1.0000 0.22100  0.92770  0.24840  Biso   1.000  H
  C107     1.0000 0.26830  0.91762  0.23050  Biso   1.000  C
  H80      1.0000 0.28960  0.92920  0.22090  Biso   1.000  H
  C108     1.0000 0.26870  0.87619  0.23140  Biso   1.000  C
  C109     1.0000 0.67170  0.26220  0.14587  Biso   1.000  C
  C110     1.0000 0.62920  0.25380  0.14600  Biso   1.000  C
  H81      1.0000 0.61990  0.23220  0.15690  Biso   1.000  H
  C111     1.0000 0.60460  0.27750  0.13040  Biso   1.000  C
  H82      1.0000 0.61500  0.29790  0.11860  Biso   1.000  H
  C112     1.0000 0.56019  0.27328  0.13086  Biso   1.000  C
  C113     1.0000 0.54374  0.23763  0.13762  Biso   1.000  C
  H83      1.0000 0.55930  0.21690  0.14330  Biso   1.000  H
  C114     1.0000 0.50400  0.23300  0.13585  Biso   1.000  C
  H84      1.0000 0.49300  0.20910  0.14040  Biso   1.000  H
  C115     1.0000 0.48070  0.26400  0.12731  Biso   1.000  C
  C116     1.0000 0.49720  0.29960  0.12056  Biso   1.000  C
  H85      1.0000 0.48160  0.32040  0.11480  Biso   1.000  H
  C117     1.0000 0.53691  0.30428  0.12233  Biso   1.000  C
  H86      1.0000 0.54790  0.32810  0.11780  Biso   1.000  H
  C118     1.0000 0.43950  0.25800  0.12410  Biso   1.000  C
  H87      1.0000 0.42640  0.27640  0.11190  Biso   1.000  H
  C119     1.0000 0.41870  0.23060  0.13589  Biso   1.000  C
  H88      1.0000 0.43140  0.20970  0.14520  Biso   1.000  H
  C120     1.0000 0.37510  0.23000  0.13556  Biso   1.000  C
  H89      1.0000 0.24300  0.29060  0.35080  Biso   1.000  H
  C121     1.0000 0.22460  0.24690  0.36810  Biso   1.000  C
  H90      1.0000 0.21250  0.22440  0.36120  Biso   1.000  H
  C122     1.0000 0.22780  0.24630  0.40322  Biso   1.000  C
  C123     1.0000 0.19940  0.22460  0.41847  Biso   1.000  C
  H91      1.0000 0.18560  0.20630  0.40670  Biso   1.000  H
  C124     1.0000 0.19170  0.23010  0.45140  Biso   1.000  C
  H92      1.0000 0.17270  0.21550  0.46160  Biso   1.000  H
  C125     1.0000 0.21230  0.25740  0.46903  Biso   1.000  C
  C126     1.0000 0.22090  0.25930  0.45378  Biso   1.000  C
  H93      1.0000 0.20260  0.24550  0.46560  Biso   1.000  H
  C127     1.0000 0.24840  0.27360  0.42088  Biso   1.000  C
  H94      1.0000 0.21180  0.23260  0.41070  Biso   1.000  H
  C128     1.0000 0.21050  0.25440  0.50260  Biso   1.000  C
  H95      1.0000 0.19600  0.23390  0.51060  Biso   1.000  H
  H96      1.0000 0.20270  0.26400  0.51480  Biso   1.000  H
  Zn9      1.0000 0.73755  0.30236  0.74717  Biso   1.000  Zn
  Zn10     1.0000 0.80217  0.76254  0.61923  Biso   1.000  Zn
  O41      1.0000 0.68294  0.29064  0.74227  Biso   1.000  O
  O42      1.0000 0.69097  0.25057  0.70085  Biso   1.000  O
  O43      1.0000 0.36126  0.20215  0.71755  Biso   1.000  O
  O44      1.0000 0.35854  0.25786  0.74277  Biso   1.000  O
  O45      1.0000 0.74616  0.80725  0.66550  Biso   1.000  O
  O46      1.0000 0.79084  0.81628  0.62507  Biso   1.000  O
  O47      1.0000 0.75957  0.14127  0.62312  Biso   1.000  O
  O48      1.0000 0.70268  0.14013  0.64694  Biso   1.000  O
  O49      1.0000 0.74552  0.29209  0.79443  Biso   1.000  O
  O50      1.0000 0.74831  0.29210  0.07312  Biso   1.000  O
  C129     1.0000 0.67017  0.26900  0.72114  Biso   1.000  C
  C130     1.0000 0.62830  0.25890  0.72218  Biso   1.000  C
  H97      1.0000 0.61960  0.24050  0.70750  Biso   1.000  H
  C131     1.0000 0.60335  0.27360  0.74173  Biso   1.000  C
  H98      1.0000 0.61300  0.29100  0.75700  Biso   1.000  H
  C132     1.0000 0.56214  0.26682  0.74317  Biso   1.000  C
  C133     1.0000 0.53955  0.29182  0.76150  Biso   1.000  C
  H99      1.0000 0.55110  0.31140  0.77350  Biso   1.000  H
  C134     1.0000 0.49972  0.28755  0.76187  Biso   1.000  C
  H100     1.0000 0.48460  0.30430  0.77410  Biso   1.000  H
  C135     1.0000 0.48248  0.25827  0.74392  Biso   1.000  C
  C136     1.0000 0.50507  0.23326  0.72560  Biso   1.000  C
  H101     1.0000 0.49350  0.21370  0.71360  Biso   1.000  H
  C137     1.0000 0.54490  0.23754  0.72523  Biso   1.000  C
  H102     1.0000 0.56000  0.22080  0.71300  Biso   1.000  H
  C138     1.0000 0.44005  0.25690  0.74100  Biso   1.000  C
  H103     1.0000 0.42770  0.27900  0.74840  Biso   1.000  H
  C139     1.0000 0.41762  0.23170  0.73050  Biso   1.000  C
  H104     1.0000 0.42920  0.21040  0.72090  Biso   1.000  H
  C140     1.0000 0.37619  0.23130  0.73140  Biso   1.000  C
  C141     1.0000 0.76220  0.82830  0.64587  Biso   1.000  C
  C142     1.0000 0.75380  0.87080  0.64600  Biso   1.000  C
  H105     1.0000 0.73220  0.88010  0.65690  Biso   1.000  H
  C143     1.0000 0.77750  0.89540  0.63040  Biso   1.000  C
  H106     1.0000 0.79790  0.88500  0.61860  Biso   1.000  H
  C144     1.0000 0.77328  0.93981  0.63086  Biso   1.000  C
  C145     1.0000 0.73763  0.95626  0.63762  Biso   1.000  C
  H107     1.0000 0.71690  0.94070  0.64330  Biso   1.000  H
  C146     1.0000 0.73300  0.99600  0.63585  Biso   1.000  C
  H108     1.0000 0.70910  0.00700  0.64040  Biso   1.000  H
  C147     1.0000 0.76400  0.01930  0.62731  Biso   1.000  C
  C148     1.0000 0.79960  0.00280  0.62056  Biso   1.000  C
  H109     1.0000 0.82040  0.01840  0.61480  Biso   1.000  H
  C149     1.0000 0.80428  0.96309  0.62233  Biso   1.000  C
  H110     1.0000 0.82810  0.95210  0.61780  Biso   1.000  H
  C150     1.0000 0.75800  0.06050  0.62410  Biso   1.000  C
  H111     1.0000 0.77640  0.07360  0.61190  Biso   1.000  H
  C151     1.0000 0.73060  0.08130  0.63589  Biso   1.000  C
  H112     1.0000 0.70970  0.06860  0.64520  Biso   1.000  H
  C152     1.0000 0.73000  0.12490  0.63556  Biso   1.000  C
  H113     1.0000 0.79060  0.25700  0.85080  Biso   1.000  H
  C153     1.0000 0.74690  0.27540  0.86810  Biso   1.000  C
  H114     1.0000 0.72440  0.28750  0.86120  Biso   1.000  H
  C154     1.0000 0.74630  0.27220  0.90322  Biso   1.000  C
  C155     1.0000 0.72460  0.30060  0.91847  Biso   1.000  C
  H115     1.0000 0.70630  0.31440  0.90670  Biso   1.000  H
  C156     1.0000 0.73010  0.30830  0.95140  Biso   1.000  C
  H116     1.0000 0.71550  0.32730  0.96160  Biso   1.000  H
  C157     1.0000 0.75740  0.28770  0.96903  Biso   1.000  C
  C158     1.0000 0.75930  0.27910  0.95378  Biso   1.000  C
  H117     1.0000 0.74550  0.29740  0.96560  Biso   1.000  H
  C159     1.0000 0.77360  0.25160  0.92088  Biso   1.000  C
  H118     1.0000 0.73260  0.28820  0.91070  Biso   1.000  H
  C160     1.0000 0.75440  0.28950  0.00260  Biso   1.000  C
  H119     1.0000 0.73390  0.30400  0.01060  Biso   1.000  H
  H120     1.0000 0.76400  0.29730  0.01480  Biso   1.000  H
  Zn11     1.0000 0.23755  0.80236  0.24717  Biso   1.000  Zn
  Zn12     1.0000 0.30217  0.26254  0.11923  Biso   1.000  Zn
  O51      1.0000 0.18294  0.79064  0.24227  Biso   1.000  O
  O52      1.0000 0.19097  0.75057  0.20085  Biso   1.000  O
  O53      1.0000 0.86126  0.70215  0.21755  Biso   1.000  O
  O54      1.0000 0.85854  0.75786  0.24277  Biso   1.000  O
  O55      1.0000 0.24616  0.30725  0.16550  Biso   1.000  O
  O56      1.0000 0.29084  0.31628  0.12507  Biso   1.000  O
  O57      1.0000 0.25957  0.64127  0.12312  Biso   1.000  O
  O58      1.0000 0.20268  0.64013  0.14694  Biso   1.000  O
  O59      1.0000 0.24552  0.79209  0.29443  Biso   1.000  O
  O60      1.0000 0.24831  0.79210  0.57312  Biso   1.000  O
  C161     1.0000 0.17017  0.76900  0.22114  Biso   1.000  C
  C162     1.0000 0.12830  0.75890  0.22218  Biso   1.000  C
  H121     1.0000 0.11960  0.74050  0.20750  Biso   1.000  H
  C163     1.0000 0.10335  0.77360  0.24173  Biso   1.000  C
  H122     1.0000 0.11300  0.79100  0.25700  Biso   1.000  H
  C164     1.0000 0.06214  0.76682  0.24317  Biso   1.000  C
  C165     1.0000 0.03955  0.79182  0.26150  Biso   1.000  C
  H123     1.0000 0.05110  0.81140  0.27350  Biso   1.000  H
  C166     1.0000 0.99972  0.78755  0.26187  Biso   1.000  C
  H124     1.0000 0.98460  0.80430  0.27410  Biso   1.000  H
  C167     1.0000 0.98248  0.75827  0.24392  Biso   1.000  C
  C168     1.0000 0.00507  0.73326  0.22560  Biso   1.000  C
  H125     1.0000 0.99350  0.71370  0.21360  Biso   1.000  H
  C169     1.0000 0.04490  0.73754  0.22523  Biso   1.000  C
  H126     1.0000 0.06000  0.72080  0.21300  Biso   1.000  H
  C170     1.0000 0.94005  0.75690  0.24100  Biso   1.000  C
  H127     1.0000 0.92770  0.77900  0.24840  Biso   1.000  H
  C171     1.0000 0.91762  0.73170  0.23050  Biso   1.000  C
  H128     1.0000 0.92920  0.71040  0.22090  Biso   1.000  H
  C172     1.0000 0.87619  0.73130  0.23140  Biso   1.000  C
  C173     1.0000 0.26220  0.32830  0.14587  Biso   1.000  C
  C174     1.0000 0.25380  0.37080  0.14600  Biso   1.000  C
  H129     1.0000 0.23220  0.38010  0.15690  Biso   1.000  H
  C175     1.0000 0.27750  0.39540  0.13040  Biso   1.000  C
  H130     1.0000 0.29790  0.38500  0.11860  Biso   1.000  H
  C176     1.0000 0.27328  0.43981  0.13086  Biso   1.000  C
  C177     1.0000 0.23763  0.45626  0.13762  Biso   1.000  C
  H131     1.0000 0.21690  0.44070  0.14330  Biso   1.000  H
  C178     1.0000 0.23300  0.49600  0.13585  Biso   1.000  C
  H132     1.0000 0.20910  0.50700  0.14040  Biso   1.000  H
  C179     1.0000 0.26400  0.51930  0.12731  Biso   1.000  C
  C180     1.0000 0.29960  0.50280  0.12056  Biso   1.000  C
  H133     1.0000 0.32040  0.51840  0.11480  Biso   1.000  H
  C181     1.0000 0.30428  0.46309  0.12233  Biso   1.000  C
  H134     1.0000 0.32810  0.45210  0.11780  Biso   1.000  H
  C182     1.0000 0.25800  0.56050  0.12410  Biso   1.000  C
  H135     1.0000 0.27640  0.57360  0.11190  Biso   1.000  H
  C183     1.0000 0.23060  0.58130  0.13589  Biso   1.000  C
  H136     1.0000 0.20970  0.56860  0.14520  Biso   1.000  H
  C184     1.0000 0.23000  0.62490  0.13556  Biso   1.000  C
  H137     1.0000 0.29060  0.75700  0.35080  Biso   1.000  H
  C185     1.0000 0.24690  0.77540  0.36810  Biso   1.000  C
  H138     1.0000 0.22440  0.78750  0.36120  Biso   1.000  H
  C186     1.0000 0.24630  0.77220  0.40322  Biso   1.000  C
  C187     1.0000 0.22460  0.80060  0.41847  Biso   1.000  C
  H139     1.0000 0.20630  0.81440  0.40670  Biso   1.000  H
  C188     1.0000 0.23010  0.80830  0.45140  Biso   1.000  C
  H140     1.0000 0.21550  0.82730  0.46160  Biso   1.000  H
  C189     1.0000 0.25740  0.78770  0.46903  Biso   1.000  C
  C190     1.0000 0.25930  0.77910  0.45378  Biso   1.000  C
  H141     1.0000 0.24550  0.79740  0.46560  Biso   1.000  H
  C191     1.0000 0.27360  0.75160  0.42088  Biso   1.000  C
  H142     1.0000 0.23260  0.78820  0.41070  Biso   1.000  H
  C192     1.0000 0.25440  0.78950  0.50260  Biso   1.000  C
  H143     1.0000 0.23390  0.80400  0.51060  Biso   1.000  H
  H144     1.0000 0.26400  0.79730  0.51480  Biso   1.000  H
  Zn13     1.0000 0.26245  0.69764  0.74717  Biso   1.000  Zn
  Zn14     1.0000 0.19783  0.23746  0.61923  Biso   1.000  Zn
  O61      1.0000 0.31706  0.70936  0.74227  Biso   1.000  O
  O62      1.0000 0.30903  0.74943  0.70085  Biso   1.000  O
  O63      1.0000 0.63874  0.79785  0.71755  Biso   1.000  O
  O64      1.0000 0.64146  0.74214  0.74277  Biso   1.000  O
  O65      1.0000 0.25384  0.19275  0.66550  Biso   1.000  O
  O66      1.0000 0.20916  0.18372  0.62507  Biso   1.000  O
  O67      1.0000 0.24043  0.85873  0.62312  Biso   1.000  O
  O68      1.0000 0.29732  0.85987  0.64694  Biso   1.000  O
  O69      1.0000 0.25448  0.70791  0.79443  Biso   1.000  O
  O70      1.0000 0.25169  0.70790  0.07312  Biso   1.000  O
  C193     1.0000 0.32983  0.73100  0.72114  Biso   1.000  C
  C194     1.0000 0.37170  0.74110  0.72218  Biso   1.000  C
  H145     1.0000 0.38040  0.75950  0.70750  Biso   1.000  H
  C195     1.0000 0.39665  0.72640  0.74173  Biso   1.000  C
  H146     1.0000 0.38700  0.70900  0.75700  Biso   1.000  H
  C196     1.0000 0.43786  0.73318  0.74317  Biso   1.000  C
  C197     1.0000 0.46045  0.70818  0.76150  Biso   1.000  C
  H147     1.0000 0.44890  0.68860  0.77350  Biso   1.000  H
  C198     1.0000 0.50028  0.71245  0.76187  Biso   1.000  C
  H148     1.0000 0.51540  0.69570  0.77410  Biso   1.000  H
  C199     1.0000 0.51752  0.74173  0.74392  Biso   1.000  C
  C200     1.0000 0.49493  0.76674  0.72560  Biso   1.000  C
  H149     1.0000 0.50650  0.78630  0.71360  Biso   1.000  H
  C201     1.0000 0.45510  0.76246  0.72523  Biso   1.000  C
  H150     1.0000 0.44000  0.77920  0.71300  Biso   1.000  H
  C202     1.0000 0.55995  0.74310  0.74100  Biso   1.000  C
  H151     1.0000 0.57230  0.72100  0.74840  Biso   1.000  H
  C203     1.0000 0.58238  0.76830  0.73050  Biso   1.000  C
  H152     1.0000 0.57080  0.78960  0.72090  Biso   1.000  H
  C204     1.0000 0.62381  0.76870  0.73140  Biso   1.000  C
  C205     1.0000 0.23780  0.17170  0.64587  Biso   1.000  C
  C206     1.0000 0.24620  0.12920  0.64600  Biso   1.000  C
  H153     1.0000 0.26780  0.11990  0.65690  Biso   1.000  H
  C207     1.0000 0.22250  0.10460  0.63040  Biso   1.000  C
  H154     1.0000 0.20210  0.11500  0.61860  Biso   1.000  H
  C208     1.0000 0.22672  0.06019  0.63086  Biso   1.000  C
  C209     1.0000 0.26237  0.04374  0.63762  Biso   1.000  C
  H155     1.0000 0.28310  0.05930  0.64330  Biso   1.000  H
  C210     1.0000 0.26700  0.00400  0.63585  Biso   1.000  C
  H156     1.0000 0.29090  0.99300  0.64040  Biso   1.000  H
  C211     1.0000 0.23600  0.98070  0.62731  Biso   1.000  C
  C212     1.0000 0.20040  0.99720  0.62056  Biso   1.000  C
  H157     1.0000 0.17960  0.98160  0.61480  Biso   1.000  H
  C213     1.0000 0.19572  0.03691  0.62233  Biso   1.000  C
  H158     1.0000 0.17190  0.04790  0.61780  Biso   1.000  H
  C214     1.0000 0.24200  0.93950  0.62410  Biso   1.000  C
  H159     1.0000 0.22360  0.92640  0.61190  Biso   1.000  H
  C215     1.0000 0.26940  0.91870  0.63589  Biso   1.000  C
  H160     1.0000 0.29030  0.93140  0.64520  Biso   1.000  H
  C216     1.0000 0.27000  0.87510  0.63556  Biso   1.000  C
  H161     1.0000 0.20940  0.74300  0.85080  Biso   1.000  H
  C217     1.0000 0.25310  0.72460  0.86810  Biso   1.000  C
  H162     1.0000 0.27560  0.71250  0.86120  Biso   1.000  H
  C218     1.0000 0.25370  0.72780  0.90322  Biso   1.000  C
  C219     1.0000 0.27540  0.69940  0.91847  Biso   1.000  C
  H163     1.0000 0.29370  0.68560  0.90670  Biso   1.000  H
  C220     1.0000 0.26990  0.69170  0.95140  Biso   1.000  C
  H164     1.0000 0.28450  0.67270  0.96160  Biso   1.000  H
  C221     1.0000 0.24260  0.71230  0.96903  Biso   1.000  C
  C222     1.0000 0.24070  0.72090  0.95378  Biso   1.000  C
  H165     1.0000 0.25450  0.70260  0.96560  Biso   1.000  H
  C223     1.0000 0.22640  0.74840  0.92088  Biso   1.000  C
  H166     1.0000 0.26740  0.71180  0.91070  Biso   1.000  H
  C224     1.0000 0.24560  0.71050  0.00260  Biso   1.000  C
  H167     1.0000 0.26610  0.69600  0.01060  Biso   1.000  H
  H168     1.0000 0.23600  0.70270  0.01480  Biso   1.000  H
  Zn15     1.0000 0.76245  0.19764  0.24717  Biso   1.000  Zn
  Zn16     1.0000 0.69783  0.73746  0.11923  Biso   1.000  Zn
  O71      1.0000 0.81706  0.20936  0.24227  Biso   1.000  O
  O72      1.0000 0.80903  0.24943  0.20085  Biso   1.000  O
  O73      1.0000 0.13874  0.29785  0.21755  Biso   1.000  O
  O74      1.0000 0.14146  0.24214  0.24277  Biso   1.000  O
  O75      1.0000 0.75384  0.69275  0.16550  Biso   1.000  O
  O76      1.0000 0.70916  0.68372  0.12507  Biso   1.000  O
  O77      1.0000 0.74043  0.35873  0.12312  Biso   1.000  O
  O78      1.0000 0.79732  0.35987  0.14694  Biso   1.000  O
  O79      1.0000 0.75448  0.20791  0.29443  Biso   1.000  O
  O80      1.0000 0.75169  0.20790  0.57312  Biso   1.000  O
  C225     1.0000 0.82983  0.23100  0.22114  Biso   1.000  C
  C226     1.0000 0.87170  0.24110  0.22218  Biso   1.000  C
  H169     1.0000 0.88040  0.25950  0.20750  Biso   1.000  H
  C227     1.0000 0.89665  0.22640  0.24173  Biso   1.000  C
  H170     1.0000 0.88700  0.20900  0.25700  Biso   1.000  H
  C228     1.0000 0.93786  0.23318  0.24317  Biso   1.000  C
  C229     1.0000 0.96045  0.20818  0.26150  Biso   1.000  C
  H171     1.0000 0.94890  0.18860  0.27350  Biso   1.000  H
  C230     1.0000 0.00028  0.21245  0.26187  Biso   1.000  C
  H172     1.0000 0.01540  0.19570  0.27410  Biso   1.000  H
  C231     1.0000 0.01752  0.24173  0.24392  Biso   1.000  C
  C232     1.0000 0.99493  0.26674  0.22560  Biso   1.000  C
  H173     1.0000 0.00650  0.28630  0.21360  Biso   1.000  H
  C233     1.0000 0.95510  0.26246  0.22523  Biso   1.000  C
  H174     1.0000 0.94000  0.27920  0.21300  Biso   1.000  H
  C234     1.0000 0.05995  0.24310  0.24100  Biso   1.000  C
  H175     1.0000 0.07230  0.22100  0.24840  Biso   1.000  H
  C235     1.0000 0.08238  0.26830  0.23050  Biso   1.000  C
  H176     1.0000 0.07080  0.28960  0.22090  Biso   1.000  H
  C236     1.0000 0.12381  0.26870  0.23140  Biso   1.000  C
  C237     1.0000 0.73780  0.67170  0.14587  Biso   1.000  C
  C238     1.0000 0.74620  0.62920  0.14600  Biso   1.000  C
  H177     1.0000 0.76780  0.61990  0.15690  Biso   1.000  H
  C239     1.0000 0.72250  0.60460  0.13040  Biso   1.000  C
  H178     1.0000 0.70210  0.61500  0.11860  Biso   1.000  H
  C240     1.0000 0.72672  0.56019  0.13086  Biso   1.000  C
  C241     1.0000 0.76237  0.54374  0.13762  Biso   1.000  C
  H179     1.0000 0.78310  0.55930  0.14330  Biso   1.000  H
  C242     1.0000 0.76700  0.50400  0.13585  Biso   1.000  C
  H180     1.0000 0.79090  0.49300  0.14040  Biso   1.000  H
  C243     1.0000 0.73600  0.48070  0.12731  Biso   1.000  C
  C244     1.0000 0.70040  0.49720  0.12056  Biso   1.000  C
  H181     1.0000 0.67960  0.48160  0.11480  Biso   1.000  H
  C245     1.0000 0.69572  0.53691  0.12233  Biso   1.000  C
  H182     1.0000 0.67190  0.54790  0.11780  Biso   1.000  H
  C246     1.0000 0.74200  0.43950  0.12410  Biso   1.000  C
  H183     1.0000 0.72360  0.42640  0.11190  Biso   1.000  H
  C247     1.0000 0.76940  0.41870  0.13589  Biso   1.000  C
  H184     1.0000 0.79030  0.43140  0.14520  Biso   1.000  H
  C248     1.0000 0.77000  0.37510  0.13556  Biso   1.000  C
  H185     1.0000 0.70940  0.24300  0.35080  Biso   1.000  H
  C249     1.0000 0.75310  0.22460  0.36810  Biso   1.000  C
  H186     1.0000 0.77560  0.21250  0.36120  Biso   1.000  H
  C250     1.0000 0.75370  0.22780  0.40322  Biso   1.000  C
  C251     1.0000 0.77540  0.19940  0.41847  Biso   1.000  C
  H187     1.0000 0.79370  0.18560  0.40670  Biso   1.000  H
  C252     1.0000 0.76990  0.19170  0.45140  Biso   1.000  C
  H188     1.0000 0.78450  0.17270  0.46160  Biso   1.000  H
  C253     1.0000 0.74260  0.21230  0.46903  Biso   1.000  C
  C254     1.0000 0.74070  0.22090  0.45378  Biso   1.000  C
  H189     1.0000 0.75450  0.20260  0.46560  Biso   1.000  H
  C255     1.0000 0.72640  0.24840  0.42088  Biso   1.000  C
  H190     1.0000 0.76740  0.21180  0.41070  Biso   1.000  H
  C256     1.0000 0.74560  0.21050  0.50260  Biso   1.000  C
  H191     1.0000 0.76610  0.19600  0.51060  Biso   1.000  H
  H192     1.0000 0.73600  0.20270  0.51480  Biso   1.000  H
  Zn17     1.0000 0.30236  0.73755  0.24717  Biso   1.000  Zn
  Zn18     1.0000 0.76254  0.80217  0.11923  Biso   1.000  Zn
  O81      1.0000 0.29064  0.68294  0.24227  Biso   1.000  O
  O82      1.0000 0.25057  0.69097  0.20085  Biso   1.000  O
  O83      1.0000 0.20215  0.36126  0.21755  Biso   1.000  O
  O84      1.0000 0.25786  0.35854  0.24277  Biso   1.000  O
  O85      1.0000 0.80725  0.74616  0.16550  Biso   1.000  O
  O86      1.0000 0.81628  0.79084  0.12507  Biso   1.000  O
  O87      1.0000 0.14127  0.75957  0.12312  Biso   1.000  O
  O88      1.0000 0.14013  0.70268  0.14694  Biso   1.000  O
  O89      1.0000 0.29209  0.74552  0.29443  Biso   1.000  O
  O90      1.0000 0.29210  0.74831  0.57312  Biso   1.000  O
  C257     1.0000 0.26900  0.67017  0.22114  Biso   1.000  C
  C258     1.0000 0.25890  0.62830  0.22218  Biso   1.000  C
  H193     1.0000 0.24050  0.61960  0.20750  Biso   1.000  H
  C259     1.0000 0.27360  0.60335  0.24173  Biso   1.000  C
  H194     1.0000 0.29100  0.61300  0.25700  Biso   1.000  H
  C260     1.0000 0.26682  0.56214  0.24317  Biso   1.000  C
  C261     1.0000 0.29182  0.53955  0.26150  Biso   1.000  C
  H195     1.0000 0.31140  0.55110  0.27350  Biso   1.000  H
  C262     1.0000 0.28755  0.49972  0.26187  Biso   1.000  C
  H196     1.0000 0.30430  0.48460  0.27410  Biso   1.000  H
  C263     1.0000 0.25827  0.48248  0.24392  Biso   1.000  C
  C264     1.0000 0.23326  0.50507  0.22560  Biso   1.000  C
  H197     1.0000 0.21370  0.49350  0.21360  Biso   1.000  H
  C265     1.0000 0.23754  0.54490  0.22523  Biso   1.000  C
  H198     1.0000 0.22080  0.56000  0.21300  Biso   1.000  H
  C266     1.0000 0.25690  0.44005  0.24100  Biso   1.000  C
  H199     1.0000 0.27900  0.42770  0.24840  Biso   1.000  H
  C267     1.0000 0.23170  0.41762  0.23050  Biso   1.000  C
  H200     1.0000 0.21040  0.42920  0.22090  Biso   1.000  H
  C268     1.0000 0.23130  0.37619  0.23140  Biso   1.000  C
  C269     1.0000 0.82830  0.76220  0.14587  Biso   1.000  C
  C270     1.0000 0.87080  0.75380  0.14600  Biso   1.000  C
  H201     1.0000 0.88010  0.73220  0.15690  Biso   1.000  H
  C271     1.0000 0.89540  0.77750  0.13040  Biso   1.000  C
  H202     1.0000 0.88500  0.79790  0.11860  Biso   1.000  H
  C272     1.0000 0.93981  0.77328  0.13086  Biso   1.000  C
  C273     1.0000 0.95626  0.73763  0.13762  Biso   1.000  C
  H203     1.0000 0.94070  0.71690  0.14330  Biso   1.000  H
  C274     1.0000 0.99600  0.73300  0.13585  Biso   1.000  C
  H204     1.0000 0.00700  0.70910  0.14040  Biso   1.000  H
  C275     1.0000 0.01930  0.76400  0.12731  Biso   1.000  C
  C276     1.0000 0.00280  0.79960  0.12056  Biso   1.000  C
  H205     1.0000 0.01840  0.82040  0.11480  Biso   1.000  H
  C277     1.0000 0.96309  0.80428  0.12233  Biso   1.000  C
  H206     1.0000 0.95210  0.82810  0.11780  Biso   1.000  H
  C278     1.0000 0.06050  0.75800  0.12410  Biso   1.000  C
  H207     1.0000 0.07360  0.77640  0.11190  Biso   1.000  H
  C279     1.0000 0.08130  0.73060  0.13589  Biso   1.000  C
  H208     1.0000 0.06860  0.70970  0.14520  Biso   1.000  H
  C280     1.0000 0.12490  0.73000  0.13556  Biso   1.000  C
  H209     1.0000 0.25700  0.79060  0.35080  Biso   1.000  H
  C281     1.0000 0.27540  0.74690  0.36810  Biso   1.000  C
  H210     1.0000 0.28750  0.72440  0.36120  Biso   1.000  H
  C282     1.0000 0.27220  0.74630  0.40322  Biso   1.000  C
  C283     1.0000 0.30060  0.72460  0.41847  Biso   1.000  C
  H211     1.0000 0.31440  0.70630  0.40670  Biso   1.000  H
  C284     1.0000 0.30830  0.73010  0.45140  Biso   1.000  C
  H212     1.0000 0.32730  0.71550  0.46160  Biso   1.000  H
  C285     1.0000 0.28770  0.75740  0.46903  Biso   1.000  C
  C286     1.0000 0.27910  0.75930  0.45378  Biso   1.000  C
  H213     1.0000 0.29740  0.74550  0.46560  Biso   1.000  H
  C287     1.0000 0.25160  0.77360  0.42088  Biso   1.000  C
  H214     1.0000 0.28820  0.73260  0.41070  Biso   1.000  H
  C288     1.0000 0.28950  0.75440  0.50260  Biso   1.000  C
  H215     1.0000 0.30400  0.73390  0.51060  Biso   1.000  H
  H216     1.0000 0.29730  0.76400  0.51480  Biso   1.000  H
  Zn19     1.0000 0.80236  0.23755  0.74717  Biso   1.000  Zn
  Zn20     1.0000 0.26254  0.30217  0.61923  Biso   1.000  Zn
  O91      1.0000 0.79064  0.18294  0.74227  Biso   1.000  O
  O92      1.0000 0.75057  0.19097  0.70085  Biso   1.000  O
  O93      1.0000 0.70215  0.86126  0.71755  Biso   1.000  O
  O94      1.0000 0.75786  0.85854  0.74277  Biso   1.000  O
  O95      1.0000 0.30725  0.24616  0.66550  Biso   1.000  O
  O96      1.0000 0.31628  0.29084  0.62507  Biso   1.000  O
  O97      1.0000 0.64127  0.25957  0.62312  Biso   1.000  O
  O98      1.0000 0.64013  0.20268  0.64694  Biso   1.000  O
  O99      1.0000 0.79209  0.24552  0.79443  Biso   1.000  O
  O100     1.0000 0.79210  0.24831  0.07312  Biso   1.000  O
  C289     1.0000 0.76900  0.17017  0.72114  Biso   1.000  C
  C290     1.0000 0.75890  0.12830  0.72218  Biso   1.000  C
  H217     1.0000 0.74050  0.11960  0.70750  Biso   1.000  H
  C291     1.0000 0.77360  0.10335  0.74173  Biso   1.000  C
  H218     1.0000 0.79100  0.11300  0.75700  Biso   1.000  H
  C292     1.0000 0.76682  0.06214  0.74317  Biso   1.000  C
  C293     1.0000 0.79182  0.03955  0.76150  Biso   1.000  C
  H219     1.0000 0.81140  0.05110  0.77350  Biso   1.000  H
  C294     1.0000 0.78755  0.99972  0.76187  Biso   1.000  C
  H220     1.0000 0.80430  0.98460  0.77410  Biso   1.000  H
  C295     1.0000 0.75827  0.98248  0.74392  Biso   1.000  C
  C296     1.0000 0.73326  0.00507  0.72560  Biso   1.000  C
  H221     1.0000 0.71370  0.99350  0.71360  Biso   1.000  H
  C297     1.0000 0.73754  0.04490  0.72523  Biso   1.000  C
  H222     1.0000 0.72080  0.06000  0.71300  Biso   1.000  H
  C298     1.0000 0.75690  0.94005  0.74100  Biso   1.000  C
  H223     1.0000 0.77900  0.92770  0.74840  Biso   1.000  H
  C299     1.0000 0.73170  0.91762  0.73050  Biso   1.000  C
  H224     1.0000 0.71040  0.92920  0.72090  Biso   1.000  H
  C300     1.0000 0.73130  0.87619  0.73140  Biso   1.000  C
  C301     1.0000 0.32830  0.26220  0.64587  Biso   1.000  C
  C302     1.0000 0.37080  0.25380  0.64600  Biso   1.000  C
  H225     1.0000 0.38010  0.23220  0.65690  Biso   1.000  H
  C303     1.0000 0.39540  0.27750  0.63040  Biso   1.000  C
  H226     1.0000 0.38500  0.29790  0.61860  Biso   1.000  H
  C304     1.0000 0.43981  0.27328  0.63086  Biso   1.000  C
  C305     1.0000 0.45626  0.23763  0.63762  Biso   1.000  C
  H227     1.0000 0.44070  0.21690  0.64330  Biso   1.000  H
  C306     1.0000 0.49600  0.23300  0.63585  Biso   1.000  C
  H228     1.0000 0.50700  0.20910  0.64040  Biso   1.000  H
  C307     1.0000 0.51930  0.26400  0.62731  Biso   1.000  C
  C308     1.0000 0.50280  0.29960  0.62056  Biso   1.000  C
  H229     1.0000 0.51840  0.32040  0.61480  Biso   1.000  H
  C309     1.0000 0.46309  0.30428  0.62233  Biso   1.000  C
  H230     1.0000 0.45210  0.32810  0.61780  Biso   1.000  H
  C310     1.0000 0.56050  0.25800  0.62410  Biso   1.000  C
  H231     1.0000 0.57360  0.27640  0.61190  Biso   1.000  H
  C311     1.0000 0.58130  0.23060  0.63589  Biso   1.000  C
  H232     1.0000 0.56860  0.20970  0.64520  Biso   1.000  H
  C312     1.0000 0.62490  0.23000  0.63556  Biso   1.000  C
  H233     1.0000 0.75700  0.29060  0.85080  Biso   1.000  H
  C313     1.0000 0.77540  0.24690  0.86810  Biso   1.000  C
  H234     1.0000 0.78750  0.22440  0.86120  Biso   1.000  H
  C314     1.0000 0.77220  0.24630  0.90322  Biso   1.000  C
  C315     1.0000 0.80060  0.22460  0.91847  Biso   1.000  C
  H235     1.0000 0.81440  0.20630  0.90670  Biso   1.000  H
  C316     1.0000 0.80830  0.23010  0.95140  Biso   1.000  C
  H236     1.0000 0.82730  0.21550  0.96160  Biso   1.000  H
  C317     1.0000 0.78770  0.25740  0.96903  Biso   1.000  C
  C318     1.0000 0.77910  0.25930  0.95378  Biso   1.000  C
  H237     1.0000 0.79740  0.24550  0.96560  Biso   1.000  H
  C319     1.0000 0.75160  0.27360  0.92088  Biso   1.000  C
  H238     1.0000 0.78820  0.23260  0.91070  Biso   1.000  H
  C320     1.0000 0.78950  0.25440  0.00260  Biso   1.000  C
  H239     1.0000 0.80400  0.23390  0.01060  Biso   1.000  H
  H240     1.0000 0.79730  0.26400  0.01480  Biso   1.000  H
  Zn21     1.0000 0.69764  0.26245  0.24717  Biso   1.000  Zn
  Zn22     1.0000 0.23746  0.19783  0.11923  Biso   1.000  Zn
  O101     1.0000 0.70936  0.31706  0.24227  Biso   1.000  O
  O102     1.0000 0.74943  0.30903  0.20085  Biso   1.000  O
  O103     1.0000 0.79785  0.63874  0.21755  Biso   1.000  O
  O104     1.0000 0.74214  0.64146  0.24277  Biso   1.000  O
  O105     1.0000 0.19275  0.25384  0.16550  Biso   1.000  O
  O106     1.0000 0.18372  0.20916  0.12507  Biso   1.000  O
  O107     1.0000 0.85873  0.24043  0.12312  Biso   1.000  O
  O108     1.0000 0.85987  0.29732  0.14694  Biso   1.000  O
  O109     1.0000 0.70791  0.25448  0.29443  Biso   1.000  O
  O110     1.0000 0.70790  0.25169  0.57312  Biso   1.000  O
  C321     1.0000 0.73100  0.32983  0.22114  Biso   1.000  C
  C322     1.0000 0.74110  0.37170  0.22218  Biso   1.000  C
  H241     1.0000 0.75950  0.38040  0.20750  Biso   1.000  H
  C323     1.0000 0.72640  0.39665  0.24173  Biso   1.000  C
  H242     1.0000 0.70900  0.38700  0.25700  Biso   1.000  H
  C324     1.0000 0.73318  0.43786  0.24317  Biso   1.000  C
  C325     1.0000 0.70818  0.46045  0.26150  Biso   1.000  C
  H243     1.0000 0.68860  0.44890  0.27350  Biso   1.000  H
  C326     1.0000 0.71245  0.50028  0.26187  Biso   1.000  C
  H244     1.0000 0.69570  0.51540  0.27410  Biso   1.000  H
  C327     1.0000 0.74173  0.51752  0.24392  Biso   1.000  C
  C328     1.0000 0.76674  0.49493  0.22560  Biso   1.000  C
  H245     1.0000 0.78630  0.50650  0.21360  Biso   1.000  H
  C329     1.0000 0.76246  0.45510  0.22523  Biso   1.000  C
  H246     1.0000 0.77920  0.44000  0.21300  Biso   1.000  H
  C330     1.0000 0.74310  0.55995  0.24100  Biso   1.000  C
  H247     1.0000 0.72100  0.57230  0.24840  Biso   1.000  H
  C331     1.0000 0.76830  0.58238  0.23050  Biso   1.000  C
  H248     1.0000 0.78960  0.57080  0.22090  Biso   1.000  H
  C332     1.0000 0.76870  0.62381  0.23140  Biso   1.000  C
  C333     1.0000 0.17170  0.23780  0.14587  Biso   1.000  C
  C334     1.0000 0.12920  0.24620  0.14600  Biso   1.000  C
  H249     1.0000 0.11990  0.26780  0.15690  Biso   1.000  H
  C335     1.0000 0.10460  0.22250  0.13040  Biso   1.000  C
  H250     1.0000 0.11500  0.20210  0.11860  Biso   1.000  H
  C336     1.0000 0.06019  0.22672  0.13086  Biso   1.000  C
  C337     1.0000 0.04374  0.26237  0.13762  Biso   1.000  C
  H251     1.0000 0.05930  0.28310  0.14330  Biso   1.000  H
  C338     1.0000 0.00400  0.26700  0.13585  Biso   1.000  C
  H252     1.0000 0.99300  0.29090  0.14040  Biso   1.000  H
  C339     1.0000 0.98070  0.23600  0.12731  Biso   1.000  C
  C340     1.0000 0.99720  0.20040  0.12056  Biso   1.000  C
  H253     1.0000 0.98160  0.17960  0.11480  Biso   1.000  H
  C341     1.0000 0.03691  0.19572  0.12233  Biso   1.000  C
  H254     1.0000 0.04790  0.17190  0.11780  Biso   1.000  H
  C342     1.0000 0.93950  0.24200  0.12410  Biso   1.000  C
  H255     1.0000 0.92640  0.22360  0.11190  Biso   1.000  H
  C343     1.0000 0.91870  0.26940  0.13589  Biso   1.000  C
  H256     1.0000 0.93140  0.29030  0.14520  Biso   1.000  H
  C344     1.0000 0.87510  0.27000  0.13556  Biso   1.000  C
  H257     1.0000 0.74300  0.20940  0.35080  Biso   1.000  H
  C345     1.0000 0.72460  0.25310  0.36810  Biso   1.000  C
  H258     1.0000 0.71250  0.27560  0.36120  Biso   1.000  H
  C346     1.0000 0.72780  0.25370  0.40322  Biso   1.000  C
  C347     1.0000 0.69940  0.27540  0.41847  Biso   1.000  C
  H259     1.0000 0.68560  0.29370  0.40670  Biso   1.000  H
  C348     1.0000 0.69170  0.26990  0.45140  Biso   1.000  C
  H260     1.0000 0.67270  0.28450  0.46160  Biso   1.000  H
  C349     1.0000 0.71230  0.24260  0.46903  Biso   1.000  C
  C350     1.0000 0.72090  0.24070  0.45378  Biso   1.000  C
  H261     1.0000 0.70260  0.25450  0.46560  Biso   1.000  H
  C351     1.0000 0.74840  0.22640  0.42088  Biso   1.000  C
  H262     1.0000 0.71180  0.26740  0.41070  Biso   1.000  H
  C352     1.0000 0.71050  0.24560  0.50260  Biso   1.000  C
  H263     1.0000 0.69600  0.26610  0.51060  Biso   1.000  H
  H264     1.0000 0.70270  0.23600  0.51480  Biso   1.000  H
  Zn23     1.0000 0.19764  0.76245  0.74717  Biso   1.000  Zn
  Zn24     1.0000 0.73746  0.69783  0.61923  Biso   1.000  Zn
  O111     1.0000 0.20936  0.81706  0.74227  Biso   1.000  O
  O112     1.0000 0.24943  0.80903  0.70085  Biso   1.000  O
  O113     1.0000 0.29785  0.13874  0.71755  Biso   1.000  O
  O114     1.0000 0.24214  0.14146  0.74277  Biso   1.000  O
  O115     1.0000 0.69275  0.75384  0.66550  Biso   1.000  O
  O116     1.0000 0.68372  0.70916  0.62507  Biso   1.000  O
  O117     1.0000 0.35873  0.74043  0.62312  Biso   1.000  O
  O118     1.0000 0.35987  0.79732  0.64694  Biso   1.000  O
  O119     1.0000 0.20791  0.75448  0.79443  Biso   1.000  O
  O120     1.0000 0.20790  0.75169  0.07312  Biso   1.000  O
  C353     1.0000 0.23100  0.82983  0.72114  Biso   1.000  C
  C354     1.0000 0.24110  0.87170  0.72218  Biso   1.000  C
  H265     1.0000 0.25950  0.88040  0.70750  Biso   1.000  H
  C355     1.0000 0.22640  0.89665  0.74173  Biso   1.000  C
  H266     1.0000 0.20900  0.88700  0.75700  Biso   1.000  H
  C356     1.0000 0.23318  0.93786  0.74317  Biso   1.000  C
  C357     1.0000 0.20818  0.96045  0.76150  Biso   1.000  C
  H267     1.0000 0.18860  0.94890  0.77350  Biso   1.000  H
  C358     1.0000 0.21245  0.00028  0.76187  Biso   1.000  C
  H268     1.0000 0.19570  0.01540  0.77410  Biso   1.000  H
  C359     1.0000 0.24173  0.01752  0.74392  Biso   1.000  C
  C360     1.0000 0.26674  0.99493  0.72560  Biso   1.000  C
  H269     1.0000 0.28630  0.00650  0.71360  Biso   1.000  H
  C361     1.0000 0.26246  0.95510  0.72523  Biso   1.000  C
  H270     1.0000 0.27920  0.94000  0.71300  Biso   1.000  H
  C362     1.0000 0.24310  0.05995  0.74100  Biso   1.000  C
  H271     1.0000 0.22100  0.07230  0.74840  Biso   1.000  H
  C363     1.0000 0.26830  0.08238  0.73050  Biso   1.000  C
  H272     1.0000 0.28960  0.07080  0.72090  Biso   1.000  H
  C364     1.0000 0.26870  0.12381  0.73140  Biso   1.000  C
  C365     1.0000 0.67170  0.73780  0.64587  Biso   1.000  C
  C366     1.0000 0.62920  0.74620  0.64600  Biso   1.000  C
  H273     1.0000 0.61990  0.76780  0.65690  Biso   1.000  H
  C367     1.0000 0.60460  0.72250  0.63040  Biso   1.000  C
  H274     1.0000 0.61500  0.70210  0.61860  Biso   1.000  H
  C368     1.0000 0.56019  0.72672  0.63086  Biso   1.000  C
  C369     1.0000 0.54374  0.76237  0.63762  Biso   1.000  C
  H275     1.0000 0.55930  0.78310  0.64330  Biso   1.000  H
  C370     1.0000 0.50400  0.76700  0.63585  Biso   1.000  C
  H276     1.0000 0.49300  0.79090  0.64040  Biso   1.000  H
  C371     1.0000 0.48070  0.73600  0.62731  Biso   1.000  C
  C372     1.0000 0.49720  0.70040  0.62056  Biso   1.000  C
  H277     1.0000 0.48160  0.67960  0.61480  Biso   1.000  H
  C373     1.0000 0.53691  0.69572  0.62233  Biso   1.000  C
  H278     1.0000 0.54790  0.67190  0.61780  Biso   1.000  H
  C374     1.0000 0.43950  0.74200  0.62410  Biso   1.000  C
  H279     1.0000 0.42640  0.72360  0.61190  Biso   1.000  H
  C375     1.0000 0.41870  0.76940  0.63589  Biso   1.000  C
  H280     1.0000 0.43140  0.79030  0.64520  Biso   1.000  H
  C376     1.0000 0.37510  0.77000  0.63556  Biso   1.000  C
  H281     1.0000 0.24300  0.70940  0.85080  Biso   1.000  H
  C377     1.0000 0.22460  0.75310  0.86810  Biso   1.000  C
  H282     1.0000 0.21250  0.77560  0.86120  Biso   1.000  H
  C378     1.0000 0.22780  0.75370  0.90322  Biso   1.000  C
  C379     1.0000 0.19940  0.77540  0.91847  Biso   1.000  C
  H283     1.0000 0.18560  0.79370  0.90670  Biso   1.000  H
  C380     1.0000 0.19170  0.76990  0.95140  Biso   1.000  C
  H284     1.0000 0.17270  0.78450  0.96160  Biso   1.000  H
  C381     1.0000 0.21230  0.74260  0.96903  Biso   1.000  C
  C382     1.0000 0.22090  0.74070  0.95378  Biso   1.000  C
  H285     1.0000 0.20260  0.75450  0.96560  Biso   1.000  H
  C383     1.0000 0.24840  0.72640  0.92088  Biso   1.000  C
  H286     1.0000 0.21180  0.76740  0.91070  Biso   1.000  H
  C384     1.0000 0.21050  0.74560  0.00260  Biso   1.000  C
  H287     1.0000 0.19600  0.76610  0.01060  Biso   1.000  H
  H288     1.0000 0.20270  0.73600  0.01480  Biso   1.000  H
  Zn25     1.0000 0.73755  0.69764  0.24717  Biso   1.000  Zn
  Zn26     1.0000 0.80217  0.23746  0.11923  Biso   1.000  Zn
  O121     1.0000 0.68294  0.70936  0.24227  Biso   1.000  O
  O122     1.0000 0.69097  0.74943  0.20085  Biso   1.000  O
  O123     1.0000 0.36126  0.79785  0.21755  Biso   1.000  O
  O124     1.0000 0.35854  0.74214  0.24277  Biso   1.000  O
  O125     1.0000 0.74616  0.19275  0.16550  Biso   1.000  O
  O126     1.0000 0.79084  0.18372  0.12507  Biso   1.000  O
  O127     1.0000 0.75957  0.85873  0.12312  Biso   1.000  O
  O128     1.0000 0.70268  0.85987  0.14694  Biso   1.000  O
  O129     1.0000 0.74552  0.70791  0.29443  Biso   1.000  O
  O130     1.0000 0.74831  0.70790  0.57312  Biso   1.000  O
  C385     1.0000 0.67017  0.73100  0.22114  Biso   1.000  C
  C386     1.0000 0.62830  0.74110  0.22218  Biso   1.000  C
  H289     1.0000 0.61960  0.75950  0.20750  Biso   1.000  H
  C387     1.0000 0.60335  0.72640  0.24173  Biso   1.000  C
  H290     1.0000 0.61300  0.70900  0.25700  Biso   1.000  H
  C388     1.0000 0.56214  0.73318  0.24317  Biso   1.000  C
  C389     1.0000 0.53955  0.70818  0.26150  Biso   1.000  C
  H291     1.0000 0.55110  0.68860  0.27350  Biso   1.000  H
  C390     1.0000 0.49972  0.71245  0.26187  Biso   1.000  C
  H292     1.0000 0.48460  0.69570  0.27410  Biso   1.000  H
  C391     1.0000 0.48248  0.74173  0.24392  Biso   1.000  C
  C392     1.0000 0.50507  0.76674  0.22560  Biso   1.000  C
  H293     1.0000 0.49350  0.78630  0.21360  Biso   1.000  H
  C393     1.0000 0.54490  0.76246  0.22523  Biso   1.000  C
  H294     1.0000 0.56000  0.77920  0.21300  Biso   1.000  H
  C394     1.0000 0.44005  0.74310  0.24100  Biso   1.000  C
  H295     1.0000 0.42770  0.72100  0.24840  Biso   1.000  H
  C395     1.0000 0.41762  0.76830  0.23050  Biso   1.000  C
  H296     1.0000 0.42920  0.78960  0.22090  Biso   1.000  H
  C396     1.0000 0.37619  0.76870  0.23140  Biso   1.000  C
  C397     1.0000 0.76220  0.17170  0.14587  Biso   1.000  C
  C398     1.0000 0.75380  0.12920  0.14600  Biso   1.000  C
  H297     1.0000 0.73220  0.11990  0.15690  Biso   1.000  H
  C399     1.0000 0.77750  0.10460  0.13040  Biso   1.000  C
  H298     1.0000 0.79790  0.11500  0.11860  Biso   1.000  H
  C400     1.0000 0.77328  0.06019  0.13086  Biso   1.000  C
  C401     1.0000 0.73763  0.04374  0.13762  Biso   1.000  C
  H299     1.0000 0.71690  0.05930  0.14330  Biso   1.000  H
  C402     1.0000 0.73300  0.00400  0.13585  Biso   1.000  C
  H300     1.0000 0.70910  0.99300  0.14040  Biso   1.000  H
  C403     1.0000 0.76400  0.98070  0.12731  Biso   1.000  C
  C404     1.0000 0.79960  0.99720  0.12056  Biso   1.000  C
  H301     1.0000 0.82040  0.98160  0.11480  Biso   1.000  H
  C405     1.0000 0.80428  0.03691  0.12233  Biso   1.000  C
  H302     1.0000 0.82810  0.04790  0.11780  Biso   1.000  H
  C406     1.0000 0.75800  0.93950  0.12410  Biso   1.000  C
  H303     1.0000 0.77640  0.92640  0.11190  Biso   1.000  H
  C407     1.0000 0.73060  0.91870  0.13589  Biso   1.000  C
  H304     1.0000 0.70970  0.93140  0.14520  Biso   1.000  H
  C408     1.0000 0.73000  0.87510  0.13556  Biso   1.000  C
  H305     1.0000 0.79060  0.74300  0.35080  Biso   1.000  H
  C409     1.0000 0.74690  0.72460  0.36810  Biso   1.000  C
  H306     1.0000 0.72440  0.71250  0.36120  Biso   1.000  H
  C410     1.0000 0.74630  0.72780  0.40322  Biso   1.000  C
  C411     1.0000 0.72460  0.69940  0.41847  Biso   1.000  C
  H307     1.0000 0.70630  0.68560  0.40670  Biso   1.000  H
  C412     1.0000 0.73010  0.69170  0.45140  Biso   1.000  C
  H308     1.0000 0.71550  0.67270  0.46160  Biso   1.000  H
  C413     1.0000 0.75740  0.71230  0.46903  Biso   1.000  C
  C414     1.0000 0.75930  0.72090  0.45378  Biso   1.000  C
  H309     1.0000 0.74550  0.70260  0.46560  Biso   1.000  H
  C415     1.0000 0.77360  0.74840  0.42088  Biso   1.000  C
  H310     1.0000 0.73260  0.71180  0.41070  Biso   1.000  H
  C416     1.0000 0.75440  0.71050  0.50260  Biso   1.000  C
  H311     1.0000 0.73390  0.69600  0.51060  Biso   1.000  H
  H312     1.0000 0.76400  0.70270  0.51480  Biso   1.000  H
  Zn27     1.0000 0.23755  0.19764  0.74717  Biso   1.000  Zn
  Zn28     1.0000 0.30217  0.73746  0.61923  Biso   1.000  Zn
  O131     1.0000 0.18294  0.20936  0.74227  Biso   1.000  O
  O132     1.0000 0.19097  0.24943  0.70085  Biso   1.000  O
  O133     1.0000 0.86126  0.29785  0.71755  Biso   1.000  O
  O134     1.0000 0.85854  0.24214  0.74277  Biso   1.000  O
  O135     1.0000 0.24616  0.69275  0.66550  Biso   1.000  O
  O136     1.0000 0.29084  0.68372  0.62507  Biso   1.000  O
  O137     1.0000 0.25957  0.35873  0.62312  Biso   1.000  O
  O138     1.0000 0.20268  0.35987  0.64694  Biso   1.000  O
  O139     1.0000 0.24552  0.20791  0.79443  Biso   1.000  O
  O140     1.0000 0.24831  0.20790  0.07312  Biso   1.000  O
  C417     1.0000 0.17017  0.23100  0.72114  Biso   1.000  C
  C418     1.0000 0.12830  0.24110  0.72218  Biso   1.000  C
  H313     1.0000 0.11960  0.25950  0.70750  Biso   1.000  H
  C419     1.0000 0.10335  0.22640  0.74173  Biso   1.000  C
  H314     1.0000 0.11300  0.20900  0.75700  Biso   1.000  H
  C420     1.0000 0.06214  0.23318  0.74317  Biso   1.000  C
  C421     1.0000 0.03955  0.20818  0.76150  Biso   1.000  C
  H315     1.0000 0.05110  0.18860  0.77350  Biso   1.000  H
  C422     1.0000 0.99972  0.21245  0.76187  Biso   1.000  C
  H316     1.0000 0.98460  0.19570  0.77410  Biso   1.000  H
  C423     1.0000 0.98248  0.24173  0.74392  Biso   1.000  C
  C424     1.0000 0.00507  0.26674  0.72560  Biso   1.000  C
  H317     1.0000 0.99350  0.28630  0.71360  Biso   1.000  H
  C425     1.0000 0.04490  0.26246  0.72523  Biso   1.000  C
  H318     1.0000 0.06000  0.27920  0.71300  Biso   1.000  H
  C426     1.0000 0.94005  0.24310  0.74100  Biso   1.000  C
  H319     1.0000 0.92770  0.22100  0.74840  Biso   1.000  H
  C427     1.0000 0.91762  0.26830  0.73050  Biso   1.000  C
  H320     1.0000 0.92920  0.28960  0.72090  Biso   1.000  H
  C428     1.0000 0.87619  0.26870  0.73140  Biso   1.000  C
  C429     1.0000 0.26220  0.67170  0.64587  Biso   1.000  C
  C430     1.0000 0.25380  0.62920  0.64600  Biso   1.000  C
  H321     1.0000 0.23220  0.61990  0.65690  Biso   1.000  H
  C431     1.0000 0.27750  0.60460  0.63040  Biso   1.000  C
  H322     1.0000 0.29790  0.61500  0.61860  Biso   1.000  H
  C432     1.0000 0.27328  0.56019  0.63086  Biso   1.000  C
  C433     1.0000 0.23763  0.54374  0.63762  Biso   1.000  C
  H323     1.0000 0.21690  0.55930  0.64330  Biso   1.000  H
  C434     1.0000 0.23300  0.50400  0.63585  Biso   1.000  C
  H324     1.0000 0.20910  0.49300  0.64040  Biso   1.000  H
  C435     1.0000 0.26400  0.48070  0.62731  Biso   1.000  C
  C436     1.0000 0.29960  0.49720  0.62056  Biso   1.000  C
  H325     1.0000 0.32040  0.48160  0.61480  Biso   1.000  H
  C437     1.0000 0.30428  0.53691  0.62233  Biso   1.000  C
  H326     1.0000 0.32810  0.54790  0.61780  Biso   1.000  H
  C438     1.0000 0.25800  0.43950  0.62410  Biso   1.000  C
  H327     1.0000 0.27640  0.42640  0.61190  Biso   1.000  H
  C439     1.0000 0.23060  0.41870  0.63589  Biso   1.000  C
  H328     1.0000 0.20970  0.43140  0.64520  Biso   1.000  H
  C440     1.0000 0.23000  0.37510  0.63556  Biso   1.000  C
  H329     1.0000 0.29060  0.24300  0.85080  Biso   1.000  H
  C441     1.0000 0.24690  0.22460  0.86810  Biso   1.000  C
  H330     1.0000 0.22440  0.21250  0.86120  Biso   1.000  H
  C442     1.0000 0.24630  0.22780  0.90322  Biso   1.000  C
  C443     1.0000 0.22460  0.19940  0.91847  Biso   1.000  C
  H331     1.0000 0.20630  0.18560  0.90670  Biso   1.000  H
  C444     1.0000 0.23010  0.19170  0.95140  Biso   1.000  C
  H332     1.0000 0.21550  0.17270  0.96160  Biso   1.000  H
  C445     1.0000 0.25740  0.21230  0.96903  Biso   1.000  C
  C446     1.0000 0.25930  0.22090  0.95378  Biso   1.000  C
  H333     1.0000 0.24550  0.20260  0.96560  Biso   1.000  H
  C447     1.0000 0.27360  0.24840  0.92088  Biso   1.000  C
  H334     1.0000 0.23260  0.21180  0.91070  Biso   1.000  H
  C448     1.0000 0.25440  0.21050  0.00260  Biso   1.000  C
  H335     1.0000 0.23390  0.19600  0.01060  Biso   1.000  H
  H336     1.0000 0.26400  0.20270  0.01480  Biso   1.000  H
  Zn29     1.0000 0.26245  0.30236  0.24717  Biso   1.000  Zn
  Zn30     1.0000 0.19783  0.76254  0.11923  Biso   1.000  Zn
  O141     1.0000 0.31706  0.29064  0.24227  Biso   1.000  O
  O142     1.0000 0.30903  0.25057  0.20085  Biso   1.000  O
  O143     1.0000 0.63874  0.20215  0.21755  Biso   1.000  O
  O144     1.0000 0.64146  0.25786  0.24277  Biso   1.000  O
  O145     1.0000 0.25384  0.80725  0.16550  Biso   1.000  O
  O146     1.0000 0.20916  0.81628  0.12507  Biso   1.000  O
  O147     1.0000 0.24043  0.14127  0.12312  Biso   1.000  O
  O148     1.0000 0.29732  0.14013  0.14694  Biso   1.000  O
  O149     1.0000 0.25448  0.29209  0.29443  Biso   1.000  O
  O150     1.0000 0.25169  0.29210  0.57312  Biso   1.000  O
  C449     1.0000 0.32983  0.26900  0.22114  Biso   1.000  C
  C450     1.0000 0.37170  0.25890  0.22218  Biso   1.000  C
  H337     1.0000 0.38040  0.24050  0.20750  Biso   1.000  H
  C451     1.0000 0.39665  0.27360  0.24173  Biso   1.000  C
  H338     1.0000 0.38700  0.29100  0.25700  Biso   1.000  H
  C452     1.0000 0.43786  0.26682  0.24317  Biso   1.000  C
  C453     1.0000 0.46045  0.29182  0.26150  Biso   1.000  C
  H339     1.0000 0.44890  0.31140  0.27350  Biso   1.000  H
  C454     1.0000 0.50028  0.28755  0.26187  Biso   1.000  C
  H340     1.0000 0.51540  0.30430  0.27410  Biso   1.000  H
  C455     1.0000 0.51752  0.25827  0.24392  Biso   1.000  C
  C456     1.0000 0.49493  0.23326  0.22560  Biso   1.000  C
  H341     1.0000 0.50650  0.21370  0.21360  Biso   1.000  H
  C457     1.0000 0.45510  0.23754  0.22523  Biso   1.000  C
  H342     1.0000 0.44000  0.22080  0.21300  Biso   1.000  H
  C458     1.0000 0.55995  0.25690  0.24100  Biso   1.000  C
  H343     1.0000 0.57230  0.27900  0.24840  Biso   1.000  H
  C459     1.0000 0.58238  0.23170  0.23050  Biso   1.000  C
  H344     1.0000 0.57080  0.21040  0.22090  Biso   1.000  H
  C460     1.0000 0.62381  0.23130  0.23140  Biso   1.000  C
  C461     1.0000 0.23780  0.82830  0.14587  Biso   1.000  C
  C462     1.0000 0.24620  0.87080  0.14600  Biso   1.000  C
  H345     1.0000 0.26780  0.88010  0.15690  Biso   1.000  H
  C463     1.0000 0.22250  0.89540  0.13040  Biso   1.000  C
  H346     1.0000 0.20210  0.88500  0.11860  Biso   1.000  H
  C464     1.0000 0.22672  0.93981  0.13086  Biso   1.000  C
  C465     1.0000 0.26237  0.95626  0.13762  Biso   1.000  C
  H347     1.0000 0.28310  0.94070  0.14330  Biso   1.000  H
  C466     1.0000 0.26700  0.99600  0.13585  Biso   1.000  C
  H348     1.0000 0.29090  0.00700  0.14040  Biso   1.000  H
  C467     1.0000 0.23600  0.01930  0.12731  Biso   1.000  C
  C468     1.0000 0.20040  0.00280  0.12056  Biso   1.000  C
  H349     1.0000 0.17960  0.01840  0.11480  Biso   1.000  H
  C469     1.0000 0.19572  0.96309  0.12233  Biso   1.000  C
  H350     1.0000 0.17190  0.95210  0.11780  Biso   1.000  H
  C470     1.0000 0.24200  0.06050  0.12410  Biso   1.000  C
  H351     1.0000 0.22360  0.07360  0.11190  Biso   1.000  H
  C471     1.0000 0.26940  0.08130  0.13589  Biso   1.000  C
  H352     1.0000 0.29030  0.06860  0.14520  Biso   1.000  H
  C472     1.0000 0.27000  0.12490  0.13556  Biso   1.000  C
  H353     1.0000 0.20940  0.25700  0.35080  Biso   1.000  H
  C473     1.0000 0.25310  0.27540  0.36810  Biso   1.000  C
  H354     1.0000 0.27560  0.28750  0.36120  Biso   1.000  H
  C474     1.0000 0.25370  0.27220  0.40322  Biso   1.000  C
  C475     1.0000 0.27540  0.30060  0.41847  Biso   1.000  C
  H355     1.0000 0.29370  0.31440  0.40670  Biso   1.000  H
  C476     1.0000 0.26990  0.30830  0.45140  Biso   1.000  C
  H356     1.0000 0.28450  0.32730  0.46160  Biso   1.000  H
  C477     1.0000 0.24260  0.28770  0.46903  Biso   1.000  C
  C478     1.0000 0.24070  0.27910  0.45378  Biso   1.000  C
  H357     1.0000 0.25450  0.29740  0.46560  Biso   1.000  H
  C479     1.0000 0.22640  0.25160  0.42088  Biso   1.000  C
  H358     1.0000 0.26740  0.28820  0.41070  Biso   1.000  H
  C480     1.0000 0.24560  0.28950  0.50260  Biso   1.000  C
  H359     1.0000 0.26610  0.30400  0.51060  Biso   1.000  H
  H360     1.0000 0.23600  0.29730  0.51480  Biso   1.000  H
  Zn31     1.0000 0.76245  0.80236  0.74717  Biso   1.000  Zn
  Zn32     1.0000 0.69783  0.26254  0.61923  Biso   1.000  Zn
  O151     1.0000 0.81706  0.79064  0.74227  Biso   1.000  O
  O152     1.0000 0.80903  0.75057  0.70085  Biso   1.000  O
  O153     1.0000 0.13874  0.70215  0.71755  Biso   1.000  O
  O154     1.0000 0.14146  0.75786  0.74277  Biso   1.000  O
  O155     1.0000 0.75384  0.30725  0.66550  Biso   1.000  O
  O156     1.0000 0.70916  0.31628  0.62507  Biso   1.000  O
  O157     1.0000 0.74043  0.64127  0.62312  Biso   1.000  O
  O158     1.0000 0.79732  0.64013  0.64694  Biso   1.000  O
  O159     1.0000 0.75448  0.79209  0.79443  Biso   1.000  O
  O160     1.0000 0.75169  0.79210  0.07312  Biso   1.000  O
  C481     1.0000 0.82983  0.76900  0.72114  Biso   1.000  C
  C482     1.0000 0.87170  0.75890  0.72218  Biso   1.000  C
  H361     1.0000 0.88040  0.74050  0.70750  Biso   1.000  H
  C483     1.0000 0.89665  0.77360  0.74173  Biso   1.000  C
  H362     1.0000 0.88700  0.79100  0.75700  Biso   1.000  H
  C484     1.0000 0.93786  0.76682  0.74317  Biso   1.000  C
  C485     1.0000 0.96045  0.79182  0.76150  Biso   1.000  C
  H363     1.0000 0.94890  0.81140  0.77350  Biso   1.000  H
  C486     1.0000 0.00028  0.78755  0.76187  Biso   1.000  C
  H364     1.0000 0.01540  0.80430  0.77410  Biso   1.000  H
  C487     1.0000 0.01752  0.75827  0.74392  Biso   1.000  C
  C488     1.0000 0.99493  0.73326  0.72560  Biso   1.000  C
  H365     1.0000 0.00650  0.71370  0.71360  Biso   1.000  H
  C489     1.0000 0.95510  0.73754  0.72523  Biso   1.000  C
  H366     1.0000 0.94000  0.72080  0.71300  Biso   1.000  H
  C490     1.0000 0.05995  0.75690  0.74100  Biso   1.000  C
  H367     1.0000 0.07230  0.77900  0.74840  Biso   1.000  H
  C491     1.0000 0.08238  0.73170  0.73050  Biso   1.000  C
  H368     1.0000 0.07080  0.71040  0.72090  Biso   1.000  H
  C492     1.0000 0.12381  0.73130  0.73140  Biso   1.000  C
  C493     1.0000 0.73780  0.32830  0.64587  Biso   1.000  C
  C494     1.0000 0.74620  0.37080  0.64600  Biso   1.000  C
  H369     1.0000 0.76780  0.38010  0.65690  Biso   1.000  H
  C495     1.0000 0.72250  0.39540  0.63040  Biso   1.000  C
  H370     1.0000 0.70210  0.38500  0.61860  Biso   1.000  H
  C496     1.0000 0.72672  0.43981  0.63086  Biso   1.000  C
  C497     1.0000 0.76237  0.45626  0.63762  Biso   1.000  C
  H371     1.0000 0.78310  0.44070  0.64330  Biso   1.000  H
  C498     1.0000 0.76700  0.49600  0.63585  Biso   1.000  C
  H372     1.0000 0.79090  0.50700  0.64040  Biso   1.000  H
  C499     1.0000 0.73600  0.51930  0.62731  Biso   1.000  C
  C500     1.0000 0.70040  0.50280  0.62056  Biso   1.000  C
  H373     1.0000 0.67960  0.51840  0.61480  Biso   1.000  H
  C501     1.0000 0.69572  0.46309  0.62233  Biso   1.000  C
  H374     1.0000 0.67190  0.45210  0.61780  Biso   1.000  H
  C502     1.0000 0.74200  0.56050  0.62410  Biso   1.000  C
  H375     1.0000 0.72360  0.57360  0.61190  Biso   1.000  H
  C503     1.0000 0.76940  0.58130  0.63589  Biso   1.000  C
  H376     1.0000 0.79030  0.56860  0.64520  Biso   1.000  H
  C504     1.0000 0.77000  0.62490  0.63556  Biso   1.000  C
  H377     1.0000 0.70940  0.75700  0.85080  Biso   1.000  H
  C505     1.0000 0.75310  0.77540  0.86810  Biso   1.000  C
  H378     1.0000 0.77560  0.78750  0.86120  Biso   1.000  H
  C506     1.0000 0.75370  0.77220  0.90322  Biso   1.000  C
  C507     1.0000 0.77540  0.80060  0.91847  Biso   1.000  C
  H379     1.0000 0.79370  0.81440  0.90670  Biso   1.000  H
  C508     1.0000 0.76990  0.80830  0.95140  Biso   1.000  C
  H380     1.0000 0.78450  0.82730  0.96160  Biso   1.000  H
  C509     1.0000 0.74260  0.78770  0.96903  Biso   1.000  C
  C510     1.0000 0.74070  0.77910  0.95378  Biso   1.000  C
  H381     1.0000 0.75450  0.79740  0.96560  Biso   1.000  H
  C511     1.0000 0.72640  0.75160  0.92088  Biso   1.000  C
  H382     1.0000 0.76740  0.78820  0.91070  Biso   1.000  H
  C512     1.0000 0.74560  0.78950  0.00260  Biso   1.000  C
  H383     1.0000 0.76610  0.80400  0.01060  Biso   1.000  H
  H384     1.0000 0.73600  0.79730  0.01480  Biso   1.000  H
  Zn33     1.0000 0.19134  0.30866  0.66985  Biso   1.000  Zn
  Zn34     1.0000 0.25001  0.24999  0.68293  Biso   1.000  Zn
  O161     1.0000 0.27328  0.22672  0.72100  Biso   1.000  O
  O162     1.0000 0.22614  0.27386  0.64516  Biso   1.000  O
  C513     1.0000 0.26840  0.23160  0.80783  Biso   1.000  C
  C514     1.0000 0.26740  0.23260  0.84348  Biso   1.000  C
  C515     1.0000 0.27480  0.22520  0.02310  Biso   1.000  C
  C516     1.0000 0.27090  0.22910  0.05862  Biso   1.000  C
  Zn35     1.0000 0.80866  0.69134  0.66985  Biso   1.000  Zn
  Zn36     1.0000 0.74999  0.75001  0.68293  Biso   1.000  Zn
  O163     1.0000 0.72672  0.77328  0.72100  Biso   1.000  O
  O164     1.0000 0.77386  0.72614  0.64516  Biso   1.000  O
  C517     1.0000 0.73160  0.76840  0.80783  Biso   1.000  C
  C518     1.0000 0.73260  0.76740  0.84348  Biso   1.000  C
  C519     1.0000 0.72520  0.77480  0.02310  Biso   1.000  C
  C520     1.0000 0.72910  0.77090  0.05862  Biso   1.000  C
  Zn37     1.0000 0.30866  0.19134  0.16985  Biso   1.000  Zn
  Zn38     1.0000 0.24999  0.25001  0.18293  Biso   1.000  Zn
  O165     1.0000 0.22672  0.27328  0.22100  Biso   1.000  O
  O166     1.0000 0.27386  0.22614  0.14516  Biso   1.000  O
  C521     1.0000 0.23160  0.26840  0.30783  Biso   1.000  C
  C522     1.0000 0.23260  0.26740  0.34348  Biso   1.000  C
  C523     1.0000 0.22520  0.27480  0.52310  Biso   1.000  C
  C524     1.0000 0.22910  0.27090  0.55862  Biso   1.000  C
  Zn39     1.0000 0.69134  0.19134  0.66985  Biso   1.000  Zn
  Zn40     1.0000 0.75001  0.25001  0.68293  Biso   1.000  Zn
  O167     1.0000 0.77328  0.27328  0.72100  Biso   1.000  O
  O168     1.0000 0.72614  0.22614  0.64516  Biso   1.000  O
  C525     1.0000 0.76840  0.26840  0.80783  Biso   1.000  C
  C526     1.0000 0.76740  0.26740  0.84348  Biso   1.000  C
  C527     1.0000 0.77480  0.27480  0.02310  Biso   1.000  C
  C528     1.0000 0.77090  0.27090  0.05862  Biso   1.000  C
  Zn41     1.0000 0.30866  0.80866  0.66985  Biso   1.000  Zn
  Zn42     1.0000 0.24999  0.74999  0.68293  Biso   1.000  Zn
  O169     1.0000 0.22672  0.72672  0.72100  Biso   1.000  O
  O170     1.0000 0.27386  0.77386  0.64516  Biso   1.000  O
  C529     1.0000 0.23160  0.73160  0.80783  Biso   1.000  C
  C530     1.0000 0.23260  0.73260  0.84348  Biso   1.000  C
  C531     1.0000 0.22520  0.72520  0.02310  Biso   1.000  C
  C532     1.0000 0.22910  0.72910  0.05862  Biso   1.000  C
  Zn43     1.0000 0.19134  0.69134  0.16985  Biso   1.000  Zn
  Zn44     1.0000 0.25001  0.75001  0.18293  Biso   1.000  Zn
  O171     1.0000 0.27328  0.77328  0.22100  Biso   1.000  O
  O172     1.0000 0.22614  0.72614  0.14516  Biso   1.000  O
  C533     1.0000 0.26840  0.76840  0.30783  Biso   1.000  C
  C534     1.0000 0.26740  0.76740  0.34348  Biso   1.000  C
  C535     1.0000 0.27480  0.77480  0.52310  Biso   1.000  C
  C536     1.0000 0.27090  0.77090  0.55862  Biso   1.000  C
  Zn45     1.0000 0.80866  0.30866  0.16985  Biso   1.000  Zn
  Zn46     1.0000 0.74999  0.24999  0.18293  Biso   1.000  Zn
  O173     1.0000 0.72672  0.22672  0.22100  Biso   1.000  O
  O174     1.0000 0.77386  0.27386  0.14516  Biso   1.000  O
  C537     1.0000 0.73160  0.23160  0.30783  Biso   1.000  C
  C538     1.0000 0.73260  0.23260  0.34348  Biso   1.000  C
  C539     1.0000 0.72520  0.22520  0.52310  Biso   1.000  C
  C540     1.0000 0.72910  0.22910  0.55862  Biso   1.000  C
  Zn47     1.0000 0.69134  0.80866  0.16985  Biso   1.000  Zn
  Zn48     1.0000 0.75001  0.74999  0.18293  Biso   1.000  Zn
  O175     1.0000 0.77328  0.72672  0.22100  Biso   1.000  O
  O176     1.0000 0.72614  0.77386  0.14516  Biso   1.000  O
  C541     1.0000 0.76840  0.73160  0.30783  Biso   1.000  C
  C542     1.0000 0.76740  0.73260  0.34348  Biso   1.000  C
  C543     1.0000 0.77480  0.72520  0.52310  Biso   1.000  C
  C544     1.0000 0.77090  0.72910  0.55862  Biso   1.000  C
  Zn49     1.0000 0.19146  0.69146  0.69705  Biso   1.000  Zn
  Zn50     1.0000 0.80854  0.30854  0.69705  Biso   1.000  Zn
  Zn51     1.0000 0.30854  0.19146  0.69705  Biso   1.000  Zn
  Zn52     1.0000 0.80854  0.69146  0.19705  Biso   1.000  Zn
  Zn53     1.0000 0.69146  0.80854  0.69705  Biso   1.000  Zn
  Zn54     1.0000 0.19146  0.30854  0.19705  Biso   1.000  Zn
  Zn55     1.0000 0.30854  0.80854  0.19705  Biso   1.000  Zn
  Zn56     1.0000 0.69146  0.19146  0.19705  Biso   1.000  Zn
