data_cg5008236_si_002_clean
_audit_creation_date              2015-08-19
_audit_creation_method            'Materials Studio'
_symmetry_space_group_name_H-M    'P1'
_symmetry_Int_Tables_number       1
_symmetry_cell_setting            triclinic
loop_
_symmetry_equiv_pos_as_xyz
  x,y,z
_cell_length_a                    24.8241
_cell_length_b                    38.8452
_cell_length_c                    38.8452
_cell_angle_alpha                 120.0000
_cell_angle_beta                  90.0000
_cell_angle_gamma                 90.0000
loop_
_atom_site_label
_atom_site_type_symbol
_atom_site_fract_x
_atom_site_fract_y
_atom_site_fract_z
_atom_site_U_iso_or_equiv
_atom_site_adp_type
_atom_site_occupancy
Fe1    Fe    0.00000   0.31026   0.31434   0.01267  Uiso   1.00
Fe2    Fe    0.00000   0.28701   0.67064   0.01267  Uiso   1.00
Fe3    Fe    0.50000   0.68566   0.68974   0.01267  Uiso   1.00
Fe4    Fe    0.50000   0.00408   0.31434   0.01267  Uiso   1.00
Fe5    Fe    0.06611   0.76053   0.06601   0.01267  Uiso   1.00
Fe6    Fe    0.06611   0.30548   0.23947   0.01267  Uiso   1.00
Fe7    Fe    0.56611   0.30548   0.06601   0.01267  Uiso   1.00
Fe8    Fe    0.93389   0.76053   0.06601   0.01267  Uiso   1.00
Fe9    Fe    0.93389   0.30548   0.23947   0.01267  Uiso   1.00
Fe10   Fe    0.43389   0.76053   0.69452   0.01267  Uiso   1.00
Fe11   Fe    0.00000   0.68566   0.99592   0.01267  Uiso   1.00
Fe12   Fe    0.50000   0.28701   0.61637   0.01267  Uiso   1.00
Fe13   Fe    0.56611   0.76053   0.69452   0.01267  Uiso   1.00
Fe14   Fe    0.00000   0.00408   0.68974   0.01267  Uiso   1.00
Fe15   Fe    0.50000   0.31026   0.99592   0.01267  Uiso   1.00
Fe16   Fe    0.43389   0.93399   0.23947   0.01267  Uiso   1.00
Fe17   Fe    0.93389   0.93399   0.69452   0.01267  Uiso   1.00
Fe18   Fe    0.00000   0.38363   0.71299   0.01267  Uiso   1.00
Fe19   Fe    0.06611   0.93399   0.69452   0.01267  Uiso   1.00
Fe20   Fe    0.50000   0.38363   0.67064   0.01267  Uiso   1.00
Fe21   Fe    0.43389   0.30548   0.06601   0.01267  Uiso   1.00
Fe22   Fe    0.00000   0.32936   0.61637   0.01267  Uiso   1.00
Fe23   Fe    0.50000   0.32936   0.71299   0.01267  Uiso   1.00
Fe24   Fe    0.56611   0.93399   0.23947   0.01267  Uiso   1.00
H1     H     0.62440   0.17880   0.89380   0.01267  Uiso   1.00
H2     H     0.95030   0.83410   0.20270   0.01267  Uiso   1.00
H3     H     0.30230   0.24480   0.98410   0.01267  Uiso   1.00
H4     H     0.54610   0.77470   0.55900   0.01267  Uiso   1.00
H5     H     0.03210   0.79560   0.63730   0.01267  Uiso   1.00
H6     H     0.50140   0.87140   0.85330   0.01267  Uiso   1.00
H7     H     0.15720   0.44860   0.35460   0.01267  Uiso   1.00
H8     H     0.04860   0.90920   0.07820   0.01267  Uiso   1.00
H9     H     0.49860   0.87140   0.85330   0.01267  Uiso   1.00
H10    H     0.21940   0.80110   0.16340   0.01267  Uiso   1.00
H11    H     0.32490   0.39630   0.08760   0.01267  Uiso   1.00
H12    H     0.69770   0.24480   0.98410   0.01267  Uiso   1.00
H13    H     0.17450   0.37810   0.79880   0.01267  Uiso   1.00
H14    H     0.79740   0.41690   0.35060   0.01267  Uiso   1.00
H15    H     0.15060   0.28720   0.71740   0.01267  Uiso   1.00
H16    H     0.70390   0.40510   0.03460   0.01267  Uiso   1.00
H17    H     0.03210   0.84170   0.20440   0.01267  Uiso   1.00
H18    H     0.63630   0.78190   0.80700   0.01267  Uiso   1.00
H19    H     0.64850   0.82160   0.75450   0.01267  Uiso   1.00
H20    H     0.38410   0.19450   0.60470   0.01267  Uiso   1.00
H21    H     0.96920   0.17740   0.16770   0.01267  Uiso   1.00
H22    H     0.96770   0.83400   0.01000   0.01267  Uiso   1.00
H23    H     0.54610   0.44100   0.21570   0.01267  Uiso   1.00
H24    H     0.45280   0.74110   0.57010   0.01267  Uiso   1.00
H25    H     0.46910   0.83270   0.26650   0.01267  Uiso   1.00
H26    H     0.90750   0.29660   0.77220   0.01267  Uiso   1.00
H27    H     0.20390   0.40510   0.37050   0.01267  Uiso   1.00
H28    H     0.08060   0.17300   0.67930   0.01267  Uiso   1.00
H29    H     0.90810   0.05830   0.82200   0.01267  Uiso   1.00
H30    H     0.68970   0.75420   0.81160   0.01267  Uiso   1.00
H31    H     0.94980   0.21400   0.10310   0.01267  Uiso   1.00
H32    H     0.40810   0.05830   0.23630   0.01267  Uiso   1.00
H33    H     0.95280   0.42990   0.25890   0.01267  Uiso   1.00
H34    H     0.62440   0.10620   0.28500   0.01267  Uiso   1.00
H35    H     0.84730   0.37880   0.38670   0.01267  Uiso   1.00
H36    H     0.19560   0.67320   0.04370   0.01267  Uiso   1.00
H37    H     0.41970   0.31860   0.87920   0.01267  Uiso   1.00
H38    H     0.06880   0.19900   0.53790   0.01267  Uiso   1.00
H39    H     0.78780   0.71770   0.93880   0.01267  Uiso   1.00
H40    H     0.18980   0.24630   0.55540   0.01267  Uiso   1.00
H41    H     0.29740   0.41690   0.06630   0.01267  Uiso   1.00
H42    H     0.05020   0.89690   0.11090   0.01267  Uiso   1.00
H43    H     0.78060   0.80110   0.16340   0.01267  Uiso   1.00
H44    H     0.04720   0.42990   0.25890   0.01267  Uiso   1.00
H45    H     0.96970   0.87930   0.77800   0.01267  Uiso   1.00
H46    H     0.58040   0.87110   0.80050   0.01267  Uiso   1.00
H47    H     0.20260   0.41690   0.35060   0.01267  Uiso   1.00
H48    H     0.03100   0.79660   0.63850   0.01267  Uiso   1.00
H49    H     0.78060   0.36230   0.19890   0.01267  Uiso   1.00
H50    H     0.57670   0.18270   0.92200   0.01267  Uiso   1.00
H51    H     0.95030   0.36860   0.16590   0.01267  Uiso   1.00
H52    H     0.82550   0.42070   0.62190   0.01267  Uiso   1.00
H53    H     0.42080   0.09640   0.30700   0.01267  Uiso   1.00
H54    H     0.18540   0.76130   0.98590   0.01267  Uiso   1.00
H55    H     0.36830   0.59030   0.55940   0.01267  Uiso   1.00
H56    H     0.49890   0.39970   0.23540   0.01267  Uiso   1.00
H57    H     0.53220   0.83110   0.26570   0.01267  Uiso   1.00
H58    H     0.32490   0.69130   0.60370   0.01267  Uiso   1.00
H59    H     0.57800   0.62170   0.68630   0.01267  Uiso   1.00
H60    H     0.53030   0.22200   0.12070   0.01267  Uiso   1.00
H61    H     0.10010   0.99960   0.59750   0.01267  Uiso   1.00
H62    H     0.54910   0.98210   0.15880   0.01267  Uiso   1.00
H63    H     0.78780   0.22110   0.28230   0.01267  Uiso   1.00
H64    H     0.35630   0.68730   0.79760   0.01267  Uiso   1.00
H65    H     0.18970   0.75420   0.94260   0.01267  Uiso   1.00
H66    H     0.62500   0.91530   0.37440   0.01267  Uiso   1.00
H67    H     0.69230   0.26520   0.95820   0.01267  Uiso   1.00
H68    H     0.35710   0.78040   0.80990   0.01267  Uiso   1.00
H69    H     0.21220   0.71770   0.93880   0.01267  Uiso   1.00
H70    H     0.38410   0.41020   0.80550   0.01267  Uiso   1.00
H71    H     0.89990   0.59790   0.00040   0.01267  Uiso   1.00
H72    H     0.09880   0.43880   0.33680   0.01267  Uiso   1.00
H73    H     0.34730   0.00790   0.38670   0.01267  Uiso   1.00
H74    H     0.58050   0.19570   0.05830   0.01267  Uiso   1.00
H75    H     0.53080   0.83230   0.82260   0.01267  Uiso   1.00
H76    H     0.14670   0.07510   0.73820   0.01267  Uiso   1.00
H77    H     0.43250   0.44100   0.06980   0.01267  Uiso   1.00
H78    H     0.14540   0.87390   0.63930   0.01267  Uiso   1.00
H79    H     0.95090   0.41510   0.18670   0.01267  Uiso   1.00
H80    H     0.79740   0.93370   0.58310   0.01267  Uiso   1.00
H81    H     0.68980   0.24630   0.69090   0.01267  Uiso   1.00
H82    H     0.82490   0.39630   0.30870   0.01267  Uiso   1.00
H83    H     0.80410   0.36980   0.32710   0.01267  Uiso   1.00
H84    H     0.88410   0.39530   0.80550   0.01267  Uiso   1.00
H85    H     0.63630   0.02510   0.21810   0.01267  Uiso   1.00
H86    H     0.31030   0.75420   0.81160   0.01267  Uiso   1.00
H87    H     0.80990   0.68460   0.91300   0.01267  Uiso   1.00
H88    H     0.40750   0.29660   0.52440   0.01267  Uiso   1.00
H89    H     0.93250   0.62880   0.06980   0.01267  Uiso   1.00
H90    H     0.09250   0.22780   0.52440   0.01267  Uiso   1.00
H91    H     0.18980   0.30910   0.75370   0.01267  Uiso   1.00
H92    H     0.49870   0.75440   0.54600   0.01267  Uiso   1.00
H93    H     0.35630   0.11030   0.31270   0.01267  Uiso   1.00
H94    H     0.30990   0.22840   0.91300   0.01267  Uiso   1.00
H95    H     0.71940   0.83660   0.19890   0.01267  Uiso   1.00
H96    H     0.87560   0.17880   0.28500   0.01267  Uiso   1.00
H97    H     0.36370   0.19300   0.97490   0.01267  Uiso   1.00
H98    H     0.81670   0.32430   0.72340   0.01267  Uiso   1.00
H99    H     0.62790   0.19310   0.67150   0.01267  Uiso   1.00
H100   H     0.04910   0.81330   0.22840   0.01267  Uiso   1.00
H101   H     0.37560   0.71500   0.82120   0.01267  Uiso   1.00
H102   H     0.90750   0.47560   0.70340   0.01267  Uiso   1.00
H103   H     0.59880   0.66320   0.56120   0.01267  Uiso   1.00
H104   H     0.39990   0.59790   0.59750   0.01267  Uiso   1.00
H105   H     0.87550   0.66340   0.91010   0.01267  Uiso   1.00
H106   H     0.37210   0.19310   0.67150   0.01267  Uiso   1.00
H107   H     0.03080   0.17740   0.16770   0.01267  Uiso   1.00
H108   H     0.17510   0.91240   0.60370   0.01267  Uiso   1.00
H109   H     0.17510   0.69130   0.08760   0.01267  Uiso   1.00
H110   H     0.28060   0.80110   0.63770   0.01267  Uiso   1.00
H111   H     0.54860   0.90920   0.83100   0.01267  Uiso   1.00
H112   H     0.20260   0.93370   0.58310   0.01267  Uiso   1.00
H113   H     0.15720   0.64540   0.09400   0.01267  Uiso   1.00
H114   H     0.41950   0.86260   0.80430   0.01267  Uiso   1.00
H115   H     0.15060   0.43020   0.71280   0.01267  Uiso   1.00
H116   H     0.71940   0.36230   0.16340   0.01267  Uiso   1.00
H117   H     0.14290   0.02950   0.80990   0.01267  Uiso   1.00
H118   H     0.45090   0.77160   0.18670   0.01267  Uiso   1.00
H119   H     0.40750   0.22780   0.70340   0.01267  Uiso   1.00
H120   H     0.81020   0.30910   0.75370   0.01267  Uiso   1.00
H121   H     0.10010   0.40250   0.40210   0.01267  Uiso   1.00
H122   H     0.04970   0.83410   0.20270   0.01267  Uiso   1.00
H123   H     0.45030   0.79730   0.16590   0.01267  Uiso   1.00
H124   H     0.31020   0.24630   0.69090   0.01267  Uiso   1.00
H125   H     0.46790   0.36270   0.20440   0.01267  Uiso   1.00
H126   H     0.69010   0.68460   0.77160   0.01267  Uiso   1.00
H127   H     0.11590   0.41020   0.60470   0.01267  Uiso   1.00
H128   H     0.49890   0.83570   0.60030   0.01267  Uiso   1.00
H129   H     0.65000   0.39070   0.62120   0.01267  Uiso   1.00
H130   H     0.91940   0.50630   0.82700   0.01267  Uiso   1.00
H131   H     0.95090   0.84120   0.01790   0.01267  Uiso   1.00
H132   H     0.53080   0.99030   0.16770   0.01267  Uiso   1.00
H133   H     0.30440   0.67320   0.62950   0.01267  Uiso   1.00
H134   H     0.70260   0.64940   0.58310   0.01267  Uiso   1.00
H135   H     0.58030   0.79380   0.60590   0.01267  Uiso   1.00
H136   H     0.45280   0.82900   0.25890   0.01267  Uiso   1.00
H137   H     0.42330   0.07800   0.26070   0.01267  Uiso   1.00
H138   H     0.80230   0.01590   0.75520   0.01267  Uiso   1.00
H139   H     0.96770   0.99000   0.82400   0.01267  Uiso   1.00
H140   H     0.34280   0.90600   0.35460   0.01267  Uiso   1.00
H141   H     0.53080   0.17740   0.00970   0.01267  Uiso   1.00
H142   H     0.19230   0.04180   0.73480   0.01267  Uiso   1.00
H143   H     0.31460   0.01410   0.23870   0.01267  Uiso   1.00
H144   H     0.84710   0.07010   0.83030   0.01267  Uiso   1.00
H145   H     0.68330   0.32430   0.60090   0.01267  Uiso   1.00
H146   H     0.07940   0.78060   0.18480   0.01267  Uiso   1.00
H147   H     0.07250   0.43380   0.39360   0.01267  Uiso   1.00
H148   H     0.71220   0.22110   0.93880   0.01267  Uiso   1.00
H149   H     0.58060   0.17300   0.49370   0.01267  Uiso   1.00
H150   H     0.95280   0.74110   0.17100   0.01267  Uiso   1.00
H151   H     0.07800   0.62170   0.93540   0.01267  Uiso   1.00
H152   H     0.87550   0.08990   0.75330   0.01267  Uiso   1.00
H153   H     0.54910   0.17670   0.01790   0.01267  Uiso   1.00
H154   H     0.49860   0.14670   0.01810   0.01267  Uiso   1.00
H155   H     0.81020   0.24630   0.55540   0.01267  Uiso   1.00
H156   H     0.32290   0.36540   0.00220   0.01267  Uiso   1.00
H157   H     0.04860   0.92180   0.83100   0.01267  Uiso   1.00
H158   H     0.46780   0.73430   0.56540   0.01267  Uiso   1.00
H159   H     0.03270   0.90050   0.11930   0.01267  Uiso   1.00
H160   H     0.46910   0.73350   0.56620   0.01267  Uiso   1.00
H161   H     0.03230   0.83400   0.01000   0.01267  Uiso   1.00
H162   H     0.34710   0.16970   0.92990   0.01267  Uiso   1.00
H163   H     0.19770   0.01590   0.75520   0.01267  Uiso   1.00
H164   H     0.43120   0.19900   0.66110   0.01267  Uiso   1.00
H165   H     0.57250   0.43380   0.04020   0.01267  Uiso   1.00
H166   H     0.14850   0.24550   0.17840   0.01267  Uiso   1.00
H167   H     0.95020   0.88770   0.04320   0.01267  Uiso   1.00
H168   H     0.37210   0.47840   0.80690   0.01267  Uiso   1.00
H169   H     0.91940   0.17300   0.67930   0.01267  Uiso   1.00
H170   H     0.90370   0.89730   0.56430   0.01267  Uiso   1.00
H171   H     0.91690   0.68890   0.90190   0.01267  Uiso   1.00
H172   H     0.14370   0.20240   0.31270   0.01267  Uiso   1.00
H173   H     0.34280   0.64540   0.55140   0.01267  Uiso   1.00
H174   H     0.54910   0.41510   0.22840   0.01267  Uiso   1.00
H175   H     0.40120   0.66320   0.56120   0.01267  Uiso   1.00
H176   H     0.06880   0.46210   0.66110   0.01267  Uiso   1.00
H177   H     0.35150   0.82160   0.75450   0.01267  Uiso   1.00
H178   H     0.96900   0.36150   0.15810   0.01267  Uiso   1.00
H179   H     0.14800   0.68910   0.10310   0.01267  Uiso   1.00
H180   H     0.31460   0.76130   0.77540   0.01267  Uiso   1.00
H181   H     0.69560   0.37050   0.04370   0.01267  Uiso   1.00
H182   H     0.15290   0.16970   0.23980   0.01267  Uiso   1.00
H183   H     0.69010   0.22840   0.91300   0.01267  Uiso   1.00
H184   H     0.54910   0.84120   0.82330   0.01267  Uiso   1.00
H185   H     0.93120   0.33890   0.80100   0.01267  Uiso   1.00
H186   H     0.09190   0.17800   0.23630   0.01267  Uiso   1.00
H187   H     0.32550   0.42070   0.79880   0.01267  Uiso   1.00
H188   H     0.09630   0.43570   0.33300   0.01267  Uiso   1.00
H189   H     0.45090   0.81330   0.58490   0.01267  Uiso   1.00
H190   H     0.85460   0.36070   0.23460   0.01267  Uiso   1.00
H191   H     0.03030   0.87930   0.77800   0.01267  Uiso   1.00
H192   H     0.45090   0.84120   0.82330   0.01267  Uiso   1.00
H193   H     0.65720   0.64540   0.55140   0.01267  Uiso   1.00
H194   H     0.17450   0.20120   0.57930   0.01267  Uiso   1.00
H195   H     0.50110   0.83570   0.60030   0.01267  Uiso   1.00
H196   H     0.11590   0.39530   0.80550   0.01267  Uiso   1.00
H197   H     0.08310   0.09810   0.78700   0.01267  Uiso   1.00
H198   H     0.14670   0.26180   0.33690   0.01267  Uiso   1.00
H199   H     0.80770   0.69300   0.95820   0.01267  Uiso   1.00
H200   H     0.65630   0.42520   0.01820   0.01267  Uiso   1.00
H201   H     0.27980   0.24360   0.10190   0.01267  Uiso   1.00
H202   H     0.65000   0.37880   0.76950   0.01267  Uiso   1.00
H203   H     0.62790   0.47840   0.80690   0.01267  Uiso   1.00
H204   H     0.82290   0.99780   0.63460   0.01267  Uiso   1.00
H205   H     0.61590   0.41020   0.80550   0.01267  Uiso   1.00
H206   H     0.49750   0.18020   0.10260   0.01267  Uiso   1.00
H207   H     0.54910   0.77160   0.18670   0.01267  Uiso   1.00
H208   H     0.42060   0.78060   0.59580   0.01267  Uiso   1.00
H209   H     0.67510   0.69130   0.60370   0.01267  Uiso   1.00
H210   H     0.27980   0.89810   0.14170   0.01267  Uiso   1.00
H211   H     0.84710   0.76020   0.92990   0.01267  Uiso   1.00
H212   H     0.56880   0.33890   0.53790   0.01267  Uiso   1.00
H213   H     0.15720   0.90600   0.55140   0.01267  Uiso   1.00
H214   H     0.35330   0.66310   0.73820   0.01267  Uiso   1.00
H215   H     0.54610   0.78430   0.22530   0.01267  Uiso   1.00
H216   H     0.34940   0.28720   0.56980   0.01267  Uiso   1.00
H217   H     0.87500   0.91530   0.54090   0.01267  Uiso   1.00
H218   H     0.43120   0.33890   0.53790   0.01267  Uiso   1.00
H219   H     0.53030   0.87930   0.10130   0.01267  Uiso   1.00
H220   H     0.08030   0.31860   0.43940   0.01267  Uiso   1.00
H221   H     0.85200   0.41400   0.31090   0.01267  Uiso   1.00
H222   H     0.09880   0.89800   0.56120   0.01267  Uiso   1.00
H223   H     0.57940   0.81520   0.21940   0.01267  Uiso   1.00
H224   H     0.45030   0.83410   0.63140   0.01267  Uiso   1.00
H225   H     0.10050   0.59710   0.00170   0.01267  Uiso   1.00
H226   H     0.45280   0.42990   0.17100   0.01267  Uiso   1.00
H227   H     0.87500   0.45910   0.37440   0.01267  Uiso   1.00
H228   H     0.45030   0.36860   0.20270   0.01267  Uiso   1.00
H229   H     0.72020   0.24360   0.10190   0.01267  Uiso   1.00
H230   H     0.50250   0.89740   0.07760   0.01267  Uiso   1.00
H231   H     0.90120   0.66320   0.10200   0.01267  Uiso   1.00
H232   H     0.57920   0.69300   0.78940   0.01267  Uiso   1.00
H233   H     0.08050   0.19570   0.13740   0.01267  Uiso   1.00
H234   H     0.80940   0.04420   0.73400   0.01267  Uiso   1.00
H235   H     0.65000   0.23050   0.60930   0.01267  Uiso   1.00
H236   H     0.37210   0.32850   0.52160   0.01267  Uiso   1.00
H237   H     0.87560   0.10620   0.82120   0.01267  Uiso   1.00
H238   H     0.96920   0.83230   0.00970   0.01267  Uiso   1.00
H239   H     0.59250   0.22780   0.70340   0.01267  Uiso   1.00
H240   H     0.35330   0.26180   0.92490   0.01267  Uiso   1.00
H241   H     0.07940   0.81520   0.59580   0.01267  Uiso   1.00
H242   H     0.00140   0.87140   0.01810   0.01267  Uiso   1.00
H243   H     0.62450   0.66340   0.75330   0.01267  Uiso   1.00
H244   H     0.92080   0.09640   0.78940   0.01267  Uiso   1.00
H245   H     0.08050   0.94170   0.80430   0.01267  Uiso   1.00
H246   H     0.64290   0.78040   0.80990   0.01267  Uiso   1.00
H247   H     0.95390   0.78430   0.55900   0.01267  Uiso   1.00
H248   H     0.89990   0.40250   0.40210   0.01267  Uiso   1.00
H249   H     0.09630   0.89730   0.56430   0.01267  Uiso   1.00
H250   H     0.41940   0.17300   0.49370   0.01267  Uiso   1.00
H251   H     0.96900   0.79660   0.63850   0.01267  Uiso   1.00
H252   H     0.90750   0.22780   0.52440   0.01267  Uiso   1.00
H253   H     0.12450   0.08990   0.75330   0.01267  Uiso   1.00
H254   H     0.84710   0.16970   0.23980   0.01267  Uiso   1.00
H255   H     0.59190   0.76370   0.82200   0.01267  Uiso   1.00
H256   H     0.36830   0.44060   0.03090   0.01267  Uiso   1.00
H257   H     0.15270   0.37880   0.38670   0.01267  Uiso   1.00
H258   H     0.92330   0.73930   0.92200   0.01267  Uiso   1.00
H259   H     0.03230   0.99000   0.82400   0.01267  Uiso   1.00
H260   H     0.53090   0.43380   0.16730   0.01267  Uiso   1.00
H261   H     0.96910   0.73350   0.16730   0.01267  Uiso   1.00
H262   H     0.35000   0.37880   0.76950   0.01267  Uiso   1.00
H263   H     0.54980   0.95680   0.11230   0.01267  Uiso   1.00
H264   H     0.50130   0.79160   0.24560   0.01267  Uiso   1.00
H265   H     0.44980   0.88910   0.10310   0.01267  Uiso   1.00
H266   H     0.04980   0.15550   0.11230   0.01267  Uiso   1.00
H267   H     0.40370   0.66700   0.56430   0.01267  Uiso   1.00
H268   H     0.85150   0.93290   0.75450   0.01267  Uiso   1.00
H269   H     0.91970   0.39410   0.20620   0.01267  Uiso   1.00
H270   H     0.18970   0.05740   0.81160   0.01267  Uiso   1.00
H271   H     0.89950   0.99830   0.59540   0.01267  Uiso   1.00
H272   H     0.19560   0.37050   0.32680   0.01267  Uiso   1.00
H273   H     0.99750   0.18020   0.07760   0.01267  Uiso   1.00
H274   H     0.34370   0.59300   0.57480   0.01267  Uiso   1.00
H275   H     0.65630   0.98180   0.40700   0.01267  Uiso   1.00
H276   H     0.91950   0.94170   0.80430   0.01267  Uiso   1.00
H277   H     0.87550   0.24670   0.33660   0.01267  Uiso   1.00
H278   H     0.72020   0.89810   0.14170   0.01267  Uiso   1.00
H279   H     0.03080   0.83230   0.00970   0.01267  Uiso   1.00
H280   H     0.62790   0.32850   0.52160   0.01267  Uiso   1.00
H281   H     0.18540   0.22460   0.23870   0.01267  Uiso   1.00
H282   H     0.46900   0.84190   0.63850   0.01267  Uiso   1.00
H283   H     0.82550   0.37810   0.79880   0.01267  Uiso   1.00
H284   H     0.85150   0.24550   0.17840   0.01267  Uiso   1.00
H285   H     0.64540   0.87390   0.23460   0.01267  Uiso   1.00
H286   H     0.78060   0.83660   0.63770   0.01267  Uiso   1.00
H287   H     0.70390   0.96540   0.37050   0.01267  Uiso   1.00
H288   H     0.69590   0.67290   0.63020   0.01267  Uiso   1.00
H289   H     0.15630   0.59300   0.01820   0.01267  Uiso   1.00
H290   H     0.64670   0.26180   0.92490   0.01267  Uiso   1.00
H291   H     0.30230   0.01590   0.26070   0.01267  Uiso   1.00
H292   H     0.85710   0.19010   0.21960   0.01267  Uiso   1.00
H293   H     0.60050   0.59710   0.59540   0.01267  Uiso   1.00
H294   H     0.46920   0.99030   0.16770   0.01267  Uiso   1.00
H295   H     0.50140   0.14670   0.01810   0.01267  Uiso   1.00
H296   H     0.30770   0.69300   0.73480   0.01267  Uiso   1.00
H297   H     0.91960   0.92940   0.80050   0.01267  Uiso   1.00
H298   H     0.95390   0.44100   0.22530   0.01267  Uiso   1.00
H299   H     0.67710   0.63680   0.63460   0.01267  Uiso   1.00
H300   H     0.18330   0.27660   0.60090   0.01267  Uiso   1.00
H301   H     0.04610   0.44100   0.22530   0.01267  Uiso   1.00
H302   H     0.07250   0.60640   0.04020   0.01267  Uiso   1.00
H303   H     0.96730   0.88070   0.78120   0.01267  Uiso   1.00
H304   H     0.05020   0.21400   0.10310   0.01267  Uiso   1.00
H305   H     0.30230   0.73930   0.75520   0.01267  Uiso   1.00
H306   H     0.13170   0.44060   0.40970   0.01267  Uiso   1.00
H307   H     0.10010   0.59790   0.00040   0.01267  Uiso   1.00
H308   H     0.95020   0.15550   0.11230   0.01267  Uiso   1.00
H309   H     0.42750   0.95980   0.39360   0.01267  Uiso   1.00
H310   H     0.42270   0.22960   0.55330   0.01267  Uiso   1.00
H311   H     0.43120   0.46210   0.80100   0.01267  Uiso   1.00
H312   H     0.41970   0.56060   0.68140   0.01267  Uiso   1.00
H313   H     0.50250   0.92240   0.81980   0.01267  Uiso   1.00
H314   H     0.57920   0.09640   0.30700   0.01267  Uiso   1.00
H315   H     0.37500   0.62560   0.54090   0.01267  Uiso   1.00
H316   H     0.70260   0.41690   0.06630   0.01267  Uiso   1.00
H317   H     0.68330   0.27660   0.67570   0.01267  Uiso   1.00
H318   H     0.67710   0.99780   0.36320   0.01267  Uiso   1.00
H319   H     0.37500   0.45910   0.08470   0.01267  Uiso   1.00
H320   H     0.21940   0.83660   0.63770   0.01267  Uiso   1.00
H321   H     0.53100   0.36150   0.20340   0.01267  Uiso   1.00
H322   H     0.68980   0.44460   0.75370   0.01267  Uiso   1.00
H323   H     0.80410   0.95730   0.63020   0.01267  Uiso   1.00
H324   H     0.37500   0.91530   0.37440   0.01267  Uiso   1.00
H325   H     0.58050   0.86260   0.80430   0.01267  Uiso   1.00
H326   H     0.65270   0.37880   0.99210   0.01267  Uiso   1.00
H327   H     0.45390   0.44100   0.21570   0.01267  Uiso   1.00
H328   H     0.69590   0.95730   0.32710   0.01267  Uiso   1.00
H329   H     0.12500   0.91530   0.54090   0.01267  Uiso   1.00
H330   H     0.67510   0.39630   0.08760   0.01267  Uiso   1.00
H331   H     0.30410   0.36980   0.04270   0.01267  Uiso   1.00
H332   H     0.80440   0.95630   0.62950   0.01267  Uiso   1.00
H333   H     0.85710   0.02950   0.80990   0.01267  Uiso   1.00
H334   H     0.34730   0.37880   0.99210   0.01267  Uiso   1.00
H335   H     0.50250   0.18020   0.10260   0.01267  Uiso   1.00
H336   H     0.99890   0.83570   0.23540   0.01267  Uiso   1.00
H337   H     0.84730   0.00790   0.62120   0.01267  Uiso   1.00
H338   H     0.61590   0.19450   0.60470   0.01267  Uiso   1.00
H339   H     0.79610   0.40510   0.37050   0.01267  Uiso   1.00
H340   H     0.72020   0.85830   0.75640   0.01267  Uiso   1.00
H341   H     0.65290   0.76020   0.83030   0.01267  Uiso   1.00
H342   H     0.08040   0.19950   0.12890   0.01267  Uiso   1.00
H343   H     0.42270   0.44670   0.67630   0.01267  Uiso   1.00
H344   H     0.46780   0.43460   0.16890   0.01267  Uiso   1.00
H345   H     0.42080   0.69300   0.78940   0.01267  Uiso   1.00
H346   H     0.03210   0.36270   0.15830   0.01267  Uiso   1.00
H347   H     0.58030   0.12080   0.43940   0.01267  Uiso   1.00
H348   H     0.12450   0.24670   0.33660   0.01267  Uiso   1.00
H349   H     0.46770   0.99000   0.16600   0.01267  Uiso   1.00
H350   H     0.13630   0.78190   0.97490   0.01267  Uiso   1.00
H351   H     0.54970   0.79730   0.16590   0.01267  Uiso   1.00
H352   H     0.82550   0.20120   0.57930   0.01267  Uiso   1.00
H353   H     0.69560   0.67320   0.62950   0.01267  Uiso   1.00
H354   H     0.35330   0.07510   0.33690   0.01267  Uiso   1.00
H355   H     0.42330   0.18270   0.92200   0.01267  Uiso   1.00
H356   H     0.30940   0.26600   0.95580   0.01267  Uiso   1.00
H357   H     0.79740   0.64940   0.06630   0.01267  Uiso   1.00
H358   H     0.12500   0.62560   0.08470   0.01267  Uiso   1.00
H359   H     0.07920   0.21060   0.30700   0.01267  Uiso   1.00
H360   H     0.43250   0.62880   0.55900   0.01267  Uiso   1.00
H361   H     0.30770   0.04180   0.30700   0.01267  Uiso   1.00
H362   H     0.14290   0.19010   0.21960   0.01267  Uiso   1.00
H363   H     0.14850   0.93290   0.75450   0.01267  Uiso   1.00
H364   H     0.60050   0.99830   0.40290   0.01267  Uiso   1.00
H365   H     0.91970   0.81210   0.60590   0.01267  Uiso   1.00
H366   H     0.84940   0.28260   0.56980   0.01267  Uiso   1.00
H367   H     0.08030   0.39410   0.20620   0.01267  Uiso   1.00
H368   H     0.14850   0.82160   0.06710   0.01267  Uiso   1.00
H369   H     0.87500   0.62560   0.08470   0.01267  Uiso   1.00
H370   H     0.92060   0.81520   0.59580   0.01267  Uiso   1.00
H371   H     0.45390   0.77470   0.55900   0.01267  Uiso   1.00
H372   H     0.17450   0.42070   0.62190   0.01267  Uiso   1.00
H373   H     0.46970   0.89870   0.77800   0.01267  Uiso   1.00
H374   H     0.12440   0.10620   0.82120   0.01267  Uiso   1.00
H375   H     0.50130   0.75440   0.54600   0.01267  Uiso   1.00
H376   H     0.19230   0.69300   0.95820   0.01267  Uiso   1.00
H377   H     0.95280   0.82900   0.57010   0.01267  Uiso   1.00
H378   H     0.09250   0.29660   0.77220   0.01267  Uiso   1.00
H379   H     0.46770   0.17600   0.01000   0.01267  Uiso   1.00
H380   H     0.41960   0.87110   0.80050   0.01267  Uiso   1.00
H381   H     0.31460   0.22460   0.98590   0.01267  Uiso   1.00
H382   H     0.28780   0.71770   0.77890   0.01267  Uiso   1.00
H383   H     0.57670   0.07800   0.26070   0.01267  Uiso   1.00
H384   H     0.35200   0.68910   0.58600   0.01267  Uiso   1.00
H385   H     0.31030   0.18840   0.94260   0.01267  Uiso   1.00
H386   H     0.12790   0.47840   0.67150   0.01267  Uiso   1.00
H387   H     0.91690   0.09810   0.78700   0.01267  Uiso   1.00
H388   H     0.04610   0.77470   0.21570   0.01267  Uiso   1.00
H389   H     0.42200   0.31370   0.93540   0.01267  Uiso   1.00
H390   H     0.92270   0.22960   0.67630   0.01267  Uiso   1.00
H391   H     0.12440   0.71500   0.89380   0.01267  Uiso   1.00
H392   H     0.34370   0.42520   0.01820   0.01267  Uiso   1.00
H393   H     0.80990   0.08700   0.77160   0.01267  Uiso   1.00
H394   H     0.80230   0.73930   0.98410   0.01267  Uiso   1.00
H395   H     0.27980   0.85830   0.75640   0.01267  Uiso   1.00
H396   H     0.58310   0.68890   0.78700   0.01267  Uiso   1.00
H397   H     0.69060   0.04420   0.31020   0.01267  Uiso   1.00
H398   H     0.92270   0.32370   0.55330   0.01267  Uiso   1.00
H399   H     0.00110   0.83570   0.23540   0.01267  Uiso   1.00
H400   H     0.19230   0.26520   0.30700   0.01267  Uiso   1.00
H401   H     0.37560   0.17880   0.89380   0.01267  Uiso   1.00
H402   H     0.57800   0.31370   0.93540   0.01267  Uiso   1.00
H403   H     0.80940   0.26600   0.31020   0.01267  Uiso   1.00
H404   H     0.49750   0.92240   0.81980   0.01267  Uiso   1.00
H405   H     0.15000   0.37880   0.60930   0.01267  Uiso   1.00
H406   H     0.59250   0.29660   0.52440   0.01267  Uiso   1.00
H407   H     0.40750   0.47560   0.77220   0.01267  Uiso   1.00
H408   H     0.15000   0.23050   0.62120   0.01267  Uiso   1.00
H409   H     0.41690   0.68890   0.78700   0.01267  Uiso   1.00
H410   H     0.58030   0.31860   0.87920   0.01267  Uiso   1.00
H411   H     0.59630   0.66700   0.56430   0.01267  Uiso   1.00
H412   H     0.96770   0.17600   0.16600   0.01267  Uiso   1.00
H413   H     0.32290   0.63680   0.63460   0.01267  Uiso   1.00
H414   H     0.56880   0.46210   0.80100   0.01267  Uiso   1.00
H415   H     0.54860   0.16900   0.07820   0.01267  Uiso   1.00
H416   H     0.94980   0.89690   0.11090   0.01267  Uiso   1.00
H417   H     0.96780   0.73430   0.16890   0.01267  Uiso   1.00
H418   H     0.36370   0.78190   0.80700   0.01267  Uiso   1.00
H419   H     0.19010   0.22840   0.31540   0.01267  Uiso   1.00
H420   H     0.85330   0.07510   0.73820   0.01267  Uiso   1.00
H421   H     0.53220   0.73430   0.56540   0.01267  Uiso   1.00
H422   H     0.03270   0.21880   0.09950   0.01267  Uiso   1.00
H423   H     0.29740   0.64940   0.58310   0.01267  Uiso   1.00
H424   H     0.84280   0.64540   0.09400   0.01267  Uiso   1.00
H425   H     0.92750   0.95980   0.56620   0.01267  Uiso   1.00
H426   H     0.91970   0.56060   0.87920   0.01267  Uiso   1.00
H427   H     0.30440   0.95630   0.32680   0.01267  Uiso   1.00
H428   H     0.00110   0.76460   0.60030   0.01267  Uiso   1.00
H429   H     0.37550   0.08990   0.33660   0.01267  Uiso   1.00
H430   H     0.14800   0.89690   0.58600   0.01267  Uiso   1.00
H431   H     0.13170   0.59030   0.03090   0.01267  Uiso   1.00
H432   H     0.86830   0.96910   0.55940   0.01267  Uiso   1.00
H433   H     0.85710   0.78040   0.97050   0.01267  Uiso   1.00
H434   H     0.41970   0.79380   0.60590   0.01267  Uiso   1.00
H435   H     0.57940   0.40420   0.18480   0.01267  Uiso   1.00
H436   H     0.64370   0.20240   0.88970   0.01267  Uiso   1.00
H437   H     0.99870   0.79160   0.54600   0.01267  Uiso   1.00
H438   H     0.40810   0.76370   0.82200   0.01267  Uiso   1.00
H439   H     0.65290   0.16970   0.92990   0.01267  Uiso   1.00
H440   H     0.84370   0.59300   0.01820   0.01267  Uiso   1.00
H441   H     0.85150   0.82160   0.06710   0.01267  Uiso   1.00
H442   H     0.28060   0.83660   0.19890   0.01267  Uiso   1.00
H443   H     0.50130   0.45400   0.20840   0.01267  Uiso   1.00
H444   H     0.56750   0.93020   0.37120   0.01267  Uiso   1.00
H445   H     0.20390   0.62950   0.03460   0.01267  Uiso   1.00
H446   H     0.54720   0.42990   0.17100   0.01267  Uiso   1.00
H447   H     0.64540   0.36070   0.12610   0.01267  Uiso   1.00
H448   H     0.35710   0.02950   0.21960   0.01267  Uiso   1.00
H449   H     0.08310   0.21300   0.31110   0.01267  Uiso   1.00
H450   H     0.50140   0.98190   0.12860   0.01267  Uiso   1.00
H451   H     0.58310   0.21300   0.90190   0.01267  Uiso   1.00
H452   H     0.91970   0.31860   0.43940   0.01267  Uiso   1.00
H453   H     0.96780   0.43460   0.26570   0.01267  Uiso   1.00
H454   H     0.46970   0.87930   0.10130   0.01267  Uiso   1.00
H455   H     0.80990   0.22840   0.31540   0.01267  Uiso   1.00
H456   H     0.92080   0.21060   0.30700   0.01267  Uiso   1.00
H457   H     0.81030   0.18840   0.24580   0.01267  Uiso   1.00
H458   H     0.30940   0.04420   0.31020   0.01267  Uiso   1.00
H459   H     0.29740   0.93370   0.35060   0.01267  Uiso   1.00
H460   H     0.89950   0.59710   0.00170   0.01267  Uiso   1.00
H461   H     0.91950   0.19570   0.13740   0.01267  Uiso   1.00
H462   H     0.58030   0.39410   0.18790   0.01267  Uiso   1.00
H463   H     0.93250   0.93020   0.55900   0.01267  Uiso   1.00
H464   H     0.17510   0.39630   0.30870   0.01267  Uiso   1.00
H465   H     0.64540   0.76540   0.63930   0.01267  Uiso   1.00
H466   H     0.08030   0.81210   0.60590   0.01267  Uiso   1.00
H467   H     0.45020   0.15550   0.04320   0.01267  Uiso   1.00
H468   H     0.81020   0.44460   0.69090   0.01267  Uiso   1.00
H469   H     0.19590   0.95730   0.63020   0.01267  Uiso   1.00
H470   H     0.99890   0.39970   0.16430   0.01267  Uiso   1.00
H471   H     0.40120   0.89800   0.33680   0.01267  Uiso   1.00
H472   H     0.31670   0.32430   0.60090   0.01267  Uiso   1.00
H473   H     0.41950   0.94170   0.13740   0.01267  Uiso   1.00
H474   H     0.46770   0.83400   0.82400   0.01267  Uiso   1.00
H475   H     0.67510   0.91240   0.30870   0.01267  Uiso   1.00
H476   H     0.53270   0.90050   0.78120   0.01267  Uiso   1.00
H477   H     0.53220   0.43460   0.16890   0.01267  Uiso   1.00
H478   H     0.91940   0.32070   0.49370   0.01267  Uiso   1.00
H479   H     0.93250   0.44100   0.37120   0.01267  Uiso   1.00
H480   H     0.30990   0.08700   0.31540   0.01267  Uiso   1.00
H481   H     0.95090   0.98210   0.82330   0.01267  Uiso   1.00
H482   H     0.21220   0.06120   0.77890   0.01267  Uiso   1.00
H483   H     0.57670   0.73930   0.81730   0.01267  Uiso   1.00
H484   H     0.84730   0.61330   0.99210   0.01267  Uiso   1.00
H485   H     0.69230   0.69300   0.73480   0.01267  Uiso   1.00
H486   H     0.70260   0.93370   0.35060   0.01267  Uiso   1.00
H487   H     0.94980   0.88910   0.78600   0.01267  Uiso   1.00
H488   H     0.13170   0.96910   0.55940   0.01267  Uiso   1.00
H489   H     0.31020   0.30910   0.55540   0.01267  Uiso   1.00
H490   H     0.42080   0.21060   0.90360   0.01267  Uiso   1.00
H491   H     0.34370   0.98180   0.40700   0.01267  Uiso   1.00
H492   H     0.41960   0.19950   0.07060   0.01267  Uiso   1.00
H493   H     0.84280   0.44860   0.35460   0.01267  Uiso   1.00
H494   H     0.35200   0.41400   0.10310   0.01267  Uiso   1.00
H495   H     0.92270   0.44670   0.77040   0.01267  Uiso   1.00
H496   H     0.57730   0.22960   0.55330   0.01267  Uiso   1.00
H497   H     0.18980   0.44460   0.69090   0.01267  Uiso   1.00
H498   H     0.35460   0.87390   0.23460   0.01267  Uiso   1.00
H499   H     0.68970   0.05740   0.24580   0.01267  Uiso   1.00
H500   H     0.64670   0.66310   0.73820   0.01267  Uiso   1.00
H501   H     0.53090   0.73350   0.56620   0.01267  Uiso   1.00
H502   H     0.00130   0.45400   0.24560   0.01267  Uiso   1.00
H503   H     0.41690   0.09810   0.31110   0.01267  Uiso   1.00
H504   H     0.64370   0.11030   0.31270   0.01267  Uiso   1.00
H505   H     0.62440   0.71500   0.82120   0.01267  Uiso   1.00
H506   H     0.46900   0.36150   0.20340   0.01267  Uiso   1.00
H507   H     0.99750   0.89740   0.81980   0.01267  Uiso   1.00
H508   H     0.84940   0.43020   0.71280   0.01267  Uiso   1.00
H509   H     0.34280   0.44860   0.09400   0.01267  Uiso   1.00
H510   H     0.28780   0.06120   0.28230   0.01267  Uiso   1.00
H511   H     0.07670   0.07800   0.81730   0.01267  Uiso   1.00
H512   H     0.67450   0.42070   0.79880   0.01267  Uiso   1.00
H513   H     0.53230   0.99000   0.16600   0.01267  Uiso   1.00
H514   H     0.04910   0.84120   0.01790   0.01267  Uiso   1.00
H515   H     0.80230   0.24480   0.26070   0.01267  Uiso   1.00
H516   H     0.42060   0.40420   0.18480   0.01267  Uiso   1.00
H517   H     0.53230   0.17600   0.01000   0.01267  Uiso   1.00
H518   H     0.68540   0.01410   0.23870   0.01267  Uiso   1.00
H519   H     0.15290   0.07010   0.83030   0.01267  Uiso   1.00
H520   H     0.05020   0.88910   0.78600   0.01267  Uiso   1.00
H521   H     0.04720   0.82900   0.57010   0.01267  Uiso   1.00
H522   H     0.54860   0.92180   0.09080   0.01267  Uiso   1.00
H523   H     0.77980   0.89810   0.75640   0.01267  Uiso   1.00
H524   H     0.95140   0.16900   0.09080   0.01267  Uiso   1.00
H525   H     0.62450   0.24670   0.91010   0.01267  Uiso   1.00
H526   H     0.92060   0.78060   0.18480   0.01267  Uiso   1.00
H527   H     0.56750   0.62880   0.55900   0.01267  Uiso   1.00
H528   H     0.10050   0.99830   0.59540   0.01267  Uiso   1.00
H529   H     0.46920   0.17740   0.00970   0.01267  Uiso   1.00
H530   H     0.04910   0.41510   0.18670   0.01267  Uiso   1.00
H531   H     0.12440   0.17880   0.28500   0.01267  Uiso   1.00
H532   H     0.36830   0.96910   0.40970   0.01267  Uiso   1.00
H533   H     0.54910   0.81330   0.58490   0.01267  Uiso   1.00
H534   H     0.41950   0.19570   0.05830   0.01267  Uiso   1.00
H535   H     0.54970   0.36860   0.20270   0.01267  Uiso   1.00
H536   H     0.85000   0.37880   0.60930   0.01267  Uiso   1.00
H537   H     0.68540   0.22460   0.98590   0.01267  Uiso   1.00
H538   H     0.03220   0.83110   0.56540   0.01267  Uiso   1.00
H539   H     0.09630   0.66700   0.10270   0.01267  Uiso   1.00
H540   H     0.03100   0.36150   0.15810   0.01267  Uiso   1.00
H541   H     0.65720   0.44860   0.09400   0.01267  Uiso   1.00
H542   H     0.54720   0.82900   0.25890   0.01267  Uiso   1.00
H543   H     0.62500   0.62560   0.54090   0.01267  Uiso   1.00
H544   H     0.62500   0.45910   0.08470   0.01267  Uiso   1.00
H545   H     0.85000   0.23050   0.62120   0.01267  Uiso   1.00
H546   H     0.35200   0.89690   0.31090   0.01267  Uiso   1.00
H547   H     0.22020   0.24360   0.14170   0.01267  Uiso   1.00
H548   H     0.81460   0.76130   0.98590   0.01267  Uiso   1.00
H549   H     0.64370   0.68730   0.79760   0.01267  Uiso   1.00
H550   H     0.88410   0.41020   0.60470   0.01267  Uiso   1.00
H551   H     0.95090   0.81330   0.22840   0.01267  Uiso   1.00
H552   H     0.00110   0.39970   0.16430   0.01267  Uiso   1.00
H553   H     0.92330   0.07800   0.81730   0.01267  Uiso   1.00
H554   H     0.96970   0.22200   0.10130   0.01267  Uiso   1.00
H555   H     0.90120   0.43880   0.33680   0.01267  Uiso   1.00
H556   H     0.39990   0.40250   0.00040   0.01267  Uiso   1.00
H557   H     0.64850   0.93290   0.17840   0.01267  Uiso   1.00
H558   H     0.96900   0.84190   0.20340   0.01267  Uiso   1.00
H559   H     0.41690   0.21300   0.90190   0.01267  Uiso   1.00
H560   H     0.80440   0.67320   0.04370   0.01267  Uiso   1.00
H561   H     0.17710   0.99780   0.63460   0.01267  Uiso   1.00
H562   H     0.84280   0.90600   0.55140   0.01267  Uiso   1.00
H563   H     0.96780   0.83110   0.56540   0.01267  Uiso   1.00
H564   H     0.58030   0.81210   0.20620   0.01267  Uiso   1.00
H565   H     0.58060   0.32070   0.82700   0.01267  Uiso   1.00
H566   H     0.08030   0.56060   0.87920   0.01267  Uiso   1.00
H567   H     0.37550   0.66340   0.75330   0.01267  Uiso   1.00
H568   H     0.19770   0.73930   0.98410   0.01267  Uiso   1.00
H569   H     0.69060   0.68980   0.73400   0.01267  Uiso   1.00
H570   H     0.45020   0.88770   0.84450   0.01267  Uiso   1.00
H571   H     0.18330   0.39910   0.67570   0.01267  Uiso   1.00
H572   H     0.19010   0.68460   0.91300   0.01267  Uiso   1.00
H573   H     0.86370   0.78190   0.97490   0.01267  Uiso   1.00
H574   H     0.53210   0.79560   0.15830   0.01267  Uiso   1.00
H575   H     0.18540   0.01410   0.77540   0.01267  Uiso   1.00
H576   H     0.50110   0.76460   0.16430   0.01267  Uiso   1.00
H577   H     0.30410   0.95730   0.32710   0.01267  Uiso   1.00
H578   H     0.54720   0.74110   0.57010   0.01267  Uiso   1.00
H579   H     0.95090   0.17670   0.15880   0.01267  Uiso   1.00
H580   H     0.53090   0.83270   0.26650   0.01267  Uiso   1.00
H581   H     0.39950   0.40460   0.00170   0.01267  Uiso   1.00
H582   H     0.71940   0.80110   0.63770   0.01267  Uiso   1.00
H583   H     0.95140   0.90920   0.07820   0.01267  Uiso   1.00
H584   H     0.90120   0.89800   0.56120   0.01267  Uiso   1.00
H585   H     0.08040   0.92940   0.80050   0.01267  Uiso   1.00
H586   H     0.91950   0.86260   0.05830   0.01267  Uiso   1.00
H587   H     0.64290   0.19010   0.97050   0.01267  Uiso   1.00
H588   H     0.19060   0.26600   0.31020   0.01267  Uiso   1.00
H589   H     0.95030   0.79730   0.63140   0.01267  Uiso   1.00
H590   H     0.34710   0.07010   0.23980   0.01267  Uiso   1.00
H591   H     0.06750   0.93020   0.55900   0.01267  Uiso   1.00
H592   H     0.46730   0.88070   0.09950   0.01267  Uiso   1.00
H593   H     0.92750   0.43380   0.39360   0.01267  Uiso   1.00
H594   H     0.63170   0.96910   0.40970   0.01267  Uiso   1.00
H595   H     0.60010   0.99960   0.40210   0.01267  Uiso   1.00
H596   H     0.91960   0.87110   0.07060   0.01267  Uiso   1.00
H597   H     0.99860   0.98190   0.85330   0.01267  Uiso   1.00
H598   H     0.85330   0.66310   0.92490   0.01267  Uiso   1.00
H599   H     0.84940   0.28720   0.71740   0.01267  Uiso   1.00
H600   H     0.40810   0.17800   0.94170   0.01267  Uiso   1.00
H601   H     0.46730   0.90050   0.78120   0.01267  Uiso   1.00
H602   H     0.34730   0.61330   0.62120   0.01267  Uiso   1.00
H603   H     0.07670   0.73930   0.92200   0.01267  Uiso   1.00
H604   H     0.96910   0.83270   0.56620   0.01267  Uiso   1.00
H605   H     0.03100   0.84190   0.20340   0.01267  Uiso   1.00
H606   H     0.49870   0.45400   0.20840   0.01267  Uiso   1.00
H607   H     0.85200   0.89690   0.58600   0.01267  Uiso   1.00
H608   H     0.65060   0.28260   0.71280   0.01267  Uiso   1.00
H609   H     0.84370   0.42520   0.40700   0.01267  Uiso   1.00
H610   H     0.92080   0.69300   0.90360   0.01267  Uiso   1.00
H611   H     0.71220   0.71770   0.77890   0.01267  Uiso   1.00
H612   H     0.08050   0.86260   0.05830   0.01267  Uiso   1.00
H613   H     0.77980   0.24360   0.14170   0.01267  Uiso   1.00
H614   H     0.57730   0.44670   0.67630   0.01267  Uiso   1.00
H615   H     0.37550   0.24670   0.91010   0.01267  Uiso   1.00
H616   H     0.61590   0.39530   0.58980   0.01267  Uiso   1.00
H617   H     0.53230   0.83400   0.82400   0.01267  Uiso   1.00
H618   H     0.07920   0.69300   0.90360   0.01267  Uiso   1.00
H619   H     0.14540   0.76540   0.12610   0.01267  Uiso   1.00
H620   H     0.63170   0.44060   0.03090   0.01267  Uiso   1.00
H621   H     0.64800   0.41400   0.10310   0.01267  Uiso   1.00
H622   H     0.42750   0.60640   0.56620   0.01267  Uiso   1.00
H623   H     0.14800   0.41400   0.31090   0.01267  Uiso   1.00
H624   H     0.28780   0.22110   0.93880   0.01267  Uiso   1.00
H625   H     0.15630   0.98180   0.57480   0.01267  Uiso   1.00
H626   H     0.64800   0.89690   0.31090   0.01267  Uiso   1.00
H627   H     0.42330   0.73930   0.81730   0.01267  Uiso   1.00
H628   H     0.82290   0.36540   0.36320   0.01267  Uiso   1.00
H629   H     0.77980   0.85830   0.10190   0.01267  Uiso   1.00
H630   H     0.53270   0.21880   0.11930   0.01267  Uiso   1.00
H631   H     0.19770   0.24480   0.26070   0.01267  Uiso   1.00
H632   H     0.09190   0.05830   0.82200   0.01267  Uiso   1.00
H633   H     0.85630   0.20240   0.31270   0.01267  Uiso   1.00
H634   H     0.85630   0.11030   0.79760   0.01267  Uiso   1.00
H635   H     0.35150   0.24550   0.06710   0.01267  Uiso   1.00
H636   H     0.86370   0.02510   0.80700   0.01267  Uiso   1.00
H637   H     0.58030   0.56060   0.68140   0.01267  Uiso   1.00
H638   H     0.00250   0.92240   0.10260   0.01267  Uiso   1.00
H639   H     0.15270   0.00790   0.62120   0.01267  Uiso   1.00
H640   H     0.37560   0.10620   0.28500   0.01267  Uiso   1.00
H641   H     0.89950   0.40460   0.40290   0.01267  Uiso   1.00
H642   H     0.99750   0.92240   0.10260   0.01267  Uiso   1.00
H643   H     0.96920   0.99030   0.82260   0.01267  Uiso   1.00
H644   H     0.79610   0.62950   0.03460   0.01267  Uiso   1.00
H645   H     0.35630   0.20240   0.88970   0.01267  Uiso   1.00
H646   H     0.06750   0.62880   0.06980   0.01267  Uiso   1.00
H647   H     0.42270   0.32370   0.77040   0.01267  Uiso   1.00
H648   H     0.31670   0.27660   0.67570   0.01267  Uiso   1.00
H649   H     0.59250   0.47560   0.77220   0.01267  Uiso   1.00
H650   H     0.09190   0.76370   0.94170   0.01267  Uiso   1.00
H651   H     0.91960   0.19950   0.12890   0.01267  Uiso   1.00
H652   H     0.15290   0.76020   0.92990   0.01267  Uiso   1.00
H653   H     0.53210   0.84170   0.63730   0.01267  Uiso   1.00
H654   H     0.92200   0.62170   0.93540   0.01267  Uiso   1.00
H655   H     0.69560   0.95630   0.32680   0.01267  Uiso   1.00
H656   H     0.07940   0.40420   0.21940   0.01267  Uiso   1.00
H657   H     0.08310   0.68890   0.90190   0.01267  Uiso   1.00
H658   H     0.84370   0.98180   0.57480   0.01267  Uiso   1.00
H659   H     0.67450   0.37810   0.57930   0.01267  Uiso   1.00
H660   H     0.58050   0.94170   0.13740   0.01267  Uiso   1.00
H661   H     0.20390   0.96540   0.59490   0.01267  Uiso   1.00
H662   H     0.06880   0.33890   0.80100   0.01267  Uiso   1.00
H663   H     0.06750   0.44100   0.37120   0.01267  Uiso   1.00
H664   H     0.45090   0.17670   0.01790   0.01267  Uiso   1.00
H665   H     0.96910   0.43380   0.26650   0.01267  Uiso   1.00
H666   H     0.19560   0.95630   0.62950   0.01267  Uiso   1.00
H667   H     0.32290   0.99780   0.36320   0.01267  Uiso   1.00
H668   H     0.04910   0.17670   0.15880   0.01267  Uiso   1.00
H669   H     0.19010   0.08700   0.77160   0.01267  Uiso   1.00
H670   H     0.63630   0.19300   0.97490   0.01267  Uiso   1.00
H671   H     0.88410   0.19450   0.58980   0.01267  Uiso   1.00
H672   H     0.41970   0.81210   0.20620   0.01267  Uiso   1.00
H673   H     0.14370   0.11030   0.79760   0.01267  Uiso   1.00
H674   H     0.08030   0.12080   0.68140   0.01267  Uiso   1.00
H675   H     0.69060   0.26600   0.95580   0.01267  Uiso   1.00
H676   H     0.19060   0.68980   0.95580   0.01267  Uiso   1.00
H677   H     0.96730   0.90050   0.11930   0.01267  Uiso   1.00
H678   H     0.18330   0.32430   0.72340   0.01267  Uiso   1.00
H679   H     0.87210   0.47840   0.67150   0.01267  Uiso   1.00
H680   H     0.42750   0.43380   0.04020   0.01267  Uiso   1.00
H681   H     0.20260   0.64940   0.06630   0.01267  Uiso   1.00
H682   H     0.59630   0.89730   0.33300   0.01267  Uiso   1.00
H683   H     0.34940   0.43020   0.71740   0.01267  Uiso   1.00
H684   H     0.96730   0.21880   0.09950   0.01267  Uiso   1.00
H685   H     0.69770   0.73930   0.75520   0.01267  Uiso   1.00
H686   H     0.92200   0.31370   0.37830   0.01267  Uiso   1.00
H687   H     0.56880   0.19900   0.66110   0.01267  Uiso   1.00
H688   H     0.60010   0.40250   0.00040   0.01267  Uiso   1.00
H689   H     0.00140   0.14670   0.12860   0.01267  Uiso   1.00
H690   H     0.41970   0.39410   0.18790   0.01267  Uiso   1.00
H691   H     0.60050   0.40460   0.00170   0.01267  Uiso   1.00
H692   H     0.92060   0.40420   0.21940   0.01267  Uiso   1.00
H693   H     0.96790   0.84170   0.20440   0.01267  Uiso   1.00
H694   H     0.55020   0.89690   0.78600   0.01267  Uiso   1.00
H695   H     0.53100   0.84190   0.63850   0.01267  Uiso   1.00
H696   H     0.46730   0.21880   0.11930   0.01267  Uiso   1.00
H697   H     0.36370   0.02510   0.21810   0.01267  Uiso   1.00
H698   H     0.68540   0.76130   0.77540   0.01267  Uiso   1.00
H699   H     0.87560   0.71500   0.89380   0.01267  Uiso   1.00
H700   H     0.49890   0.76460   0.16430   0.01267  Uiso   1.00
H701   H     0.04860   0.16900   0.09080   0.01267  Uiso   1.00
H702   H     0.81030   0.75420   0.94260   0.01267  Uiso   1.00
H703   H     0.07670   0.18270   0.26070   0.01267  Uiso   1.00
H704   H     0.91690   0.21300   0.31110   0.01267  Uiso   1.00
H705   H     0.54980   0.88770   0.84450   0.01267  Uiso   1.00
H706   H     0.03080   0.99030   0.82260   0.01267  Uiso   1.00
H707   H     0.30410   0.67290   0.63020   0.01267  Uiso   1.00
H708   H     0.15060   0.28260   0.56980   0.01267  Uiso   1.00
H709   H     0.65060   0.43020   0.71740   0.01267  Uiso   1.00
H710   H     0.21220   0.22110   0.28230   0.01267  Uiso   1.00
H711   H     0.40120   0.43880   0.10200   0.01267  Uiso   1.00
H712   H     0.40370   0.89730   0.33300   0.01267  Uiso   1.00
H713   H     0.29610   0.62950   0.59490   0.01267  Uiso   1.00
H714   H     0.15630   0.42520   0.40700   0.01267  Uiso   1.00
H715   H     0.53270   0.88070   0.09950   0.01267  Uiso   1.00
H716   H     0.85460   0.76540   0.12610   0.01267  Uiso   1.00
H717   H     0.81460   0.22460   0.23870   0.01267  Uiso   1.00
H718   H     0.44980   0.21400   0.11090   0.01267  Uiso   1.00
H719   H     0.22020   0.89810   0.75640   0.01267  Uiso   1.00
H720   H     0.28060   0.36230   0.16340   0.01267  Uiso   1.00
H721   H     0.15270   0.61330   0.99210   0.01267  Uiso   1.00
H722   H     0.04980   0.88770   0.04320   0.01267  Uiso   1.00
H723   H     0.99860   0.87140   0.01810   0.01267  Uiso   1.00
H724   H     0.95390   0.77470   0.21570   0.01267  Uiso   1.00
H725   H     0.57800   0.06460   0.37830   0.01267  Uiso   1.00
H726   H     0.00250   0.89740   0.81980   0.01267  Uiso   1.00
H727   H     0.96970   0.89870   0.12070   0.01267  Uiso   1.00
H728   H     0.95090   0.77160   0.58490   0.01267  Uiso   1.00
H729   H     0.95020   0.95680   0.84450   0.01267  Uiso   1.00
H730   H     0.85000   0.39070   0.76950   0.01267  Uiso   1.00
H731   H     0.67450   0.20120   0.62190   0.01267  Uiso   1.00
H732   H     0.32550   0.20120   0.62190   0.01267  Uiso   1.00
H733   H     0.03030   0.89870   0.12070   0.01267  Uiso   1.00
H734   H     0.29610   0.40510   0.03460   0.01267  Uiso   1.00
H735   H     0.22020   0.85830   0.10190   0.01267  Uiso   1.00
H736   H     0.69770   0.01590   0.26070   0.01267  Uiso   1.00
H737   H     0.68330   0.39910   0.72340   0.01267  Uiso   1.00
H738   H     0.34940   0.28260   0.71280   0.01267  Uiso   1.00
H739   H     0.91970   0.12080   0.68140   0.01267  Uiso   1.00
H740   H     0.21940   0.36230   0.19890   0.01267  Uiso   1.00
H741   H     0.46780   0.83110   0.26570   0.01267  Uiso   1.00
H742   H     0.46790   0.79560   0.15830   0.01267  Uiso   1.00
H743   H     0.13630   0.02510   0.80700   0.01267  Uiso   1.00
H744   H     0.09250   0.47560   0.70340   0.01267  Uiso   1.00
H745   H     0.64290   0.02950   0.21960   0.01267  Uiso   1.00
H746   H     0.00250   0.18020   0.07760   0.01267  Uiso   1.00
H747   H     0.87210   0.32850   0.80690   0.01267  Uiso   1.00
H748   H     0.46970   0.22200   0.12070   0.01267  Uiso   1.00
H749   H     0.45140   0.90920   0.83100   0.01267  Uiso   1.00
H750   H     0.14290   0.78040   0.97050   0.01267  Uiso   1.00
H751   H     0.41970   0.12080   0.43940   0.01267  Uiso   1.00
H752   H     0.65270   0.61330   0.62120   0.01267  Uiso   1.00
H753   H     0.93120   0.46210   0.66110   0.01267  Uiso   1.00
H754   H     0.04720   0.74110   0.17100   0.01267  Uiso   1.00
H755   H     0.03090   0.83270   0.56620   0.01267  Uiso   1.00
H756   H     0.50110   0.39970   0.23540   0.01267  Uiso   1.00
H757   H     0.45090   0.41510   0.22840   0.01267  Uiso   1.00
H758   H     0.92330   0.18270   0.26070   0.01267  Uiso   1.00
H759   H     0.45090   0.98210   0.15880   0.01267  Uiso   1.00
H760   H     0.54980   0.15550   0.04320   0.01267  Uiso   1.00
H761   H     0.40370   0.43570   0.10270   0.01267  Uiso   1.00
H762   H     0.59190   0.05830   0.23630   0.01267  Uiso   1.00
H763   H     0.04610   0.78430   0.55900   0.01267  Uiso   1.00
H764   H     0.56750   0.44100   0.06980   0.01267  Uiso   1.00
H765   H     0.03090   0.43380   0.26650   0.01267  Uiso   1.00
H766   H     0.62450   0.08990   0.33660   0.01267  Uiso   1.00
H767   H     0.85200   0.68910   0.10310   0.01267  Uiso   1.00
H768   H     0.14370   0.68730   0.88970   0.01267  Uiso   1.00
H769   H     0.04910   0.77160   0.58490   0.01267  Uiso   1.00
H770   H     0.32490   0.91240   0.30870   0.01267  Uiso   1.00
H771   H     0.13630   0.19300   0.21810   0.01267  Uiso   1.00
H772   H     0.58040   0.92940   0.12890   0.01267  Uiso   1.00
H773   H     0.46910   0.43380   0.16730   0.01267  Uiso   1.00
H774   H     0.46920   0.83230   0.82260   0.01267  Uiso   1.00
H775   H     0.41940   0.50630   0.67930   0.01267  Uiso   1.00
H776   H     0.63170   0.59030   0.55940   0.01267  Uiso   1.00
H777   H     0.39990   0.99960   0.40210   0.01267  Uiso   1.00
H778   H     0.90810   0.17800   0.23630   0.01267  Uiso   1.00
H779   H     0.17710   0.63680   0.00220   0.01267  Uiso   1.00
H780   H     0.12790   0.32850   0.80690   0.01267  Uiso   1.00
H781   H     0.19060   0.04420   0.73400   0.01267  Uiso   1.00
H782   H     0.64670   0.07510   0.33690   0.01267  Uiso   1.00
H783   H     0.86830   0.59030   0.03090   0.01267  Uiso   1.00
H784   H     0.92200   0.06460   0.68630   0.01267  Uiso   1.00
H785   H     0.39950   0.99830   0.40290   0.01267  Uiso   1.00
H786   H     0.53210   0.36270   0.20440   0.01267  Uiso   1.00
H787   H     0.68970   0.18840   0.94260   0.01267  Uiso   1.00
H788   H     0.92750   0.60640   0.04020   0.01267  Uiso   1.00
H789   H     0.81670   0.39910   0.67570   0.01267  Uiso   1.00
H790   H     0.14670   0.66310   0.92490   0.01267  Uiso   1.00
H791   H     0.86370   0.19300   0.21810   0.01267  Uiso   1.00
H792   H     0.96790   0.79560   0.63730   0.01267  Uiso   1.00
H793   H     0.39950   0.59710   0.59540   0.01267  Uiso   1.00
H794   H     0.35460   0.76540   0.63930   0.01267  Uiso   1.00
H795   H     0.07250   0.95980   0.56620   0.01267  Uiso   1.00
H796   H     0.65270   0.00790   0.38670   0.01267  Uiso   1.00
H797   H     0.41960   0.92940   0.12890   0.01267  Uiso   1.00
H798   H     0.43250   0.93020   0.37120   0.01267  Uiso   1.00
H799   H     0.67710   0.36540   0.00220   0.01267  Uiso   1.00
H800   H     0.14540   0.36070   0.23460   0.01267  Uiso   1.00
H801   H     0.81460   0.01410   0.77540   0.01267  Uiso   1.00
H802   H     0.03220   0.43460   0.26570   0.01267  Uiso   1.00
H803   H     0.57940   0.78060   0.59580   0.01267  Uiso   1.00
H804   H     0.99890   0.76460   0.60030   0.01267  Uiso   1.00
H805   H     0.04970   0.79730   0.63140   0.01267  Uiso   1.00
H806   H     0.95140   0.92180   0.83100   0.01267  Uiso   1.00
H807   H     0.91970   0.79380   0.18790   0.01267  Uiso   1.00
H808   H     0.79610   0.96540   0.59490   0.01267  Uiso   1.00
H809   H     0.65060   0.28720   0.56980   0.01267  Uiso   1.00
H810   H     0.42200   0.62170   0.68630   0.01267  Uiso   1.00
H811   H     0.49750   0.89740   0.07760   0.01267  Uiso   1.00
H812   H     0.30940   0.68980   0.73400   0.01267  Uiso   1.00
H813   H     0.03270   0.88070   0.78120   0.01267  Uiso   1.00
H814   H     0.34710   0.76020   0.83030   0.01267  Uiso   1.00
H815   H     0.09880   0.66320   0.10200   0.01267  Uiso   1.00
H816   H     0.42060   0.81520   0.21940   0.01267  Uiso   1.00
H817   H     0.03030   0.22200   0.10130   0.01267  Uiso   1.00
H818   H     0.45140   0.16900   0.07820   0.01267  Uiso   1.00
H819   H     0.90370   0.43570   0.33300   0.01267  Uiso   1.00
H820   H     0.07730   0.32370   0.55330   0.01267  Uiso   1.00
H821   H     0.03230   0.17600   0.16600   0.01267  Uiso   1.00
H822   H     0.35710   0.19010   0.97050   0.01267  Uiso   1.00
H823   H     0.46900   0.79660   0.15810   0.01267  Uiso   1.00
H824   H     0.55020   0.21400   0.11090   0.01267  Uiso   1.00
H825   H     0.59880   0.89800   0.33680   0.01267  Uiso   1.00
H826   H     0.82490   0.91240   0.60370   0.01267  Uiso   1.00
H827   H     0.29610   0.96540   0.37050   0.01267  Uiso   1.00
H828   H     0.64850   0.24550   0.06710   0.01267  Uiso   1.00
H829   H     0.99860   0.14670   0.12860   0.01267  Uiso   1.00
H830   H     0.81670   0.27660   0.60090   0.01267  Uiso   1.00
H831   H     0.78780   0.06120   0.77890   0.01267  Uiso   1.00
H832   H     0.12500   0.45910   0.37440   0.01267  Uiso   1.00
H833   H     0.31670   0.39910   0.72340   0.01267  Uiso   1.00
H834   H     0.17710   0.36540   0.36320   0.01267  Uiso   1.00
H835   H     0.18970   0.18840   0.24580   0.01267  Uiso   1.00
H836   H     0.07800   0.31370   0.37830   0.01267  Uiso   1.00
H837   H     0.82290   0.63680   0.00220   0.01267  Uiso   1.00
H838   H     0.35000   0.23050   0.60930   0.01267  Uiso   1.00
H839   H     0.49860   0.98190   0.12860   0.01267  Uiso   1.00
H840   H     0.89990   0.99960   0.59750   0.01267  Uiso   1.00
H841   H     0.31030   0.05740   0.24580   0.01267  Uiso   1.00
H842   H     0.46790   0.84170   0.63730   0.01267  Uiso   1.00
H843   H     0.80440   0.37050   0.32680   0.01267  Uiso   1.00
H844   H     0.53030   0.89870   0.77800   0.01267  Uiso   1.00
H845   H     0.64800   0.68910   0.58600   0.01267  Uiso   1.00
H846   H     0.04910   0.98210   0.82330   0.01267  Uiso   1.00
H847   H     0.08060   0.32070   0.49370   0.01267  Uiso   1.00
H848   H     0.80940   0.68980   0.95580   0.01267  Uiso   1.00
H849   H     0.07730   0.44670   0.77040   0.01267  Uiso   1.00
H850   H     0.35000   0.39070   0.62120   0.01267  Uiso   1.00
H851   H     0.59880   0.43880   0.10200   0.01267  Uiso   1.00
H852   H     0.57250   0.95980   0.39360   0.01267  Uiso   1.00
H853   H     0.03090   0.73350   0.16730   0.01267  Uiso   1.00
H854   H     0.41940   0.32070   0.82700   0.01267  Uiso   1.00
H855   H     0.32550   0.37810   0.57930   0.01267  Uiso   1.00
H856   H     0.65290   0.07010   0.23980   0.01267  Uiso   1.00
H857   H     0.99870   0.75440   0.20840   0.01267  Uiso   1.00
H858   H     0.58060   0.50630   0.67930   0.01267  Uiso   1.00
H859   H     0.55020   0.88910   0.10310   0.01267  Uiso   1.00
H860   H     0.04980   0.95680   0.84450   0.01267  Uiso   1.00
H861   H     0.57920   0.21060   0.90360   0.01267  Uiso   1.00
H862   H     0.82490   0.69130   0.08760   0.01267  Uiso   1.00
H863   H     0.00130   0.75440   0.20840   0.01267  Uiso   1.00
H864   H     0.59630   0.43570   0.10270   0.01267  Uiso   1.00
H865   H     0.90370   0.66700   0.10270   0.01267  Uiso   1.00
H866   H     0.45020   0.95680   0.11230   0.01267  Uiso   1.00
H867   H     0.58040   0.19950   0.07060   0.01267  Uiso   1.00
H868   H     0.86830   0.44060   0.40970   0.01267  Uiso   1.00
H869   H     0.07730   0.22960   0.67630   0.01267  Uiso   1.00
H870   H     0.11590   0.19450   0.58980   0.01267  Uiso   1.00
H871   H     0.19590   0.36980   0.32710   0.01267  Uiso   1.00
H872   H     0.96790   0.36270   0.15830   0.01267  Uiso   1.00
H873   H     0.31020   0.44460   0.75370   0.01267  Uiso   1.00
H874   H     0.65720   0.90600   0.35460   0.01267  Uiso   1.00
H875   H     0.71220   0.06120   0.28230   0.01267  Uiso   1.00
H876   H     0.99870   0.45400   0.24560   0.01267  Uiso   1.00
H877   H     0.65630   0.59300   0.57480   0.01267  Uiso   1.00
H878   H     0.57250   0.60640   0.56620   0.01267  Uiso   1.00
H879   H     0.49870   0.79160   0.24560   0.01267  Uiso   1.00
H880   H     0.35460   0.36070   0.12610   0.01267  Uiso   1.00
H881   H     0.90810   0.76370   0.94170   0.01267  Uiso   1.00
H882   H     0.45140   0.92180   0.09080   0.01267  Uiso   1.00
H883   H     0.80770   0.26520   0.30700   0.01267  Uiso   1.00
H884   H     0.85460   0.87390   0.63930   0.01267  Uiso   1.00
H885   H     0.30770   0.26520   0.95820   0.01267  Uiso   1.00
H886   H     0.07920   0.09640   0.78940   0.01267  Uiso   1.00
H887   H     0.44980   0.89690   0.78600   0.01267  Uiso   1.00
H888   H     0.69230   0.04180   0.30700   0.01267  Uiso   1.00
H889   H     0.15000   0.39070   0.76950   0.01267  Uiso   1.00
H890   H     0.54970   0.83410   0.63140   0.01267  Uiso   1.00
H891   H     0.08030   0.79380   0.18790   0.01267  Uiso   1.00
H892   H     0.60010   0.59790   0.59750   0.01267  Uiso   1.00
H893   H     0.42200   0.06460   0.37830   0.01267  Uiso   1.00
H894   H     0.08060   0.50630   0.82700   0.01267  Uiso   1.00
H895   H     0.70390   0.62950   0.59490   0.01267  Uiso   1.00
H896   H     0.04970   0.36860   0.16590   0.01267  Uiso   1.00
H897   H     0.81030   0.05740   0.81160   0.01267  Uiso   1.00
H898   H     0.68980   0.30910   0.55540   0.01267  Uiso   1.00
H899   H     0.35150   0.93290   0.17840   0.01267  Uiso   1.00
H900   H     0.59190   0.17800   0.94170   0.01267  Uiso   1.00
H901   H     0.85330   0.26180   0.33690   0.01267  Uiso   1.00
H902   H     0.03220   0.73430   0.16890   0.01267  Uiso   1.00
H903   H     0.93120   0.19900   0.53790   0.01267  Uiso   1.00
H904   H     0.69010   0.08700   0.31540   0.01267  Uiso   1.00
H905   H     0.30990   0.68460   0.77160   0.01267  Uiso   1.00
H906   H     0.58310   0.09810   0.31110   0.01267  Uiso   1.00
H907   H     0.53100   0.79660   0.15810   0.01267  Uiso   1.00
H908   H     0.12450   0.66340   0.91010   0.01267  Uiso   1.00
H909   H     0.80770   0.04180   0.73480   0.01267  Uiso   1.00
H910   H     0.85630   0.68730   0.88970   0.01267  Uiso   1.00
H911   H     0.00130   0.79160   0.54600   0.01267  Uiso   1.00
H912   H     0.12790   0.19310   0.52160   0.01267  Uiso   1.00
H913   H     0.07800   0.06460   0.68630   0.01267  Uiso   1.00
H914   H     0.57730   0.32370   0.77040   0.01267  Uiso   1.00
H915   H     0.00140   0.98190   0.85330   0.01267  Uiso   1.00
H916   H     0.45390   0.78430   0.22530   0.01267  Uiso   1.00
H917   H     0.38410   0.39530   0.58980   0.01267  Uiso   1.00
H918   H     0.87210   0.19310   0.52160   0.01267  Uiso   1.00
H919   H     0.10050   0.40460   0.40290   0.01267  Uiso   1.00
H920   H     0.08040   0.87110   0.07060   0.01267  Uiso   1.00
C1     C     0.68070   0.64670   0.61650   0.01267  Uiso   1.00
C2     C     0.54920   0.18080   0.04440   0.01267  Uiso   1.00
C3     C     0.33200   0.06570   0.31330   0.01267  Uiso   1.00
C4     C     0.62650   0.95220   0.35170   0.01267  Uiso   1.00
C5     C     0.04910   0.80890   0.20180   0.01267  Uiso   1.00
C6     C     0.04730   0.18350   0.67840   0.01267  Uiso   1.00
C7     C     0.87350   0.39950   0.35170   0.01267  Uiso   1.00
C8     C     0.45270   0.18350   0.50510   0.01267  Uiso   1.00
C9     C     0.86530   0.60960   0.01180   0.01267  Uiso   1.00
C10    C     0.86840   0.72220   0.94870   0.01267  Uiso   1.00
C11    C     0.62780   0.76040   0.81160   0.01267  Uiso   1.00
C12    C     0.83200   0.24760   0.31330   0.01267  Uiso   1.00
C13    C     0.12070   0.23910   0.57780   0.01267  Uiso   1.00
C14    C     0.32040   0.93740   0.33280   0.01267  Uiso   1.00
C15    C     0.85790   0.37920   0.78580   0.01267  Uiso   1.00
C16    C     0.45090   0.39290   0.20180   0.01267  Uiso   1.00
C17    C     0.86530   0.40220   0.39040   0.01267  Uiso   1.00
C18    C     0.29500   0.33800   0.14460   0.01267  Uiso   1.00
C19    C     0.31150   0.04170   0.28240   0.01267  Uiso   1.00
C20    C     0.39930   0.32440   0.53680   0.01267  Uiso   1.00
C21    C     0.54560   0.31500   0.92410   0.01267  Uiso   1.00
C22    C     0.37930   0.42220   0.76090   0.01267  Uiso   1.00
C23    C     0.18070   0.96980   0.61650   0.01267  Uiso   1.00
C24    C     0.50000   0.55330   0.68040   0.01267  Uiso   1.00
C25    C     0.50000   0.12710   0.44670   0.01267  Uiso   1.00
C26    C     0.00000   0.16420   0.67900   0.01267  Uiso   1.00
C27    C     0.33470   0.03680   0.24240   0.01267  Uiso   1.00
C28    C     0.58980   0.67570   0.63530   0.01267  Uiso   1.00
C29    C     0.36530   0.60960   0.59780   0.01267  Uiso   1.00
C30    C     0.10020   0.71690   0.91400   0.01267  Uiso   1.00
C31    C     0.87350   0.64830   0.04780   0.01267  Uiso   1.00
C32    C     0.95090   0.19570   0.11280   0.01267  Uiso   1.00
C33    C     0.10070   0.21240   0.53680   0.01267  Uiso   1.00
C34    C     0.64210   0.21420   0.62080   0.01267  Uiso   1.00
C35    C     0.50000   0.20620   0.10560   0.01267  Uiso   1.00
C36    C     0.95440   0.60910   0.92410   0.01267  Uiso   1.00
C37    C     0.81150   0.24070   0.28240   0.01267  Uiso   1.00
C38    C     0.39980   0.19710   0.91400   0.01267  Uiso   1.00
C39    C     0.04910   0.91710   0.80430   0.01267  Uiso   1.00
C40    C     0.04740   0.57240   0.89030   0.01267  Uiso   1.00
C41    C     0.50000   0.17310   0.02190   0.01267  Uiso   1.00
C42    C     0.50000   0.97810   0.15120   0.01267  Uiso   1.00
C43    C     0.50000   0.81850   0.25110   0.01267  Uiso   1.00
C44    C     0.60160   0.92100   0.35810   0.01267  Uiso   1.00
C45    C     0.67960   0.39540   0.06260   0.01267  Uiso   1.00
C46    C     0.88030   0.09090   0.77830   0.01267  Uiso   1.00
C47    C     0.10160   0.64190   0.07900   0.01267  Uiso   1.00
C48    C     0.77260   0.83660   0.13910   0.01267  Uiso   1.00
C49    C     0.91020   0.36470   0.32430   0.01267  Uiso   1.00
C50    C     0.17960   0.93740   0.60460   0.01267  Uiso   1.00
C51    C     0.95090   0.39290   0.19110   0.01267  Uiso   1.00
C52    C     0.40590   0.01940   0.27650   0.01267  Uiso   1.00
C53    C     0.83760   0.91280   0.73050   0.01267  Uiso   1.00
C54    C     0.59410   0.25710   0.98060   0.01267  Uiso   1.00
C55    C     0.12070   0.33870   0.76090   0.01267  Uiso   1.00
C56    C     0.22740   0.86090   0.69750   0.01267  Uiso   1.00
C57    C     0.63470   0.60960   0.59780   0.01267  Uiso   1.00
C58    C     0.50000   0.51480   0.67900   0.01267  Uiso   1.00
C59    C     0.95260   0.10970   0.68210   0.01267  Uiso   1.00
C60    C     0.00000   0.79150   0.62190   0.01267  Uiso   1.00
C61    C     0.00000   0.84880   0.02190   0.01267  Uiso   1.00
C62    C     0.66530   0.75760   0.79440   0.01267  Uiso   1.00
C63    C     0.50000   0.35950   0.13760   0.01267  Uiso   1.00
C64    C     0.40590   0.72350   0.74290   0.01267  Uiso   1.00
C65    C     0.04910   0.39290   0.19110   0.01267  Uiso   1.00
C66    C     0.45080   0.86360   0.81920   0.01267  Uiso   1.00
C67    C     0.77260   0.30250   0.16340   0.01267  Uiso   1.00
C68    C     0.54500   0.32350   0.78250   0.01267  Uiso   1.00
C69    C     0.54740   0.31790   0.89030   0.01267  Uiso   1.00
C70    C     0.60020   0.08600   0.28310   0.01267  Uiso   1.00
C71    C     0.90590   0.01940   0.74290   0.01267  Uiso   1.00
C72    C     0.00000   0.81850   0.56740   0.01267  Uiso   1.00
C73    C     0.04500   0.21750   0.67650   0.01267  Uiso   1.00
C74    C     0.62650   0.64830   0.60050   0.01267  Uiso   1.00
C75    C     0.50000   0.32100   0.83580   0.01267  Uiso   1.00
C76    C     0.82040   0.93740   0.60460   0.01267  Uiso   1.00
C77    C     0.50000   0.81900   0.21300   0.01267  Uiso   1.00
C78    C     0.63470   0.40220   0.01180   0.01267  Uiso   1.00
C79    C     0.12070   0.42220   0.66130   0.01267  Uiso   1.00
C80    C     0.00000   0.24440   0.17380   0.01267  Uiso   1.00
C81    C     0.08980   0.95960   0.63530   0.01267  Uiso   1.00
C82    C     0.54740   0.57240   0.68210   0.01267  Uiso   1.00
C83    C     0.59410   0.01940   0.27650   0.01267  Uiso   1.00
C84    C     0.58980   0.95960   0.32430   0.01267  Uiso   1.00
C85    C     0.42510   0.26530   0.66200   0.01267  Uiso   1.00
C86    C     0.45440   0.31500   0.92410   0.01267  Uiso   1.00
C87    C     0.20500   0.33800   0.19340   0.01267  Uiso   1.00
C88    C     0.17960   0.39540   0.33280   0.01267  Uiso   1.00
C89    C     0.45260   0.10970   0.42760   0.01267  Uiso   1.00
C90    C     0.45500   0.45900   0.67650   0.01267  Uiso   1.00
C91    C     0.54920   0.86360   0.81920   0.01267  Uiso   1.00
C92    C     0.63160   0.05130   0.27780   0.01267  Uiso   1.00
C93    C     0.54910   0.80890   0.60710   0.01267  Uiso   1.00
C94    C     0.00000   0.37810   0.16960   0.01267  Uiso   1.00
C95    C     0.54910   0.91710   0.11280   0.01267  Uiso   1.00
C96    C     0.88030   0.68740   0.90910   0.01267  Uiso   1.00
C97    C     0.27260   0.30250   0.13910   0.01267  Uiso   1.00
C98    C     0.95090   0.91710   0.80430   0.01267  Uiso   1.00
C99    C     0.29460   0.84020   0.73190   0.01267  Uiso   1.00
C100   C     0.63300   0.42760   0.09040   0.01267  Uiso   1.00
C101   C     0.04740   0.31790   0.42760   0.01267  Uiso   1.00
C102   C     0.50000   0.43260   0.18150   0.01267  Uiso   1.00
C103   C     0.16530   0.20560   0.24240   0.01267  Uiso   1.00
C104   C     0.31930   0.64670   0.61650   0.01267  Uiso   1.00
C105   C     0.45080   0.18080   0.04440   0.01267  Uiso   1.00
C106   C     0.67960   0.93740   0.33280   0.01267  Uiso   1.00
C107   C     0.87220   0.05120   0.81160   0.01267  Uiso   1.00
C108   C     0.31150   0.71760   0.75930   0.01267  Uiso   1.00
C109   C     0.66530   0.20560   0.96320   0.01267  Uiso   1.00
C110   C     0.95280   0.81120   0.58050   0.01267  Uiso   1.00
C111   C     0.95270   0.18350   0.67840   0.01267  Uiso   1.00
C112   C     0.10160   0.43710   0.35810   0.01267  Uiso   1.00
C113   C     0.35790   0.37920   0.59340   0.01267  Uiso   1.00
C114   C     0.90590   0.25710   0.27650   0.01267  Uiso   1.00
C115   C     0.45260   0.57240   0.68210   0.01267  Uiso   1.00
C116   C     0.16050   0.87840   0.66310   0.01267  Uiso   1.00
C117   C     0.33950   0.78470   0.66310   0.01267  Uiso   1.00
C118   C     0.00000   0.81900   0.60600   0.01267  Uiso   1.00
C119   C     0.18070   0.64670   0.03020   0.01267  Uiso   1.00
C120   C     0.37350   0.64830   0.60050   0.01267  Uiso   1.00
C121   C     0.00000   0.74890   0.18150   0.01267  Uiso   1.00
C122   C     0.20500   0.85540   0.66200   0.01267  Uiso   1.00
C123   C     0.39840   0.43710   0.07900   0.01267  Uiso   1.00
C124   C     0.36530   0.98820   0.39040   0.01267  Uiso   1.00
C125   C     0.33950   0.33690   0.12160   0.01267  Uiso   1.00
C126   C     0.72740   0.30250   0.13910   0.01267  Uiso   1.00
C127   C     0.18850   0.24070   0.28240   0.01267  Uiso   1.00
C128   C     0.81930   0.96980   0.61650   0.01267  Uiso   1.00
C129   C     0.66050   0.78470   0.66310   0.01267  Uiso   1.00
C130   C     0.83950   0.33690   0.21530   0.01267  Uiso   1.00
C131   C     0.95280   0.76930   0.18880   0.01267  Uiso   1.00
C132   C     0.70540   0.84020   0.73190   0.01267  Uiso   1.00
C133   C     0.85790   0.40660   0.62080   0.01267  Uiso   1.00
C134   C     0.45080   0.95560   0.13640   0.01267  Uiso   1.00
C135   C     0.50000   0.83040   0.62190   0.01267  Uiso   1.00
C136   C     0.13300   0.90960   0.57240   0.01267  Uiso   1.00
C137   C     0.12650   0.95220   0.60050   0.01267  Uiso   1.00
C138   C     0.54910   0.88720   0.80430   0.01267  Uiso   1.00
C139   C     0.13160   0.72220   0.94870   0.01267  Uiso   1.00
C140   C     0.86700   0.42760   0.33720   0.01267  Uiso   1.00
C141   C     0.86530   0.98820   0.59780   0.01267  Uiso   1.00
C142   C     0.50000   0.37810   0.20850   0.01267  Uiso   1.00
C143   C     0.50000   0.39400   0.18100   0.01267  Uiso   1.00
C144   C     0.36840   0.05130   0.27780   0.01267  Uiso   1.00
C145   C     0.89980   0.08600   0.80290   0.01267  Uiso   1.00
C146   C     0.04910   0.79820   0.60710   0.01267  Uiso   1.00
C147   C     0.00000   0.86280   0.06570   0.01267  Uiso   1.00
C148   C     0.13300   0.42760   0.33720   0.01267  Uiso   1.00
C149   C     0.18850   0.71760   0.95830   0.01267  Uiso   1.00
C150   C     0.33500   0.31260   0.57580   0.01267  Uiso   1.00
C151   C     0.35790   0.21420   0.62080   0.01267  Uiso   1.00
C152   C     0.29500   0.85540   0.19340   0.01267  Uiso   1.00
C153   C     0.95260   0.57240   0.89030   0.01267  Uiso   1.00
C154   C     0.81150   0.71760   0.95830   0.01267  Uiso   1.00
C155   C     0.89980   0.19710   0.28310   0.01267  Uiso   1.00
C156   C     0.41020   0.67570   0.63530   0.01267  Uiso   1.00
C157   C     0.10070   0.32440   0.78760   0.01267  Uiso   1.00
C158   C     0.45500   0.32350   0.78250   0.01267  Uiso   1.00
C159   C     0.50000   0.84880   0.82690   0.01267  Uiso   1.00
C160   C     0.86840   0.05130   0.77350   0.01267  Uiso   1.00
C161   C     0.18070   0.38350   0.35330   0.01267  Uiso   1.00
C162   C     0.37220   0.76040   0.81160   0.01267  Uiso   1.00
C163   C     0.04740   0.10970   0.68210   0.01267  Uiso   1.00
C164   C     0.38030   0.68740   0.77830   0.01267  Uiso   1.00
C165   C     0.45090   0.91710   0.11280   0.01267  Uiso   1.00
C166   C     0.12780   0.05120   0.81160   0.01267  Uiso   1.00
C167   C     0.14210   0.21420   0.59340   0.01267  Uiso   1.00
C168   C     0.04720   0.76930   0.18880   0.01267  Uiso   1.00
C169   C     0.59410   0.72350   0.74290   0.01267  Uiso   1.00
C170   C     0.11970   0.22170   0.31260   0.01267  Uiso   1.00
C171   C     0.45270   0.49490   0.67840   0.01267  Uiso   1.00
C172   C     0.70500   0.80660   0.66200   0.01267  Uiso   1.00
C173   C     0.89410   0.97190   0.57900   0.01267  Uiso   1.00
C174   C     0.95280   0.41950   0.23070   0.01267  Uiso   1.00
C175   C     0.39980   0.08600   0.28310   0.01267  Uiso   1.00
C176   C     0.70500   0.33800   0.14460   0.01267  Uiso   1.00
C177   C     0.39410   0.42100   0.02810   0.01267  Uiso   1.00
C178   C     0.35790   0.40660   0.78580   0.01267  Uiso   1.00
C179   C     0.39840   0.64190   0.56290   0.01267  Uiso   1.00
C180   C     0.54730   0.49490   0.67840   0.01267  Uiso   1.00
C181   C     0.16240   0.26950   0.18230   0.01267  Uiso   1.00
C182   C     0.33950   0.87840   0.21530   0.01267  Uiso   1.00
C183   C     0.95080   0.86360   0.04440   0.01267  Uiso   1.00
C184   C     0.82040   0.39540   0.33280   0.01267  Uiso   1.00
C185   C     0.50000   0.16420   0.48520   0.01267  Uiso   1.00
C186   C     0.68070   0.96980   0.35330   0.01267  Uiso   1.00
C187   C     0.16800   0.68670   0.93430   0.01267  Uiso   1.00
C188   C     0.04720   0.41950   0.23070   0.01267  Uiso   1.00
C189   C     0.04910   0.19570   0.11280   0.01267  Uiso   1.00
C190   C     0.95090   0.79820   0.60710   0.01267  Uiso   1.00
C191   C     0.09410   0.25710   0.27650   0.01267  Uiso   1.00
C192   C     0.36530   0.40220   0.01180   0.01267  Uiso   1.00
C193   C     0.13470   0.60960   0.01180   0.01267  Uiso   1.00
C194   C     0.66500   0.26320   0.68740   0.01267  Uiso   1.00
C195   C     0.31930   0.96980   0.35330   0.01267  Uiso   1.00
C196   C     0.60160   0.43710   0.07900   0.01267  Uiso   1.00
C197   C     0.16050   0.78470   0.12160   0.01267  Uiso   1.00
C198   C     0.16500   0.42420   0.68740   0.01267  Uiso   1.00
C199   C     0.83470   0.03680   0.79440   0.01267  Uiso   1.00
C200   C     0.42510   0.33800   0.60330   0.01267  Uiso   1.00
C201   C     0.79460   0.84020   0.10830   0.01267  Uiso   1.00
C202   C     0.13160   0.05130   0.77350   0.01267  Uiso   1.00
C203   C     0.00000   0.39400   0.21300   0.01267  Uiso   1.00
C204   C     0.60070   0.46320   0.78760   0.01267  Uiso   1.00
C205   C     0.89930   0.21240   0.53680   0.01267  Uiso   1.00
C206   C     0.45260   0.31790   0.89030   0.01267  Uiso   1.00
C207   C     0.36700   0.90960   0.33720   0.01267  Uiso   1.00
C208   C     0.04500   0.32350   0.54100   0.01267  Uiso   1.00
C209   C     0.66240   0.26950   0.08720   0.01267  Uiso   1.00
C210   C     0.89930   0.46320   0.67560   0.01267  Uiso   1.00
C211   C     0.14210   0.37920   0.78580   0.01267  Uiso   1.00
C212   C     0.37220   0.18840   0.94880   0.01267  Uiso   1.00
C213   C     0.33200   0.24760   0.93430   0.01267  Uiso   1.00
C214   C     0.10590   0.42100   0.39290   0.01267  Uiso   1.00
C215   C     0.50000   0.78700   0.60600   0.01267  Uiso   1.00
C216   C     0.68850   0.24070   0.95830   0.01267  Uiso   1.00
C217   C     0.54910   0.39290   0.20180   0.01267  Uiso   1.00
C218   C     0.62650   0.39950   0.04780   0.01267  Uiso   1.00
C219   C     0.87930   0.42220   0.66130   0.01267  Uiso   1.00
C220   C     0.39410   0.97190   0.39290   0.01267  Uiso   1.00
C221   C     0.29460   0.26810   0.10830   0.01267  Uiso   1.00
C222   C     0.37220   0.05120   0.23960   0.01267  Uiso   1.00
C223   C     0.33500   0.42420   0.73680   0.01267  Uiso   1.00
C224   C     0.10020   0.19710   0.28310   0.01267  Uiso   1.00
C225   C     0.45090   0.19570   0.08290   0.01267  Uiso   1.00
C226   C     0.83950   0.78470   0.12160   0.01267  Uiso   1.00
C227   C     0.62070   0.42220   0.76090   0.01267  Uiso   1.00
C228   C     0.00000   0.32100   0.48520   0.01267  Uiso   1.00
C229   C     0.66050   0.33690   0.12160   0.01267  Uiso   1.00
C230   C     0.00000   0.55330   0.87290   0.01267  Uiso   1.00
C231   C     0.79500   0.85540   0.66200   0.01267  Uiso   1.00
C232   C     0.54560   0.07590   0.39090   0.01267  Uiso   1.00
C233   C     0.87220   0.76040   0.94880   0.01267  Uiso   1.00
C234   C     0.04920   0.18080   0.13640   0.01267  Uiso   1.00
C235   C     0.63300   0.90960   0.33720   0.01267  Uiso   1.00
C236   C     0.10590   0.97190   0.57900   0.01267  Uiso   1.00
C237   C     0.50000   0.77810   0.64050   0.01267  Uiso   1.00
C238   C     0.50000   0.20290   0.06570   0.01267  Uiso   1.00
C239   C     0.16500   0.31260   0.73680   0.01267  Uiso   1.00
C240   C     0.00000   0.82620   0.07060   0.01267  Uiso   1.00
C241   C     0.54720   0.76930   0.58050   0.01267  Uiso   1.00
C242   C     0.63160   0.72220   0.77350   0.01267  Uiso   1.00
C243   C     0.66240   0.91280   0.18230   0.01267  Uiso   1.00
C244   C     0.42510   0.39670   0.73470   0.01267  Uiso   1.00
C245   C     0.45500   0.21750   0.54100   0.01267  Uiso   1.00
C246   C     0.07490   0.33800   0.73470   0.01267  Uiso   1.00
C247   C     0.50000   0.74890   0.56740   0.01267  Uiso   1.00
C248   C     0.38030   0.09090   0.31260   0.01267  Uiso   1.00
C249   C     0.20540   0.26810   0.15980   0.01267  Uiso   1.00
C250   C     0.16050   0.33690   0.21530   0.01267  Uiso   1.00
C251   C     0.04920   0.95560   0.81920   0.01267  Uiso   1.00
C252   C     0.83760   0.26950   0.18230   0.01267  Uiso   1.00
C253   C     0.45090   0.88720   0.80430   0.01267  Uiso   1.00
C254   C     0.66800   0.24760   0.93430   0.01267  Uiso   1.00
C255   C     0.00000   0.77810   0.13760   0.01267  Uiso   1.00
C256   C     0.37930   0.23910   0.66130   0.01267  Uiso   1.00
C257   C     0.61970   0.68740   0.77830   0.01267  Uiso   1.00
C258   C     0.83200   0.68670   0.93430   0.01267  Uiso   1.00
C259   C     0.92510   0.39670   0.66200   0.01267  Uiso   1.00
C260   C     0.89930   0.32440   0.78760   0.01267  Uiso   1.00
C261   C     0.95090   0.80890   0.20180   0.01267  Uiso   1.00
C262   C     0.27260   0.86090   0.16340   0.01267  Uiso   1.00
C263   C     0.39930   0.46320   0.78760   0.01267  Uiso   1.00
C264   C     0.95440   0.31500   0.39090   0.01267  Uiso   1.00
C265   C     0.89840   0.64190   0.07900   0.01267  Uiso   1.00
C266   C     0.72740   0.86090   0.16340   0.01267  Uiso   1.00
C267   C     0.31150   0.24070   0.95830   0.01267  Uiso   1.00
C268   C     0.37350   0.39950   0.04780   0.01267  Uiso   1.00
C269   C     0.45280   0.81120   0.23070   0.01267  Uiso   1.00
C270   C     0.68850   0.71760   0.75930   0.01267  Uiso   1.00
C271   C     0.50000   0.93430   0.13720   0.01267  Uiso   1.00
C272   C     0.81150   0.04170   0.75930   0.01267  Uiso   1.00
C273   C     0.20540   0.89170   0.73190   0.01267  Uiso   1.00
C274   C     0.66240   0.81770   0.73050   0.01267  Uiso   1.00
C275   C     0.00000   0.97810   0.82690   0.01267  Uiso   1.00
C276   C     0.83500   0.26320   0.57580   0.01267  Uiso   1.00
C277   C     0.54500   0.21750   0.54100   0.01267  Uiso   1.00
C278   C     0.57490   0.33800   0.60330   0.01267  Uiso   1.00
C279   C     0.81930   0.38350   0.35330   0.01267  Uiso   1.00
C280   C     0.83470   0.20560   0.24240   0.01267  Uiso   1.00
C281   C     0.32040   0.39540   0.06260   0.01267  Uiso   1.00
C282   C     0.81930   0.64670   0.03020   0.01267  Uiso   1.00
C283   C     0.70540   0.26810   0.10830   0.01267  Uiso   1.00
C284   C     0.66500   0.42420   0.73680   0.01267  Uiso   1.00
C285   C     0.87350   0.95220   0.60050   0.01267  Uiso   1.00
C286   C     0.16530   0.75760   0.96320   0.01267  Uiso   1.00
C287   C     0.04500   0.45900   0.78250   0.01267  Uiso   1.00
C288   C     0.54720   0.41950   0.18880   0.01267  Uiso   1.00
C289   C     0.86840   0.22650   0.27780   0.01267  Uiso   1.00
C290   C     0.33470   0.75760   0.79440   0.01267  Uiso   1.00
C291   C     0.16800   0.06570   0.75240   0.01267  Uiso   1.00
C292   C     0.66530   0.03680   0.24240   0.01267  Uiso   1.00
C293   C     0.04910   0.88720   0.08290   0.01267  Uiso   1.00
C294   C     0.45090   0.79820   0.19110   0.01267  Uiso   1.00
C295   C     0.45270   0.32160   0.81650   0.01267  Uiso   1.00
C296   C     0.70540   0.89170   0.15980   0.01267  Uiso   1.00
C297   C     0.50000   0.86240   0.22190   0.01267  Uiso   1.00
C298   C     0.87930   0.33870   0.76090   0.01267  Uiso   1.00
C299   C     0.90590   0.72350   0.98060   0.01267  Uiso   1.00
C300   C     0.37930   0.33870   0.57780   0.01267  Uiso   1.00
C301   C     0.00000   0.86240   0.64050   0.01267  Uiso   1.00
C302   C     0.04920   0.86360   0.04440   0.01267  Uiso   1.00
C303   C     0.36840   0.22650   0.94870   0.01267  Uiso   1.00
C304   C     0.68850   0.04170   0.28240   0.01267  Uiso   1.00
C305   C     0.04730   0.32160   0.50510   0.01267  Uiso   1.00
C306   C     0.54910   0.79820   0.19110   0.01267  Uiso   1.00
C307   C     0.54920   0.95560   0.13640   0.01267  Uiso   1.00
C308   C     0.36700   0.42760   0.09040   0.01267  Uiso   1.00
C309   C     0.39980   0.71690   0.80290   0.01267  Uiso   1.00
C310   C     0.45280   0.76930   0.58050   0.01267  Uiso   1.00
C311   C     0.95440   0.07590   0.68500   0.01267  Uiso   1.00
C312   C     0.89840   0.92100   0.56290   0.01267  Uiso   1.00
C313   C     0.22740   0.30250   0.16340   0.01267  Uiso   1.00
C314   C     0.54730   0.32160   0.81650   0.01267  Uiso   1.00
C315   C     0.82040   0.66720   0.06260   0.01267  Uiso   1.00
C316   C     0.86700   0.90960   0.57240   0.01267  Uiso   1.00
C317   C     0.95270   0.49490   0.81650   0.01267  Uiso   1.00
C318   C     0.95500   0.45900   0.78250   0.01267  Uiso   1.00
C319   C     0.50000   0.89440   0.10060   0.01267  Uiso   1.00
C320   C     0.07490   0.39670   0.66200   0.01267  Uiso   1.00
C321   C     0.66050   0.87840   0.21530   0.01267  Uiso   1.00
C322   C     0.29500   0.80660   0.66200   0.01267  Uiso   1.00
C323   C     0.61970   0.22170   0.90910   0.01267  Uiso   1.00
C324   C     0.50000   0.82620   0.75560   0.01267  Uiso   1.00
C325   C     0.62070   0.33870   0.57780   0.01267  Uiso   1.00
C326   C     0.00000   0.89940   0.10560   0.01267  Uiso   1.00
C327   C     0.29460   0.89170   0.15980   0.01267  Uiso   1.00
C328   C     0.00000   0.92940   0.75560   0.01267  Uiso   1.00
C329   C     0.54740   0.10970   0.42760   0.01267  Uiso   1.00
C330   C     0.83200   0.06570   0.75240   0.01267  Uiso   1.00
C331   C     0.00000   0.17310   0.15120   0.01267  Uiso   1.00
C332   C     0.68070   0.38350   0.03020   0.01267  Uiso   1.00
C333   C     0.67960   0.66720   0.60460   0.01267  Uiso   1.00
C334   C     0.33760   0.26950   0.08720   0.01267  Uiso   1.00
C335   C     0.39840   0.92100   0.35810   0.01267  Uiso   1.00
C336   C     0.89980   0.71690   0.91400   0.01267  Uiso   1.00
C337   C     0.00000   0.20290   0.13720   0.01267  Uiso   1.00
C338   C     0.12780   0.18840   0.23960   0.01267  Uiso   1.00
C339   C     0.33760   0.81770   0.73050   0.01267  Uiso   1.00
C340   C     0.10020   0.08600   0.80290   0.01267  Uiso   1.00
C341   C     0.10070   0.46320   0.67560   0.01267  Uiso   1.00
C342   C     0.32040   0.66720   0.60460   0.01267  Uiso   1.00
C343   C     0.33500   0.26320   0.68740   0.01267  Uiso   1.00
C344   C     0.31930   0.38350   0.03020   0.01267  Uiso   1.00
C345   C     0.89840   0.43710   0.35810   0.01267  Uiso   1.00
C346   C     0.13160   0.22650   0.27780   0.01267  Uiso   1.00
C347   C     0.00000   0.12710   0.68040   0.01267  Uiso   1.00
C348   C     0.60020   0.19710   0.91400   0.01267  Uiso   1.00
C349   C     0.62780   0.18840   0.94880   0.01267  Uiso   1.00
C350   C     0.87930   0.23910   0.57780   0.01267  Uiso   1.00
C351   C     0.83950   0.87840   0.66310   0.01267  Uiso   1.00
C352   C     0.00000   0.83040   0.20850   0.01267  Uiso   1.00
C353   C     0.62780   0.05120   0.23960   0.01267  Uiso   1.00
C354   C     0.86700   0.66280   0.09040   0.01267  Uiso   1.00
C355   C     0.79460   0.26810   0.15980   0.01267  Uiso   1.00
C356   C     0.45440   0.60910   0.68500   0.01267  Uiso   1.00
C357   C     0.50000   0.24440   0.07060   0.01267  Uiso   1.00
C358   C     0.13470   0.98820   0.59780   0.01267  Uiso   1.00
C359   C     0.10590   0.60710   0.02810   0.01267  Uiso   1.00
C360   C     0.00000   0.31960   0.44670   0.01267  Uiso   1.00
C361   C     0.91020   0.95960   0.63530   0.01267  Uiso   1.00
C362   C     0.09410   0.01940   0.74290   0.01267  Uiso   1.00
C363   C     0.41020   0.36470   0.04040   0.01267  Uiso   1.00
C364   C     0.88030   0.22170   0.31260   0.01267  Uiso   1.00
C365   C     0.12650   0.64830   0.04780   0.01267  Uiso   1.00
C366   C     0.60590   0.60710   0.57900   0.01267  Uiso   1.00
C367   C     0.16530   0.03680   0.79440   0.01267  Uiso   1.00
C368   C     0.12780   0.76040   0.94880   0.01267  Uiso   1.00
C369   C     0.61970   0.09090   0.31260   0.01267  Uiso   1.00
C370   C     0.33200   0.68670   0.75240   0.01267  Uiso   1.00
C371   C     0.63300   0.66280   0.57240   0.01267  Uiso   1.00
C372   C     0.79500   0.80660   0.14460   0.01267  Uiso   1.00
C373   C     0.41020   0.95960   0.32430   0.01267  Uiso   1.00
C374   C     0.40590   0.25710   0.98060   0.01267  Uiso   1.00
C375   C     0.27260   0.83660   0.69750   0.01267  Uiso   1.00
C376   C     0.83500   0.31260   0.73680   0.01267  Uiso   1.00
C377   C     0.36700   0.66280   0.57240   0.01267  Uiso   1.00
C378   C     0.13470   0.40220   0.39040   0.01267  Uiso   1.00
C379   C     0.54910   0.19570   0.08290   0.01267  Uiso   1.00
C380   C     0.64210   0.37920   0.59340   0.01267  Uiso   1.00
C381   C     0.00000   0.89440   0.79380   0.01267  Uiso   1.00
C382   C     0.17960   0.66720   0.06260   0.01267  Uiso   1.00
C383   C     0.95260   0.31790   0.42760   0.01267  Uiso   1.00
C384   C     0.10160   0.92100   0.56290   0.01267  Uiso   1.00
C385   C     0.83760   0.81770   0.08720   0.01267  Uiso   1.00
C386   C     0.91020   0.67570   0.04040   0.01267  Uiso   1.00
C387   C     0.00000   0.93430   0.79710   0.01267  Uiso   1.00
C388   C     0.11970   0.09090   0.77830   0.01267  Uiso   1.00
C389   C     0.70500   0.85540   0.19340   0.01267  Uiso   1.00
C390   C     0.92510   0.33800   0.73470   0.01267  Uiso   1.00
C391   C     0.04560   0.31500   0.39090   0.01267  Uiso   1.00
C392   C     0.11970   0.68740   0.90910   0.01267  Uiso   1.00
C393   C     0.37350   0.95220   0.35170   0.01267  Uiso   1.00
C394   C     0.04720   0.81120   0.58050   0.01267  Uiso   1.00
C395   C     0.00000   0.51480   0.83580   0.01267  Uiso   1.00
C396   C     0.22740   0.83660   0.13910   0.01267  Uiso   1.00
C397   C     0.62070   0.23910   0.66130   0.01267  Uiso   1.00
C398   C     0.18850   0.04170   0.75930   0.01267  Uiso   1.00
C399   C     0.33760   0.91280   0.18230   0.01267  Uiso   1.00
C400   C     0.60020   0.71690   0.80290   0.01267  Uiso   1.00
C401   C     0.54730   0.18350   0.50510   0.01267  Uiso   1.00
C402   C     0.54500   0.45900   0.67650   0.01267  Uiso   1.00
C403   C     0.50000   0.89940   0.79380   0.01267  Uiso   1.00
C404   C     0.66500   0.31260   0.57580   0.01267  Uiso   1.00
C405   C     0.33470   0.20560   0.96320   0.01267  Uiso   1.00
C406   C     0.00000   0.78700   0.18100   0.01267  Uiso   1.00
C407   C     0.13300   0.66280   0.09040   0.01267  Uiso   1.00
C408   C     0.39410   0.60710   0.57900   0.01267  Uiso   1.00
C409   C     0.64210   0.40660   0.78580   0.01267  Uiso   1.00
C410   C     0.60590   0.42100   0.02810   0.01267  Uiso   1.00
C411   C     0.89410   0.60710   0.02810   0.01267  Uiso   1.00
C412   C     0.07490   0.26530   0.60330   0.01267  Uiso   1.00
C413   C     0.63160   0.22650   0.94870   0.01267  Uiso   1.00
C414   C     0.45090   0.80890   0.60710   0.01267  Uiso   1.00
C415   C     0.54560   0.60910   0.68500   0.01267  Uiso   1.00
C416   C     0.54720   0.81120   0.23070   0.01267  Uiso   1.00
C417   C     0.14210   0.40660   0.62080   0.01267  Uiso   1.00
C418   C     0.04560   0.60910   0.92410   0.01267  Uiso   1.00
C419   C     0.12650   0.39950   0.35170   0.01267  Uiso   1.00
C420   C     0.83500   0.42420   0.68740   0.01267  Uiso   1.00
C421   C     0.45440   0.07590   0.39090   0.01267  Uiso   1.00
C422   C     0.16240   0.81770   0.08720   0.01267  Uiso   1.00
C423   C     0.95090   0.88720   0.08290   0.01267  Uiso   1.00
C424   C     0.79460   0.89170   0.73190   0.01267  Uiso   1.00
C425   C     0.08980   0.67570   0.04040   0.01267  Uiso   1.00
C426   C     0.16500   0.26320   0.57580   0.01267  Uiso   1.00
C427   C     0.89410   0.42100   0.39290   0.01267  Uiso   1.00
C428   C     0.09410   0.72350   0.98060   0.01267  Uiso   1.00
C429   C     0.95080   0.95560   0.81920   0.01267  Uiso   1.00
C430   C     0.92510   0.26530   0.60330   0.01267  Uiso   1.00
C431   C     0.95270   0.32160   0.50510   0.01267  Uiso   1.00
C432   C     0.95080   0.18080   0.13640   0.01267  Uiso   1.00
C433   C     0.04730   0.49490   0.81650   0.01267  Uiso   1.00
C434   C     0.60590   0.97190   0.39290   0.01267  Uiso   1.00
C435   C     0.39930   0.21240   0.67560   0.01267  Uiso   1.00
C436   C     0.66800   0.68670   0.75240   0.01267  Uiso   1.00
C437   C     0.16240   0.91280   0.73050   0.01267  Uiso   1.00
C438   C     0.50000   0.86280   0.79710   0.01267  Uiso   1.00
C439   C     0.16800   0.24760   0.31330   0.01267  Uiso   1.00
C440   C     0.00000   0.20620   0.10060   0.01267  Uiso   1.00
C441   C     0.50000   0.79150   0.16960   0.01267  Uiso   1.00
C442   C     0.66800   0.06570   0.31330   0.01267  Uiso   1.00
C443   C     0.63470   0.98820   0.39040   0.01267  Uiso   1.00
C444   C     0.57490   0.39670   0.73470   0.01267  Uiso   1.00
C445   C     0.36840   0.72220   0.77350   0.01267  Uiso   1.00
C446   C     0.58980   0.36470   0.04040   0.01267  Uiso   1.00
C447   C     0.50000   0.31960   0.87290   0.01267  Uiso   1.00
C448   C     0.60070   0.32440   0.53680   0.01267  Uiso   1.00
C449   C     0.20500   0.80660   0.14460   0.01267  Uiso   1.00
C450   C     0.79500   0.33800   0.19340   0.01267  Uiso   1.00
C451   C     0.00000   0.43260   0.25110   0.01267  Uiso   1.00
C452   C     0.00000   0.35950   0.22190   0.01267  Uiso   1.00
C453   C     0.95500   0.21750   0.67650   0.01267  Uiso   1.00
C454   C     0.38030   0.22170   0.90910   0.01267  Uiso   1.00
C455   C     0.85790   0.21420   0.59340   0.01267  Uiso   1.00
C456   C     0.20540   0.84020   0.10830   0.01267  Uiso   1.00
C457   C     0.04560   0.07590   0.68500   0.01267  Uiso   1.00
C458   C     0.57490   0.26530   0.66200   0.01267  Uiso   1.00
C459   C     0.95500   0.32350   0.54100   0.01267  Uiso   1.00
C460   C     0.08980   0.36470   0.32430   0.01267  Uiso   1.00
C461   C     0.60070   0.21240   0.67560   0.01267  Uiso   1.00
C462   C     0.45280   0.41950   0.18880   0.01267  Uiso   1.00
C463   C     0.87220   0.18840   0.23960   0.01267  Uiso   1.00
C464   C     0.60160   0.64190   0.56290   0.01267  Uiso   1.00
C465   C     0.50000   0.92940   0.17380   0.01267  Uiso   1.00
C466   C     0.83470   0.75760   0.96320   0.01267  Uiso   1.00
C467   C     0.72740   0.83660   0.69750   0.01267  Uiso   1.00
C468   C     0.77260   0.86090   0.69750   0.01267  Uiso   1.00
N1     N     0.00000   0.44090   0.76570   0.01267  Uiso   1.00
N2     N     0.50000   0.31410   0.94150   0.01267  Uiso   1.00
N3     N     0.86070   0.79080   0.09350   0.01267  Uiso   1.00
N4     N     0.36070   0.79080   0.69730   0.01267  Uiso   1.00
N5     N     0.13930   0.79080   0.09350   0.01267  Uiso   1.00
N6     N     0.63930   0.79080   0.69730   0.01267  Uiso   1.00
N7     N     0.50000   0.32480   0.76570   0.01267  Uiso   1.00
N8     N     0.13930   0.30270   0.20920   0.01267  Uiso   1.00
N9     N     0.50000   0.62740   0.68590   0.01267  Uiso   1.00
N10    N     0.36070   0.30270   0.09350   0.01267  Uiso   1.00
N11    N     0.86070   0.90650   0.69730   0.01267  Uiso   1.00
N12    N     0.00000   0.23430   0.67520   0.01267  Uiso   1.00
N13    N     0.00000   0.32480   0.55910   0.01267  Uiso   1.00
N14    N     0.50000   0.05850   0.37260   0.01267  Uiso   1.00
N15    N     0.63930   0.90650   0.20920   0.01267  Uiso   1.00
N16    N     0.00000   0.62740   0.94150   0.01267  Uiso   1.00
N17    N     0.63930   0.30270   0.09350   0.01267  Uiso   1.00
N18    N     0.86070   0.30270   0.20920   0.01267  Uiso   1.00
N19    N     0.36070   0.90650   0.20920   0.01267  Uiso   1.00
N20    N     0.50000   0.23430   0.55910   0.01267  Uiso   1.00
N21    N     0.50000   0.44090   0.67520   0.01267  Uiso   1.00
N22    N     0.00000   0.31410   0.37260   0.01267  Uiso   1.00
N23    N     0.00000   0.05850   0.68590   0.01267  Uiso   1.00
N24    N     0.13930   0.90650   0.69730   0.01267  Uiso   1.00
O1     O     0.45590   0.87840   0.22440   0.01267  Uiso   1.00
O2     O     0.55710   0.30500   0.59330   0.01267  Uiso   1.00
O3     O     0.44240   0.37080   0.74130   0.01267  Uiso   1.00
O4     O     0.55760   0.37080   0.74130   0.01267  Uiso   1.00
O5     O     0.95530   0.25890   0.18620   0.01267  Uiso   1.00
O6     O     0.04470   0.92730   0.74110   0.01267  Uiso   1.00
O7     O     0.50000   0.73520   0.69290   0.01267  Uiso   1.00
O8     O     0.95530   0.92730   0.74110   0.01267  Uiso   1.00
O9     O     0.44410   0.26890   0.96820   0.01267  Uiso   1.00
O10    O     0.55520   0.35300   0.01460   0.01267  Uiso   1.00
O11    O     0.60180   0.98410   0.25060   0.01267  Uiso   1.00
O12    O     0.39820   0.74940   0.73350   0.01267  Uiso   1.00
O13    O     0.95590   0.77560   0.12160   0.01267  Uiso   1.00
O14    O     0.89820   0.74940   0.01590   0.01267  Uiso   1.00
O15    O     0.94480   0.66160   0.01460   0.01267  Uiso   1.00
O16    O     0.39820   0.98410   0.25060   0.01267  Uiso   1.00
O17    O     0.44480   0.66160   0.64700   0.01267  Uiso   1.00
O18    O     0.04470   0.25890   0.18620   0.01267  Uiso   1.00
O19    O     0.05760   0.37080   0.62950   0.01267  Uiso   1.00
O20    O     0.60180   0.74940   0.73350   0.01267  Uiso   1.00
O21    O     0.94290   0.30500   0.71170   0.01267  Uiso   1.00
O22    O     0.54470   0.92730   0.18620   0.01267  Uiso   1.00
O23    O     0.60180   0.26650   0.01590   0.01267  Uiso   1.00
O24    O     0.55760   0.37050   0.62920   0.01267  Uiso   1.00
O25    O     0.00000   0.95770   0.69290   0.01267  Uiso   1.00
O26    O     0.04410   0.77560   0.12160   0.01267  Uiso   1.00
O27    O     0.05520   0.98540   0.64700   0.01267  Uiso   1.00
O28    O     0.05520   0.35300   0.33840   0.01267  Uiso   1.00
O29    O     0.45590   0.77560   0.65400   0.01267  Uiso   1.00
O30    O     0.05710   0.40670   0.69500   0.01267  Uiso   1.00
O31    O     0.45590   0.34600   0.12160   0.01267  Uiso   1.00
O32    O     0.04410   0.87840   0.65400   0.01267  Uiso   1.00
O33    O     0.44240   0.25870   0.62950   0.01267  Uiso   1.00
O34    O     0.55710   0.28830   0.69500   0.01267  Uiso   1.00
O35    O     0.95590   0.87840   0.65400   0.01267  Uiso   1.00
O36    O     0.94290   0.28830   0.59330   0.01267  Uiso   1.00
O37    O     0.94480   0.98540   0.64700   0.01267  Uiso   1.00
O38    O     0.39820   0.26650   0.01590   0.01267  Uiso   1.00
O39    O     0.10180   0.98410   0.73350   0.01267  Uiso   1.00
O40    O     0.05590   0.26890   0.30070   0.01267  Uiso   1.00
O41    O     0.44290   0.40670   0.71170   0.01267  Uiso   1.00
O42    O     0.04410   0.34600   0.22440   0.01267  Uiso   1.00
O43    O     0.44290   0.28830   0.69500   0.01267  Uiso   1.00
O44    O     0.94240   0.25870   0.62920   0.01267  Uiso   1.00
O45    O     0.50000   0.95770   0.26480   0.01267  Uiso   1.00
O46    O     0.59920   0.71260   0.64960   0.01267  Uiso   1.00
O47    O     0.89820   0.98410   0.73350   0.01267  Uiso   1.00
O48    O     0.55590   0.03180   0.30070   0.01267  Uiso   1.00
O49    O     0.94290   0.40670   0.69500   0.01267  Uiso   1.00
O50    O     0.55590   0.26890   0.96820   0.01267  Uiso   1.00
O51    O     0.00000   0.30710   0.26480   0.01267  Uiso   1.00
O52    O     0.10180   0.74940   0.01590   0.01267  Uiso   1.00
O53    O     0.45530   0.92730   0.18620   0.01267  Uiso   1.00
O54    O     0.09920   0.35040   0.28740   0.01267  Uiso   1.00
O55    O     0.05590   0.69930   0.96820   0.01267  Uiso   1.00
O56    O     0.05710   0.28830   0.59330   0.01267  Uiso   1.00
O57    O     0.44290   0.30500   0.59330   0.01267  Uiso   1.00
O58    O     0.95590   0.34600   0.22440   0.01267  Uiso   1.00
O59    O     0.55520   0.66160   0.64700   0.01267  Uiso   1.00
O60    O     0.05590   0.03180   0.73110   0.01267  Uiso   1.00
O61    O     0.40080   0.93700   0.28740   0.01267  Uiso   1.00
O62    O     0.55590   0.69930   0.73110   0.01267  Uiso   1.00
O63    O     0.44410   0.03180   0.30070   0.01267  Uiso   1.00
O64    O     0.00000   0.33333   0.66666   0.01267  Uiso   1.00
O65    O     0.40080   0.71260   0.64960   0.01267  Uiso   1.00
O66    O     0.90080   0.71260   0.06300   0.01267  Uiso   1.00
O67    O     0.45530   0.81380   0.74110   0.01267  Uiso   1.00
O68    O     0.94410   0.03180   0.73110   0.01267  Uiso   1.00
O69    O     0.50000   0.30710   0.04230   0.01267  Uiso   1.00
O70    O     0.94410   0.69930   0.96820   0.01267  Uiso   1.00
O71    O     0.94240   0.37050   0.74130   0.01267  Uiso   1.00
O72    O     0.54410   0.87840   0.22440   0.01267  Uiso   1.00
O73    O     0.54470   0.81380   0.74110   0.01267  Uiso   1.00
O74    O     0.10180   0.26650   0.25060   0.01267  Uiso   1.00
O75    O     0.59920   0.35040   0.06300   0.01267  Uiso   1.00
O76    O     0.50000   0.33333   0.66666   0.01267  Uiso   1.00
O77    O     0.54410   0.34600   0.12160   0.01267  Uiso   1.00
O78    O     0.44240   0.37050   0.62920   0.01267  Uiso   1.00
O79    O     0.05760   0.37050   0.74130   0.01267  Uiso   1.00
O80    O     0.40080   0.35040   0.06300   0.01267  Uiso   1.00
O81    O     0.45530   0.25890   0.07270   0.01267  Uiso   1.00
O82    O     0.94240   0.37080   0.62950   0.01267  Uiso   1.00
O83    O     0.05520   0.66160   0.01460   0.01267  Uiso   1.00
O84    O     0.94480   0.35300   0.33840   0.01267  Uiso   1.00
O85    O     0.95530   0.81380   0.07270   0.01267  Uiso   1.00
O86    O     0.44480   0.98540   0.33840   0.01267  Uiso   1.00
O87    O     0.54410   0.77560   0.65400   0.01267  Uiso   1.00
O88    O     0.90080   0.93700   0.64960   0.01267  Uiso   1.00
O89    O     0.55710   0.40670   0.71170   0.01267  Uiso   1.00
O90    O     0.55760   0.25870   0.62950   0.01267  Uiso   1.00
O91    O     0.09920   0.71260   0.06300   0.01267  Uiso   1.00
O92    O     0.44480   0.35300   0.01460   0.01267  Uiso   1.00
O93    O     0.90080   0.35040   0.28740   0.01267  Uiso   1.00
O94    O     0.54470   0.25890   0.07270   0.01267  Uiso   1.00
O95    O     0.00000   0.73520   0.04230   0.01267  Uiso   1.00
O96    O     0.89820   0.26650   0.25060   0.01267  Uiso   1.00
O97    O     0.09920   0.93700   0.64960   0.01267  Uiso   1.00
O98    O     0.94410   0.26890   0.30070   0.01267  Uiso   1.00
O99    O     0.05710   0.30500   0.71170   0.01267  Uiso   1.00
O100   O     0.59920   0.93700   0.28740   0.01267  Uiso   1.00
O101   O     0.55520   0.98540   0.33840   0.01267  Uiso   1.00
O102   O     0.04470   0.81380   0.07270   0.01267  Uiso   1.00
O103   O     0.44410   0.69930   0.73110   0.01267  Uiso   1.00
O104   O     0.05760   0.25870   0.62920   0.01267  Uiso   1.00
Fe25   Fe    0.50000   0.31434   0.31026   0.01267  Uiso   1.00
Fe26   Fe    0.06611   0.23947   0.93399   0.01267  Uiso   1.00
Fe27   Fe    0.93389   0.69452   0.76053   0.01267  Uiso   1.00
Fe28   Fe    0.93389   0.23947   0.93399   0.01267  Uiso   1.00
Fe29   Fe    0.50000   0.99592   0.68566   0.01267  Uiso   1.00
Fe30   Fe    0.50000   0.68974   0.00408   0.01267  Uiso   1.00
Fe31   Fe    0.56611   0.06601   0.76053   0.01267  Uiso   1.00
Fe32   Fe    0.56611   0.23947   0.30548   0.01267  Uiso   1.00
Fe33   Fe    0.00000   0.31434   0.00408   0.01267  Uiso   1.00
Fe34   Fe    0.43389   0.06601   0.76053   0.01267  Uiso   1.00
Fe35   Fe    0.00000   0.68974   0.68566   0.01267  Uiso   1.00
Fe36   Fe    0.06611   0.06601   0.30548   0.01267  Uiso   1.00
Fe37   Fe    0.93389   0.06601   0.30548   0.01267  Uiso   1.00
Fe38   Fe    0.00000   0.71299   0.32936   0.01267  Uiso   1.00
Fe39   Fe    0.50000   0.71299   0.38363   0.01267  Uiso   1.00
Fe40   Fe    0.50000   0.67064   0.28701   0.01267  Uiso   1.00
Fe41   Fe    0.43389   0.69452   0.93399   0.01267  Uiso   1.00
Fe42   Fe    0.43389   0.23947   0.30548   0.01267  Uiso   1.00
Fe43   Fe    0.50000   0.61637   0.32936   0.01267  Uiso   1.00
Fe44   Fe    0.00000   0.99592   0.31026   0.01267  Uiso   1.00
Fe45   Fe    0.00000   0.67064   0.38363   0.01267  Uiso   1.00
Fe46   Fe    0.06611   0.69452   0.76053   0.01267  Uiso   1.00
Fe47   Fe    0.56611   0.69452   0.93399   0.01267  Uiso   1.00
Fe48   Fe    0.00000   0.61637   0.28701   0.01267  Uiso   1.00
H921   H     0.46910   0.26650   0.43380   0.01267  Uiso   1.00
H922   H     0.03100   0.15810   0.79660   0.01267  Uiso   1.00
H923   H     0.95390   0.55900   0.77470   0.01267  Uiso   1.00
H924   H     0.64670   0.92490   0.66310   0.01267  Uiso   1.00
H925   H     0.28060   0.19890   0.36230   0.01267  Uiso   1.00
H926   H     0.54970   0.16590   0.36860   0.01267  Uiso   1.00
H927   H     0.99750   0.81980   0.92240   0.01267  Uiso   1.00
H928   H     0.15000   0.62120   0.39070   0.01267  Uiso   1.00
H929   H     0.82290   0.36320   0.99780   0.01267  Uiso   1.00
H930   H     0.49860   0.85330   0.98190   0.01267  Uiso   1.00
H931   H     0.92270   0.67630   0.44670   0.01267  Uiso   1.00
H932   H     0.31670   0.67570   0.39910   0.01267  Uiso   1.00
H933   H     0.15060   0.71740   0.43020   0.01267  Uiso   1.00
H934   H     0.14800   0.10310   0.41400   0.01267  Uiso   1.00
H935   H     0.03210   0.15830   0.79560   0.01267  Uiso   1.00
H936   H     0.81020   0.75370   0.44460   0.01267  Uiso   1.00
H937   H     0.30230   0.98410   0.73930   0.01267  Uiso   1.00
H938   H     0.96910   0.26650   0.83270   0.01267  Uiso   1.00
H939   H     0.18540   0.98590   0.22460   0.01267  Uiso   1.00
H940   H     0.65270   0.99210   0.61330   0.01267  Uiso   1.00
H941   H     0.93250   0.55900   0.62880   0.01267  Uiso   1.00
H942   H     0.35000   0.62120   0.23050   0.01267  Uiso   1.00
H943   H     0.29740   0.06630   0.64940   0.01267  Uiso   1.00
H944   H     0.91970   0.18790   0.39410   0.01267  Uiso   1.00
H945   H     0.00110   0.16430   0.76460   0.01267  Uiso   1.00
H946   H     0.57730   0.77040   0.44670   0.01267  Uiso   1.00
H947   H     0.32490   0.08760   0.69130   0.01267  Uiso   1.00
H948   H     0.00250   0.07760   0.89740   0.01267  Uiso   1.00
H949   H     0.89950   0.00170   0.40460   0.01267  Uiso   1.00
H950   H     0.34710   0.83030   0.07010   0.01267  Uiso   1.00
H951   H     0.54720   0.25890   0.42990   0.01267  Uiso   1.00
H952   H     0.42080   0.30700   0.21060   0.01267  Uiso   1.00
H953   H     0.87210   0.52160   0.32850   0.01267  Uiso   1.00
H954   H     0.59250   0.77220   0.29660   0.01267  Uiso   1.00
H955   H     0.03080   0.82260   0.83230   0.01267  Uiso   1.00
H956   H     0.96970   0.77800   0.89870   0.01267  Uiso   1.00
H957   H     0.50140   0.01810   0.87140   0.01267  Uiso   1.00
H958   H     0.39950   0.59540   0.99830   0.01267  Uiso   1.00
H959   H     0.54860   0.83100   0.92180   0.01267  Uiso   1.00
H960   H     0.07670   0.92200   0.18270   0.01267  Uiso   1.00
H961   H     0.62450   0.75330   0.08990   0.01267  Uiso   1.00
H962   H     0.21940   0.19890   0.83660   0.01267  Uiso   1.00
H963   H     0.18980   0.69090   0.24630   0.01267  Uiso   1.00
H964   H     0.41960   0.80050   0.92940   0.01267  Uiso   1.00
H965   H     0.19060   0.31020   0.04420   0.01267  Uiso   1.00
H966   H     0.64850   0.75450   0.93290   0.01267  Uiso   1.00
H967   H     0.85000   0.62120   0.39070   0.01267  Uiso   1.00
H968   H     0.35630   0.79760   0.11030   0.01267  Uiso   1.00
H969   H     0.59880   0.10200   0.66320   0.01267  Uiso   1.00
H970   H     0.42080   0.90360   0.69300   0.01267  Uiso   1.00
H971   H     0.85460   0.12610   0.36070   0.01267  Uiso   1.00
H972   H     0.07730   0.55330   0.22960   0.01267  Uiso   1.00
H973   H     0.08050   0.13740   0.94170   0.01267  Uiso   1.00
H974   H     0.42750   0.39360   0.43380   0.01267  Uiso   1.00
H975   H     0.40810   0.94170   0.76370   0.01267  Uiso   1.00
H976   H     0.86830   0.55940   0.59030   0.01267  Uiso   1.00
H977   H     0.54910   0.15880   0.17670   0.01267  Uiso   1.00
H978   H     0.68970   0.94260   0.75420   0.01267  Uiso   1.00
H979   H     0.95390   0.22530   0.78430   0.01267  Uiso   1.00
H980   H     0.64850   0.06710   0.82160   0.01267  Uiso   1.00
H981   H     0.37550   0.75330   0.08990   0.01267  Uiso   1.00
H982   H     0.68980   0.75370   0.30910   0.01267  Uiso   1.00
H983   H     0.45030   0.63140   0.79730   0.01267  Uiso   1.00
H984   H     0.57730   0.67630   0.22960   0.01267  Uiso   1.00
H985   H     0.59880   0.33680   0.43880   0.01267  Uiso   1.00
H986   H     0.14290   0.80990   0.78040   0.01267  Uiso   1.00
H987   H     0.91690   0.90190   0.21300   0.01267  Uiso   1.00
H988   H     0.70260   0.06630   0.64940   0.01267  Uiso   1.00
H989   H     0.50130   0.54600   0.79160   0.01267  Uiso   1.00
H990   H     0.19230   0.30700   0.04180   0.01267  Uiso   1.00
H991   H     0.03270   0.11930   0.21880   0.01267  Uiso   1.00
H992   H     0.15290   0.92990   0.16970   0.01267  Uiso   1.00
H993   H     0.57920   0.90360   0.69300   0.01267  Uiso   1.00
H994   H     0.41950   0.13740   0.19570   0.01267  Uiso   1.00
H995   H     0.58030   0.68140   0.12080   0.01267  Uiso   1.00
H996   H     0.69010   0.31540   0.22840   0.01267  Uiso   1.00
H997   H     0.53090   0.56620   0.83270   0.01267  Uiso   1.00
H998   H     0.21940   0.63770   0.80110   0.01267  Uiso   1.00
H999   H     0.49870   0.54600   0.79160   0.01267  Uiso   1.00
H1000  H     0.91970   0.60590   0.79380   0.01267  Uiso   1.00
H1001  H     0.31020   0.75370   0.30910   0.01267  Uiso   1.00
H1002  H     0.12790   0.80690   0.47840   0.01267  Uiso   1.00
H1003  H     0.80990   0.31540   0.08700   0.01267  Uiso   1.00
H1004  H     0.14370   0.88970   0.20240   0.01267  Uiso   1.00
H1005  H     0.46900   0.15810   0.36150   0.01267  Uiso   1.00
H1006  H     0.62440   0.89380   0.71500   0.01267  Uiso   1.00
H1007  H     0.92330   0.26070   0.07800   0.01267  Uiso   1.00
H1008  H     0.93250   0.06980   0.44100   0.01267  Uiso   1.00
H1009  H     0.58050   0.80430   0.94170   0.01267  Uiso   1.00
H1010  H     0.85710   0.21960   0.02950   0.01267  Uiso   1.00
H1011  H     0.09190   0.23630   0.05830   0.01267  Uiso   1.00
H1012  H     0.50140   0.85330   0.98190   0.01267  Uiso   1.00
H1013  H     0.15060   0.71280   0.28260   0.01267  Uiso   1.00
H1014  H     0.94980   0.10310   0.88910   0.01267  Uiso   1.00
H1015  H     0.34730   0.99210   0.61330   0.01267  Uiso   1.00
H1016  H     0.87210   0.67150   0.19310   0.01267  Uiso   1.00
H1017  H     0.04910   0.82330   0.84120   0.01267  Uiso   1.00
H1018  H     0.55020   0.10310   0.21400   0.01267  Uiso   1.00
H1019  H     0.64850   0.17840   0.24550   0.01267  Uiso   1.00
H1020  H     0.80990   0.91300   0.22840   0.01267  Uiso   1.00
H1021  H     0.85630   0.79760   0.68730   0.01267  Uiso   1.00
H1022  H     0.09880   0.33680   0.89800   0.01267  Uiso   1.00
H1023  H     0.45280   0.17100   0.74110   0.01267  Uiso   1.00
H1024  H     0.17510   0.30870   0.91240   0.01267  Uiso   1.00
H1025  H     0.18540   0.23870   0.01410   0.01267  Uiso   1.00
H1026  H     0.78060   0.63770   0.80110   0.01267  Uiso   1.00
H1027  H     0.56750   0.55900   0.93020   0.01267  Uiso   1.00
H1028  H     0.70390   0.37050   0.40510   0.01267  Uiso   1.00
H1029  H     0.41970   0.43940   0.31860   0.01267  Uiso   1.00
H1030  H     0.62440   0.28500   0.17880   0.01267  Uiso   1.00
H1031  H     0.46910   0.16730   0.73350   0.01267  Uiso   1.00
H1032  H     0.99890   0.60030   0.83570   0.01267  Uiso   1.00
H1033  H     0.84940   0.56980   0.28720   0.01267  Uiso   1.00
H1034  H     0.05020   0.78600   0.89690   0.01267  Uiso   1.00
H1035  H     0.69560   0.62950   0.95630   0.01267  Uiso   1.00
H1036  H     0.53090   0.16730   0.73350   0.01267  Uiso   1.00
H1037  H     0.34710   0.92990   0.76020   0.01267  Uiso   1.00
H1038  H     0.65000   0.76950   0.39070   0.01267  Uiso   1.00
H1039  H     0.35150   0.75450   0.93290   0.01267  Uiso   1.00
H1040  H     0.32290   0.00220   0.63680   0.01267  Uiso   1.00
H1041  H     0.64540   0.23460   0.36070   0.01267  Uiso   1.00
H1042  H     0.81020   0.69090   0.24630   0.01267  Uiso   1.00
H1043  H     0.19770   0.75520   0.73930   0.01267  Uiso   1.00
H1044  H     0.54720   0.57010   0.82900   0.01267  Uiso   1.00
H1045  H     0.42060   0.18480   0.78060   0.01267  Uiso   1.00
H1046  H     0.89990   0.00040   0.40250   0.01267  Uiso   1.00
H1047  H     0.03100   0.20340   0.36150   0.01267  Uiso   1.00
H1048  H     0.45020   0.04320   0.88770   0.01267  Uiso   1.00
H1049  H     0.96780   0.56540   0.73430   0.01267  Uiso   1.00
H1050  H     0.49890   0.16430   0.39970   0.01267  Uiso   1.00
H1051  H     0.69230   0.95820   0.69300   0.01267  Uiso   1.00
H1052  H     0.18970   0.81160   0.75420   0.01267  Uiso   1.00
H1053  H     0.07800   0.37830   0.06460   0.01267  Uiso   1.00
H1054  H     0.14670   0.33690   0.07510   0.01267  Uiso   1.00
H1055  H     0.60010   0.59750   0.99960   0.01267  Uiso   1.00
H1056  H     0.28780   0.28230   0.22110   0.01267  Uiso   1.00
H1057  H     0.85330   0.92490   0.26180   0.01267  Uiso   1.00
H1058  H     0.65000   0.62120   0.23050   0.01267  Uiso   1.00
H1059  H     0.14370   0.31270   0.11030   0.01267  Uiso   1.00
H1060  H     0.92080   0.78940   0.69300   0.01267  Uiso   1.00
H1061  H     0.50130   0.20840   0.75440   0.01267  Uiso   1.00
H1062  H     0.17710   0.63460   0.63680   0.01267  Uiso   1.00
H1063  H     0.60050   0.40290   0.40460   0.01267  Uiso   1.00
H1064  H     0.40370   0.33300   0.43570   0.01267  Uiso   1.00
H1065  H     0.87500   0.08470   0.45910   0.01267  Uiso   1.00
H1066  H     0.04610   0.22530   0.78430   0.01267  Uiso   1.00
H1067  H     0.81460   0.23870   0.01410   0.01267  Uiso   1.00
H1068  H     0.53230   0.01000   0.83400   0.01267  Uiso   1.00
H1069  H     0.63630   0.21810   0.19300   0.01267  Uiso   1.00
H1070  H     0.69560   0.04370   0.67320   0.01267  Uiso   1.00
H1071  H     0.69010   0.77160   0.08700   0.01267  Uiso   1.00
H1072  H     0.34280   0.09400   0.64540   0.01267  Uiso   1.00
H1073  H     0.04720   0.25890   0.82900   0.01267  Uiso   1.00
H1074  H     0.81670   0.60090   0.32430   0.01267  Uiso   1.00
H1075  H     0.03270   0.09950   0.88070   0.01267  Uiso   1.00
H1076  H     0.90750   0.77220   0.47560   0.01267  Uiso   1.00
H1077  H     0.03030   0.12070   0.22200   0.01267  Uiso   1.00
H1078  H     0.95020   0.84450   0.88770   0.01267  Uiso   1.00
H1079  H     0.92200   0.37830   0.06460   0.01267  Uiso   1.00
H1080  H     0.80410   0.63020   0.67290   0.01267  Uiso   1.00
H1081  H     0.46900   0.63850   0.79660   0.01267  Uiso   1.00
H1082  H     0.03230   0.01000   0.17600   0.01267  Uiso   1.00
H1083  H     0.85710   0.80990   0.78040   0.01267  Uiso   1.00
H1084  H     0.07940   0.18480   0.40420   0.01267  Uiso   1.00
H1085  H     0.69060   0.95580   0.68980   0.01267  Uiso   1.00
H1086  H     0.12500   0.08470   0.45910   0.01267  Uiso   1.00
H1087  H     0.77980   0.75640   0.85830   0.01267  Uiso   1.00
H1088  H     0.12790   0.52160   0.32850   0.01267  Uiso   1.00
H1089  H     0.80440   0.04370   0.37050   0.01267  Uiso   1.00
H1090  H     0.69060   0.73400   0.04420   0.01267  Uiso   1.00
H1091  H     0.89990   0.59750   0.59790   0.01267  Uiso   1.00
H1092  H     0.07940   0.21940   0.81520   0.01267  Uiso   1.00
H1093  H     0.37560   0.28500   0.17880   0.01267  Uiso   1.00
H1094  H     0.32550   0.62190   0.42070   0.01267  Uiso   1.00
H1095  H     0.17450   0.57930   0.37810   0.01267  Uiso   1.00
H1096  H     0.82490   0.08760   0.39630   0.01267  Uiso   1.00
H1097  H     0.10050   0.59540   0.59710   0.01267  Uiso   1.00
H1098  H     0.08040   0.80050   0.87110   0.01267  Uiso   1.00
H1099  H     0.57940   0.18480   0.78060   0.01267  Uiso   1.00
H1100  H     0.46770   0.16600   0.17600   0.01267  Uiso   1.00
H1101  H     0.41970   0.68140   0.12080   0.01267  Uiso   1.00
H1102  H     0.79740   0.06630   0.41690   0.01267  Uiso   1.00
H1103  H     0.85630   0.88970   0.20240   0.01267  Uiso   1.00
H1104  H     0.53030   0.12070   0.89870   0.01267  Uiso   1.00
H1105  H     0.00130   0.20840   0.45400   0.01267  Uiso   1.00
H1106  H     0.09250   0.70340   0.22780   0.01267  Uiso   1.00
H1107  H     0.87550   0.91010   0.24670   0.01267  Uiso   1.00
H1108  H     0.34280   0.55140   0.90600   0.01267  Uiso   1.00
H1109  H     0.96920   0.82260   0.83230   0.01267  Uiso   1.00
H1110  H     0.50110   0.60030   0.76460   0.01267  Uiso   1.00
H1111  H     0.15720   0.35460   0.90600   0.01267  Uiso   1.00
H1112  H     0.09190   0.82200   0.76370   0.01267  Uiso   1.00
H1113  H     0.35630   0.88970   0.68730   0.01267  Uiso   1.00
H1114  H     0.54610   0.22530   0.44100   0.01267  Uiso   1.00
H1115  H     0.86370   0.80700   0.78190   0.01267  Uiso   1.00
H1116  H     0.13170   0.03090   0.44060   0.01267  Uiso   1.00
H1117  H     0.15270   0.62120   0.61330   0.01267  Uiso   1.00
H1118  H     0.34370   0.01820   0.59300   0.01267  Uiso   1.00
H1119  H     0.84370   0.40700   0.98180   0.01267  Uiso   1.00
H1120  H     0.06880   0.53790   0.33890   0.01267  Uiso   1.00
H1121  H     0.37560   0.82120   0.10620   0.01267  Uiso   1.00
H1122  H     0.35200   0.31090   0.41400   0.01267  Uiso   1.00
H1123  H     0.45280   0.25890   0.42990   0.01267  Uiso   1.00
H1124  H     0.65630   0.57480   0.98180   0.01267  Uiso   1.00
H1125  H     0.50250   0.07760   0.18020   0.01267  Uiso   1.00
H1126  H     0.06750   0.55900   0.62880   0.01267  Uiso   1.00
H1127  H     0.68330   0.72340   0.32430   0.01267  Uiso   1.00
H1128  H     0.90370   0.33300   0.89730   0.01267  Uiso   1.00
H1129  H     0.57250   0.39360   0.43380   0.01267  Uiso   1.00
H1130  H     0.58030   0.18790   0.79380   0.01267  Uiso   1.00
H1131  H     0.55020   0.11090   0.89690   0.01267  Uiso   1.00
H1132  H     0.54910   0.01790   0.84120   0.01267  Uiso   1.00
H1133  H     0.53080   0.16770   0.17740   0.01267  Uiso   1.00
H1134  H     0.31030   0.94260   0.75420   0.01267  Uiso   1.00
H1135  H     0.32490   0.30870   0.39630   0.01267  Uiso   1.00
H1136  H     0.99870   0.20840   0.45400   0.01267  Uiso   1.00
H1137  H     0.95090   0.22840   0.41510   0.01267  Uiso   1.00
H1138  H     0.45030   0.20270   0.83410   0.01267  Uiso   1.00
H1139  H     0.96910   0.16730   0.43380   0.01267  Uiso   1.00
H1140  H     0.62500   0.37440   0.45910   0.01267  Uiso   1.00
H1141  H     0.43250   0.55900   0.93020   0.01267  Uiso   1.00
H1142  H     0.06750   0.37120   0.93020   0.01267  Uiso   1.00
H1143  H     0.41950   0.05830   0.86260   0.01267  Uiso   1.00
H1144  H     0.14850   0.75450   0.82160   0.01267  Uiso   1.00
H1145  H     0.70260   0.58310   0.93370   0.01267  Uiso   1.00
H1146  H     0.49860   0.12860   0.14670   0.01267  Uiso   1.00
H1147  H     0.08050   0.05830   0.19570   0.01267  Uiso   1.00
H1148  H     0.53080   0.82260   0.99030   0.01267  Uiso   1.00
H1149  H     0.04860   0.07820   0.16900   0.01267  Uiso   1.00
H1150  H     0.04970   0.20270   0.36860   0.01267  Uiso   1.00
H1151  H     0.35630   0.31270   0.20240   0.01267  Uiso   1.00
H1152  H     0.86370   0.21810   0.02510   0.01267  Uiso   1.00
H1153  H     0.95140   0.83100   0.90920   0.01267  Uiso   1.00
H1154  H     0.53220   0.26570   0.43460   0.01267  Uiso   1.00
H1155  H     0.62450   0.33660   0.24670   0.01267  Uiso   1.00
H1156  H     0.41690   0.31110   0.21300   0.01267  Uiso   1.00
H1157  H     0.07250   0.04020   0.43380   0.01267  Uiso   1.00
H1158  H     0.32550   0.79880   0.37810   0.01267  Uiso   1.00
H1159  H     0.87560   0.89380   0.17880   0.01267  Uiso   1.00
H1160  H     0.32550   0.57930   0.20120   0.01267  Uiso   1.00
H1161  H     0.17450   0.79880   0.42070   0.01267  Uiso   1.00
H1162  H     0.59630   0.10270   0.66700   0.01267  Uiso   1.00
H1163  H     0.49750   0.81980   0.89740   0.01267  Uiso   1.00
H1164  H     0.67510   0.08760   0.69130   0.01267  Uiso   1.00
H1165  H     0.04910   0.22840   0.41510   0.01267  Uiso   1.00
H1166  H     0.78780   0.93880   0.22110   0.01267  Uiso   1.00
H1167  H     0.79610   0.03460   0.40510   0.01267  Uiso   1.00
H1168  H     0.37210   0.67150   0.47840   0.01267  Uiso   1.00
H1169  H     0.30410   0.04270   0.67290   0.01267  Uiso   1.00
H1170  H     0.00140   0.01810   0.14670   0.01267  Uiso   1.00
H1171  H     0.68540   0.77540   0.01410   0.01267  Uiso   1.00
H1172  H     0.84280   0.35460   0.90600   0.01267  Uiso   1.00
H1173  H     0.03100   0.63850   0.84190   0.01267  Uiso   1.00
H1174  H     0.46780   0.26570   0.43460   0.01267  Uiso   1.00
H1175  H     0.54980   0.11230   0.15550   0.01267  Uiso   1.00
H1176  H     0.07800   0.68630   0.62170   0.01267  Uiso   1.00
H1177  H     0.64670   0.33690   0.26180   0.01267  Uiso   1.00
H1178  H     0.49870   0.20840   0.75440   0.01267  Uiso   1.00
H1179  H     0.99750   0.10260   0.18020   0.01267  Uiso   1.00
H1180  H     0.04720   0.17100   0.42990   0.01267  Uiso   1.00
H1181  H     0.19590   0.04270   0.36980   0.01267  Uiso   1.00
H1182  H     0.39990   0.40210   0.40250   0.01267  Uiso   1.00
H1183  H     0.88410   0.80550   0.41020   0.01267  Uiso   1.00
H1184  H     0.15000   0.76950   0.37880   0.01267  Uiso   1.00
H1185  H     0.11590   0.80550   0.41020   0.01267  Uiso   1.00
H1186  H     0.42270   0.77040   0.44670   0.01267  Uiso   1.00
H1187  H     0.56880   0.66110   0.46210   0.01267  Uiso   1.00
H1188  H     0.34730   0.38670   0.37880   0.01267  Uiso   1.00
H1189  H     0.43120   0.80100   0.33890   0.01267  Uiso   1.00
H1190  H     0.79740   0.58310   0.64940   0.01267  Uiso   1.00
H1191  H     0.59190   0.82200   0.05830   0.01267  Uiso   1.00
H1192  H     0.64290   0.21960   0.19010   0.01267  Uiso   1.00
H1193  H     0.40750   0.52440   0.22780   0.01267  Uiso   1.00
H1194  H     0.15270   0.38670   0.00790   0.01267  Uiso   1.00
H1195  H     0.20390   0.03460   0.40510   0.01267  Uiso   1.00
H1196  H     0.95090   0.58490   0.81330   0.01267  Uiso   1.00
H1197  H     0.67450   0.62190   0.42070   0.01267  Uiso   1.00
H1198  H     0.46790   0.63730   0.79560   0.01267  Uiso   1.00
H1199  H     0.03090   0.16730   0.43380   0.01267  Uiso   1.00
H1200  H     0.69770   0.98410   0.73930   0.01267  Uiso   1.00
H1201  H     0.81460   0.77540   0.76130   0.01267  Uiso   1.00
H1202  H     0.54720   0.17100   0.74110   0.01267  Uiso   1.00
H1203  H     0.40370   0.56430   0.89730   0.01267  Uiso   1.00
H1204  H     0.19590   0.63020   0.67290   0.01267  Uiso   1.00
H1205  H     0.28060   0.63770   0.83660   0.01267  Uiso   1.00
H1206  H     0.35200   0.58600   0.89690   0.01267  Uiso   1.00
H1207  H     0.41960   0.07060   0.87110   0.01267  Uiso   1.00
H1208  H     0.68330   0.60090   0.27660   0.01267  Uiso   1.00
H1209  H     0.61590   0.60470   0.41020   0.01267  Uiso   1.00
H1210  H     0.46910   0.56620   0.83270   0.01267  Uiso   1.00
H1211  H     0.80940   0.31020   0.04420   0.01267  Uiso   1.00
H1212  H     0.09630   0.56430   0.66700   0.01267  Uiso   1.00
H1213  H     0.07730   0.67630   0.44670   0.01267  Uiso   1.00
H1214  H     0.36370   0.97490   0.78190   0.01267  Uiso   1.00
H1215  H     0.91960   0.80050   0.87110   0.01267  Uiso   1.00
H1216  H     0.14800   0.31090   0.89690   0.01267  Uiso   1.00
H1217  H     0.20260   0.58310   0.64940   0.01267  Uiso   1.00
H1218  H     0.18980   0.55540   0.30910   0.01267  Uiso   1.00
H1219  H     0.69560   0.32680   0.37050   0.01267  Uiso   1.00
H1220  H     0.89950   0.59540   0.59710   0.01267  Uiso   1.00
H1221  H     0.04910   0.58490   0.81330   0.01267  Uiso   1.00
H1222  H     0.17510   0.08760   0.39630   0.01267  Uiso   1.00
H1223  H     0.56750   0.37120   0.44100   0.01267  Uiso   1.00
H1224  H     0.53270   0.09950   0.21880   0.01267  Uiso   1.00
H1225  H     0.36830   0.03090   0.59030   0.01267  Uiso   1.00
H1226  H     0.85330   0.33690   0.07510   0.01267  Uiso   1.00
H1227  H     0.56880   0.80100   0.33890   0.01267  Uiso   1.00
H1228  H     0.65720   0.35460   0.44860   0.01267  Uiso   1.00
H1229  H     0.82290   0.63460   0.63680   0.01267  Uiso   1.00
H1230  H     0.42270   0.67630   0.22960   0.01267  Uiso   1.00
H1231  H     0.92750   0.04020   0.43380   0.01267  Uiso   1.00
H1232  H     0.96900   0.15810   0.79660   0.01267  Uiso   1.00
H1233  H     0.07800   0.93540   0.31370   0.01267  Uiso   1.00
H1234  H     0.53210   0.20440   0.84170   0.01267  Uiso   1.00
H1235  H     0.38410   0.80550   0.39530   0.01267  Uiso   1.00
H1236  H     0.42270   0.55330   0.32370   0.01267  Uiso   1.00
H1237  H     0.14670   0.92490   0.26180   0.01267  Uiso   1.00
H1238  H     0.29610   0.03460   0.62950   0.01267  Uiso   1.00
H1239  H     0.35710   0.21960   0.19010   0.01267  Uiso   1.00
H1240  H     0.03230   0.82400   0.83400   0.01267  Uiso   1.00
H1241  H     0.67450   0.79880   0.37810   0.01267  Uiso   1.00
H1242  H     0.49870   0.24560   0.45400   0.01267  Uiso   1.00
H1243  H     0.96780   0.26570   0.83110   0.01267  Uiso   1.00
H1244  H     0.41690   0.78700   0.09810   0.01267  Uiso   1.00
H1245  H     0.07940   0.59580   0.78060   0.01267  Uiso   1.00
H1246  H     0.46920   0.00970   0.83230   0.01267  Uiso   1.00
H1247  H     0.12450   0.91010   0.24670   0.01267  Uiso   1.00
H1248  H     0.37500   0.54090   0.91530   0.01267  Uiso   1.00
H1249  H     0.54910   0.58490   0.77160   0.01267  Uiso   1.00
H1250  H     0.11590   0.58980   0.39530   0.01267  Uiso   1.00
H1251  H     0.68980   0.55540   0.24630   0.01267  Uiso   1.00
H1252  H     0.10010   0.40210   0.99960   0.01267  Uiso   1.00
H1253  H     0.62440   0.82120   0.10620   0.01267  Uiso   1.00
H1254  H     0.42200   0.37830   0.31370   0.01267  Uiso   1.00
H1255  H     0.22020   0.75640   0.85830   0.01267  Uiso   1.00
H1256  H     0.30410   0.32710   0.36980   0.01267  Uiso   1.00
H1257  H     0.82490   0.30870   0.91240   0.01267  Uiso   1.00
H1258  H     0.43250   0.37120   0.44100   0.01267  Uiso   1.00
H1259  H     0.35150   0.06710   0.82160   0.01267  Uiso   1.00
H1260  H     0.18970   0.94260   0.18840   0.01267  Uiso   1.00
H1261  H     0.09880   0.56120   0.66320   0.01267  Uiso   1.00
H1262  H     0.12440   0.82120   0.71500   0.01267  Uiso   1.00
H1263  H     0.34940   0.71280   0.43020   0.01267  Uiso   1.00
H1264  H     0.91940   0.82700   0.32070   0.01267  Uiso   1.00
H1265  H     0.84280   0.09400   0.44860   0.01267  Uiso   1.00
H1266  H     0.49750   0.07760   0.18020   0.01267  Uiso   1.00
H1267  H     0.03210   0.63730   0.84170   0.01267  Uiso   1.00
H1268  H     0.58310   0.90190   0.68890   0.01267  Uiso   1.00
H1269  H     0.34710   0.23980   0.16970   0.01267  Uiso   1.00
H1270  H     0.09630   0.10270   0.43570   0.01267  Uiso   1.00
H1271  H     0.64370   0.31270   0.20240   0.01267  Uiso   1.00
H1272  H     0.92270   0.55330   0.22960   0.01267  Uiso   1.00
H1273  H     0.99870   0.54600   0.75440   0.01267  Uiso   1.00
H1274  H     0.03220   0.16890   0.43460   0.01267  Uiso   1.00
H1275  H     0.14540   0.12610   0.36070   0.01267  Uiso   1.00
H1276  H     0.12790   0.67150   0.19310   0.01267  Uiso   1.00
H1277  H     0.21220   0.93880   0.22110   0.01267  Uiso   1.00
H1278  H     0.03030   0.10130   0.87930   0.01267  Uiso   1.00
H1279  H     0.17510   0.60370   0.69130   0.01267  Uiso   1.00
H1280  H     0.80410   0.04270   0.36980   0.01267  Uiso   1.00
H1281  H     0.03080   0.00970   0.17740   0.01267  Uiso   1.00
H1282  H     0.85150   0.75450   0.82160   0.01267  Uiso   1.00
H1283  H     0.91690   0.31110   0.09810   0.01267  Uiso   1.00
H1284  H     0.79740   0.35060   0.93370   0.01267  Uiso   1.00
H1285  H     0.30230   0.26070   0.24480   0.01267  Uiso   1.00
H1286  H     0.77980   0.14170   0.89810   0.01267  Uiso   1.00
H1287  H     0.31670   0.60090   0.27660   0.01267  Uiso   1.00
H1288  H     0.78780   0.28230   0.06120   0.01267  Uiso   1.00
H1289  H     0.91960   0.12890   0.92940   0.01267  Uiso   1.00
H1290  H     0.46790   0.15830   0.36270   0.01267  Uiso   1.00
H1291  H     0.13630   0.21810   0.02510   0.01267  Uiso   1.00
H1292  H     0.57940   0.21940   0.40420   0.01267  Uiso   1.00
H1293  H     0.96730   0.11930   0.21880   0.01267  Uiso   1.00
H1294  H     0.35330   0.92490   0.66310   0.01267  Uiso   1.00
H1295  H     0.46770   0.82400   0.99000   0.01267  Uiso   1.00
H1296  H     0.94980   0.11090   0.21400   0.01267  Uiso   1.00
H1297  H     0.85200   0.58600   0.68910   0.01267  Uiso   1.00
H1298  H     0.96770   0.16600   0.99000   0.01267  Uiso   1.00
H1299  H     0.04610   0.55900   0.77470   0.01267  Uiso   1.00
H1300  H     0.38410   0.60470   0.41020   0.01267  Uiso   1.00
H1301  H     0.80940   0.73400   0.68980   0.01267  Uiso   1.00
H1302  H     0.28060   0.16340   0.80110   0.01267  Uiso   1.00
H1303  H     0.60050   0.00170   0.59710   0.01267  Uiso   1.00
H1304  H     0.71220   0.93880   0.71770   0.01267  Uiso   1.00
H1305  H     0.27980   0.75640   0.89810   0.01267  Uiso   1.00
H1306  H     0.45090   0.15880   0.17670   0.01267  Uiso   1.00
H1307  H     0.59190   0.94170   0.76370   0.01267  Uiso   1.00
H1308  H     0.04980   0.04320   0.15550   0.01267  Uiso   1.00
H1309  H     0.14850   0.17840   0.93290   0.01267  Uiso   1.00
H1310  H     0.36830   0.55940   0.96910   0.01267  Uiso   1.00
H1311  H     0.67450   0.57930   0.20120   0.01267  Uiso   1.00
H1312  H     0.72020   0.75640   0.89810   0.01267  Uiso   1.00
H1313  H     0.03090   0.26650   0.83270   0.01267  Uiso   1.00
H1314  H     0.30440   0.04370   0.67320   0.01267  Uiso   1.00
H1315  H     0.46920   0.82260   0.99030   0.01267  Uiso   1.00
H1316  H     0.87550   0.33660   0.08990   0.01267  Uiso   1.00
H1317  H     0.41960   0.12890   0.19950   0.01267  Uiso   1.00
H1318  H     0.81020   0.55540   0.30910   0.01267  Uiso   1.00
H1319  H     0.84940   0.71740   0.43020   0.01267  Uiso   1.00
H1320  H     0.95390   0.21570   0.44100   0.01267  Uiso   1.00
H1321  H     0.35710   0.80990   0.02950   0.01267  Uiso   1.00
H1322  H     0.57670   0.81730   0.07800   0.01267  Uiso   1.00
H1323  H     0.69770   0.26070   0.24480   0.01267  Uiso   1.00
H1324  H     0.64370   0.88970   0.68730   0.01267  Uiso   1.00
H1325  H     0.84710   0.92990   0.16970   0.01267  Uiso   1.00
H1326  H     0.27980   0.10190   0.85830   0.01267  Uiso   1.00
H1327  H     0.90810   0.82200   0.76370   0.01267  Uiso   1.00
H1328  H     0.91940   0.49370   0.17300   0.01267  Uiso   1.00
H1329  H     0.81670   0.67570   0.27660   0.01267  Uiso   1.00
H1330  H     0.92200   0.93540   0.31370   0.01267  Uiso   1.00
H1331  H     0.65290   0.83030   0.07010   0.01267  Uiso   1.00
H1332  H     0.92270   0.77040   0.32370   0.01267  Uiso   1.00
H1333  H     0.07250   0.56620   0.60640   0.01267  Uiso   1.00
H1334  H     0.80770   0.95820   0.26520   0.01267  Uiso   1.00
H1335  H     0.44980   0.11090   0.89690   0.01267  Uiso   1.00
H1336  H     0.58030   0.20620   0.39410   0.01267  Uiso   1.00
H1337  H     0.17450   0.62190   0.20120   0.01267  Uiso   1.00
H1338  H     0.58030   0.60590   0.81210   0.01267  Uiso   1.00
H1339  H     0.54610   0.21570   0.77470   0.01267  Uiso   1.00
H1340  H     0.31020   0.69090   0.44460   0.01267  Uiso   1.00
H1341  H     0.50250   0.81980   0.89740   0.01267  Uiso   1.00
H1342  H     0.87560   0.82120   0.71500   0.01267  Uiso   1.00
H1343  H     0.07670   0.81730   0.73930   0.01267  Uiso   1.00
H1344  H     0.53100   0.20340   0.84190   0.01267  Uiso   1.00
H1345  H     0.28780   0.93880   0.71770   0.01267  Uiso   1.00
H1346  H     0.14290   0.21960   0.02950   0.01267  Uiso   1.00
H1347  H     0.14670   0.73820   0.66310   0.01267  Uiso   1.00
H1348  H     0.92060   0.18480   0.40420   0.01267  Uiso   1.00
H1349  H     0.91970   0.43940   0.12080   0.01267  Uiso   1.00
H1350  H     0.06880   0.66110   0.19900   0.01267  Uiso   1.00
H1351  H     0.84940   0.71280   0.28260   0.01267  Uiso   1.00
H1352  H     0.45390   0.55900   0.78430   0.01267  Uiso   1.00
H1353  H     0.17710   0.36320   0.99780   0.01267  Uiso   1.00
H1354  H     0.10010   0.59750   0.59790   0.01267  Uiso   1.00
H1355  H     0.70390   0.03460   0.62950   0.01267  Uiso   1.00
H1356  H     0.71940   0.16340   0.80110   0.01267  Uiso   1.00
H1357  H     0.35710   0.97050   0.78040   0.01267  Uiso   1.00
H1358  H     0.08060   0.67930   0.50630   0.01267  Uiso   1.00
H1359  H     0.63170   0.03090   0.59030   0.01267  Uiso   1.00
H1360  H     0.53220   0.56540   0.83110   0.01267  Uiso   1.00
H1361  H     0.08030   0.60590   0.79380   0.01267  Uiso   1.00
H1362  H     0.95030   0.16590   0.79730   0.01267  Uiso   1.00
H1363  H     0.15630   0.01820   0.42520   0.01267  Uiso   1.00
H1364  H     0.00250   0.81980   0.92240   0.01267  Uiso   1.00
H1365  H     0.19560   0.62950   0.67320   0.01267  Uiso   1.00
H1366  H     0.49750   0.10260   0.92240   0.01267  Uiso   1.00
H1367  H     0.93250   0.37120   0.93020   0.01267  Uiso   1.00
H1368  H     0.95090   0.15880   0.98210   0.01267  Uiso   1.00
H1369  H     0.85150   0.17840   0.93290   0.01267  Uiso   1.00
H1370  H     0.53230   0.16600   0.17600   0.01267  Uiso   1.00
H1371  H     0.96730   0.78120   0.90050   0.01267  Uiso   1.00
H1372  H     0.41970   0.60590   0.81210   0.01267  Uiso   1.00
H1373  H     0.62790   0.67150   0.47840   0.01267  Uiso   1.00
H1374  H     0.36370   0.21810   0.19300   0.01267  Uiso   1.00
H1375  H     0.06880   0.80100   0.46210   0.01267  Uiso   1.00
H1376  H     0.96900   0.20340   0.36150   0.01267  Uiso   1.00
H1377  H     0.35000   0.60930   0.37880   0.01267  Uiso   1.00
H1378  H     0.42060   0.59580   0.81520   0.01267  Uiso   1.00
H1379  H     0.69770   0.75520   0.01590   0.01267  Uiso   1.00
H1380  H     0.36830   0.40970   0.44060   0.01267  Uiso   1.00
H1381  H     0.67510   0.30870   0.39630   0.01267  Uiso   1.00
H1382  H     0.46780   0.56540   0.83110   0.01267  Uiso   1.00
H1383  H     0.08310   0.78700   0.68890   0.01267  Uiso   1.00
H1384  H     0.67710   0.00220   0.63680   0.01267  Uiso   1.00
H1385  H     0.10050   0.40290   0.99830   0.01267  Uiso   1.00
H1386  H     0.04970   0.16590   0.79730   0.01267  Uiso   1.00
H1387  H     0.64540   0.63930   0.87390   0.01267  Uiso   1.00
H1388  H     0.37210   0.52160   0.19310   0.01267  Uiso   1.00
H1389  H     0.09190   0.94170   0.17800   0.01267  Uiso   1.00
H1390  H     0.59250   0.52440   0.22780   0.01267  Uiso   1.00
H1391  H     0.45020   0.11230   0.15550   0.01267  Uiso   1.00
H1392  H     0.08030   0.68140   0.56060   0.01267  Uiso   1.00
H1393  H     0.57670   0.92200   0.73930   0.01267  Uiso   1.00
H1394  H     0.63630   0.97490   0.78190   0.01267  Uiso   1.00
H1395  H     0.54970   0.20270   0.83410   0.01267  Uiso   1.00
H1396  H     0.82290   0.00220   0.36540   0.01267  Uiso   1.00
H1397  H     0.08050   0.80430   0.86260   0.01267  Uiso   1.00
H1398  H     0.04860   0.09080   0.92180   0.01267  Uiso   1.00
H1399  H     0.67710   0.36320   0.36540   0.01267  Uiso   1.00
H1400  H     0.04860   0.83100   0.90920   0.01267  Uiso   1.00
H1401  H     0.90750   0.70340   0.22780   0.01267  Uiso   1.00
H1402  H     0.10050   0.00170   0.40460   0.01267  Uiso   1.00
H1403  H     0.35200   0.10310   0.68910   0.01267  Uiso   1.00
H1404  H     0.96790   0.20440   0.36270   0.01267  Uiso   1.00
H1405  H     0.99890   0.23540   0.39970   0.01267  Uiso   1.00
H1406  H     0.03030   0.77800   0.89870   0.01267  Uiso   1.00
H1407  H     0.92200   0.68630   0.62170   0.01267  Uiso   1.00
H1408  H     0.41970   0.87920   0.56060   0.01267  Uiso   1.00
H1409  H     0.53210   0.63730   0.79560   0.01267  Uiso   1.00
H1410  H     0.80230   0.26070   0.01590   0.01267  Uiso   1.00
H1411  H     0.94980   0.78600   0.89690   0.01267  Uiso   1.00
H1412  H     0.34940   0.71740   0.28720   0.01267  Uiso   1.00
H1413  H     0.14540   0.23460   0.87390   0.01267  Uiso   1.00
H1414  H     0.37550   0.33660   0.24670   0.01267  Uiso   1.00
H1415  H     0.82550   0.62190   0.20120   0.01267  Uiso   1.00
H1416  H     0.34370   0.40700   0.42520   0.01267  Uiso   1.00
H1417  H     0.85200   0.31090   0.89690   0.01267  Uiso   1.00
H1418  H     0.41970   0.20620   0.39410   0.01267  Uiso   1.00
H1419  H     0.45090   0.18670   0.41510   0.01267  Uiso   1.00
H1420  H     0.80770   0.73480   0.69300   0.01267  Uiso   1.00
H1421  H     0.39990   0.59750   0.99960   0.01267  Uiso   1.00
H1422  H     0.58040   0.80050   0.92940   0.01267  Uiso   1.00
H1423  H     0.95030   0.20270   0.36860   0.01267  Uiso   1.00
H1424  H     0.62500   0.54090   0.91530   0.01267  Uiso   1.00
H1425  H     0.59250   0.70340   0.47560   0.01267  Uiso   1.00
H1426  H     0.36370   0.80700   0.02510   0.01267  Uiso   1.00
H1427  H     0.30770   0.30700   0.26520   0.01267  Uiso   1.00
H1428  H     0.07920   0.90360   0.21060   0.01267  Uiso   1.00
H1429  H     0.30230   0.75520   0.01590   0.01267  Uiso   1.00
H1430  H     0.90370   0.10270   0.43570   0.01267  Uiso   1.00
H1431  H     0.57800   0.37830   0.31370   0.01267  Uiso   1.00
H1432  H     0.20390   0.59490   0.62950   0.01267  Uiso   1.00
H1433  H     0.72020   0.10190   0.85830   0.01267  Uiso   1.00
H1434  H     0.91970   0.20620   0.81210   0.01267  Uiso   1.00
H1435  H     0.45090   0.82330   0.98210   0.01267  Uiso   1.00
H1436  H     0.31030   0.81160   0.05740   0.01267  Uiso   1.00
H1437  H     0.79610   0.37050   0.96540   0.01267  Uiso   1.00
H1438  H     0.08060   0.82700   0.32070   0.01267  Uiso   1.00
H1439  H     0.84710   0.83030   0.76020   0.01267  Uiso   1.00
H1440  H     0.12450   0.33660   0.08990   0.01267  Uiso   1.00
H1441  H     0.82490   0.60370   0.69130   0.01267  Uiso   1.00
H1442  H     0.64670   0.73820   0.07510   0.01267  Uiso   1.00
H1443  H     0.03080   0.16770   0.99030   0.01267  Uiso   1.00
H1444  H     0.96920   0.00970   0.17740   0.01267  Uiso   1.00
H1445  H     0.18330   0.72340   0.39910   0.01267  Uiso   1.00
H1446  H     0.84730   0.38670   0.00790   0.01267  Uiso   1.00
H1447  H     0.37500   0.37440   0.45910   0.01267  Uiso   1.00
H1448  H     0.53030   0.10130   0.22200   0.01267  Uiso   1.00
H1449  H     0.04910   0.01790   0.17670   0.01267  Uiso   1.00
H1450  H     0.50130   0.24560   0.45400   0.01267  Uiso   1.00
H1451  H     0.45390   0.21570   0.77470   0.01267  Uiso   1.00
H1452  H     0.88410   0.58980   0.39530   0.01267  Uiso   1.00
H1453  H     0.69230   0.30700   0.26520   0.01267  Uiso   1.00
H1454  H     0.61590   0.58980   0.19450   0.01267  Uiso   1.00
H1455  H     0.15630   0.40700   0.98180   0.01267  Uiso   1.00
H1456  H     0.42330   0.26070   0.18270   0.01267  Uiso   1.00
H1457  H     0.91950   0.13740   0.94170   0.01267  Uiso   1.00
H1458  H     0.80230   0.75520   0.73930   0.01267  Uiso   1.00
H1459  H     0.99890   0.16430   0.76460   0.01267  Uiso   1.00
H1460  H     0.46790   0.20440   0.84170   0.01267  Uiso   1.00
H1461  H     0.29740   0.58310   0.93370   0.01267  Uiso   1.00
H1462  H     0.62790   0.80690   0.32850   0.01267  Uiso   1.00
H1463  H     0.35330   0.33690   0.26180   0.01267  Uiso   1.00
H1464  H     0.62500   0.08470   0.62560   0.01267  Uiso   1.00
H1465  H     0.57920   0.30700   0.21060   0.01267  Uiso   1.00
H1466  H     0.86830   0.40970   0.96910   0.01267  Uiso   1.00
H1467  H     0.59190   0.23630   0.17800   0.01267  Uiso   1.00
H1468  H     0.04720   0.57010   0.74110   0.01267  Uiso   1.00
H1469  H     0.46970   0.10130   0.22200   0.01267  Uiso   1.00
H1470  H     0.96920   0.16770   0.99030   0.01267  Uiso   1.00
H1471  H     0.18980   0.75370   0.44460   0.01267  Uiso   1.00
H1472  H     0.67510   0.60370   0.91240   0.01267  Uiso   1.00
H1473  H     0.30770   0.95820   0.69300   0.01267  Uiso   1.00
H1474  H     0.71940   0.63770   0.83660   0.01267  Uiso   1.00
H1475  H     0.49890   0.60030   0.76460   0.01267  Uiso   1.00
H1476  H     0.21220   0.28230   0.06120   0.01267  Uiso   1.00
H1477  H     0.45090   0.22840   0.81330   0.01267  Uiso   1.00
H1478  H     0.15630   0.57480   0.59300   0.01267  Uiso   1.00
H1479  H     0.31020   0.55540   0.24630   0.01267  Uiso   1.00
H1480  H     0.09250   0.77220   0.47560   0.01267  Uiso   1.00
H1481  H     0.64290   0.80990   0.02950   0.01267  Uiso   1.00
H1482  H     0.40750   0.70340   0.47560   0.01267  Uiso   1.00
H1483  H     0.92330   0.81730   0.73930   0.01267  Uiso   1.00
H1484  H     0.41940   0.49370   0.32070   0.01267  Uiso   1.00
H1485  H     0.92750   0.56620   0.60640   0.01267  Uiso   1.00
H1486  H     0.42200   0.93540   0.62170   0.01267  Uiso   1.00
H1487  H     0.37210   0.80690   0.32850   0.01267  Uiso   1.00
H1488  H     0.81460   0.98590   0.22460   0.01267  Uiso   1.00
H1489  H     0.37500   0.08470   0.62560   0.01267  Uiso   1.00
H1490  H     0.00110   0.23540   0.39970   0.01267  Uiso   1.00
H1491  H     0.64800   0.10310   0.68910   0.01267  Uiso   1.00
H1492  H     0.65270   0.38670   0.37880   0.01267  Uiso   1.00
H1493  H     0.65290   0.23980   0.16970   0.01267  Uiso   1.00
H1494  H     0.19770   0.98410   0.24480   0.01267  Uiso   1.00
H1495  H     0.34940   0.56980   0.28260   0.01267  Uiso   1.00
H1496  H     0.19010   0.91300   0.22840   0.01267  Uiso   1.00
H1497  H     0.45140   0.07820   0.90920   0.01267  Uiso   1.00
H1498  H     0.92750   0.39360   0.95980   0.01267  Uiso   1.00
H1499  H     0.87500   0.37440   0.91530   0.01267  Uiso   1.00
H1500  H     0.08060   0.49370   0.17300   0.01267  Uiso   1.00
H1501  H     0.19560   0.04370   0.37050   0.01267  Uiso   1.00
H1502  H     0.81670   0.72340   0.39910   0.01267  Uiso   1.00
H1503  H     0.89990   0.40210   0.99960   0.01267  Uiso   1.00
H1504  H     0.18330   0.60090   0.32430   0.01267  Uiso   1.00
H1505  H     0.57730   0.55330   0.32370   0.01267  Uiso   1.00
H1506  H     0.49860   0.01810   0.87140   0.01267  Uiso   1.00
H1507  H     0.40810   0.23630   0.17800   0.01267  Uiso   1.00
H1508  H     0.37550   0.91010   0.66340   0.01267  Uiso   1.00
H1509  H     0.84710   0.23980   0.07010   0.01267  Uiso   1.00
H1510  H     0.69590   0.32710   0.36980   0.01267  Uiso   1.00
H1511  H     0.53230   0.82400   0.99000   0.01267  Uiso   1.00
H1512  H     0.34280   0.35460   0.44860   0.01267  Uiso   1.00
H1513  H     0.50250   0.10260   0.92240   0.01267  Uiso   1.00
H1514  H     0.96780   0.16890   0.43460   0.01267  Uiso   1.00
H1515  H     0.57250   0.04020   0.60640   0.01267  Uiso   1.00
H1516  H     0.58040   0.07060   0.87110   0.01267  Uiso   1.00
H1517  H     0.34730   0.62120   0.00790   0.01267  Uiso   1.00
H1518  H     0.62790   0.52160   0.19310   0.01267  Uiso   1.00
H1519  H     0.03270   0.78120   0.90050   0.01267  Uiso   1.00
H1520  H     0.78060   0.16340   0.36230   0.01267  Uiso   1.00
H1521  H     0.35000   0.76950   0.39070   0.01267  Uiso   1.00
H1522  H     0.19770   0.26070   0.01590   0.01267  Uiso   1.00
H1523  H     0.46780   0.16890   0.73430   0.01267  Uiso   1.00
H1524  H     0.91940   0.67930   0.50630   0.01267  Uiso   1.00
H1525  H     0.65630   0.40700   0.42520   0.01267  Uiso   1.00
H1526  H     0.07250   0.39360   0.95980   0.01267  Uiso   1.00
H1527  H     0.90120   0.56120   0.66320   0.01267  Uiso   1.00
H1528  H     0.57800   0.93540   0.62170   0.01267  Uiso   1.00
H1529  H     0.19010   0.31540   0.08700   0.01267  Uiso   1.00
H1530  H     0.58060   0.67930   0.17300   0.01267  Uiso   1.00
H1531  H     0.12440   0.28500   0.10620   0.01267  Uiso   1.00
H1532  H     0.65720   0.09400   0.64540   0.01267  Uiso   1.00
H1533  H     0.30770   0.73480   0.04180   0.01267  Uiso   1.00
H1534  H     0.96770   0.82400   0.83400   0.01267  Uiso   1.00
H1535  H     0.90810   0.94170   0.17800   0.01267  Uiso   1.00
H1536  H     0.15720   0.09400   0.44860   0.01267  Uiso   1.00
H1537  H     0.65060   0.71280   0.43020   0.01267  Uiso   1.00
H1538  H     0.05020   0.10310   0.88910   0.01267  Uiso   1.00
H1539  H     0.85630   0.31270   0.11030   0.01267  Uiso   1.00
H1540  H     0.65630   0.01820   0.59300   0.01267  Uiso   1.00
H1541  H     0.21940   0.16340   0.36230   0.01267  Uiso   1.00
H1542  H     0.08030   0.18790   0.39410   0.01267  Uiso   1.00
H1543  H     0.78780   0.77890   0.71770   0.01267  Uiso   1.00
H1544  H     0.54860   0.07820   0.90920   0.01267  Uiso   1.00
H1545  H     0.53220   0.16890   0.73430   0.01267  Uiso   1.00
H1546  H     0.15270   0.99210   0.37880   0.01267  Uiso   1.00
H1547  H     0.99860   0.85330   0.87140   0.01267  Uiso   1.00
H1548  H     0.95090   0.01790   0.17670   0.01267  Uiso   1.00
H1549  H     0.38410   0.58980   0.19450   0.01267  Uiso   1.00
H1550  H     0.91970   0.68140   0.56060   0.01267  Uiso   1.00
H1551  H     0.63170   0.55940   0.96910   0.01267  Uiso   1.00
H1552  H     0.95090   0.82330   0.84120   0.01267  Uiso   1.00
H1553  H     0.46970   0.77800   0.87930   0.01267  Uiso   1.00
H1554  H     0.69230   0.73480   0.04180   0.01267  Uiso   1.00
H1555  H     0.58040   0.12890   0.19950   0.01267  Uiso   1.00
H1556  H     0.84730   0.99210   0.37880   0.01267  Uiso   1.00
H1557  H     0.91960   0.07060   0.19950   0.01267  Uiso   1.00
H1558  H     0.79610   0.59490   0.62950   0.01267  Uiso   1.00
H1559  H     0.84370   0.57480   0.59300   0.01267  Uiso   1.00
H1560  H     0.29740   0.35060   0.41690   0.01267  Uiso   1.00
H1561  H     0.40750   0.77220   0.29660   0.01267  Uiso   1.00
H1562  H     0.19060   0.95580   0.26600   0.01267  Uiso   1.00
H1563  H     0.50110   0.23540   0.83570   0.01267  Uiso   1.00
H1564  H     0.56750   0.06980   0.62880   0.01267  Uiso   1.00
H1565  H     0.54860   0.09080   0.16900   0.01267  Uiso   1.00
H1566  H     0.70390   0.59490   0.96540   0.01267  Uiso   1.00
H1567  H     0.44980   0.78600   0.88910   0.01267  Uiso   1.00
H1568  H     0.71940   0.19890   0.36230   0.01267  Uiso   1.00
H1569  H     0.30440   0.32680   0.37050   0.01267  Uiso   1.00
H1570  H     0.15290   0.83030   0.76020   0.01267  Uiso   1.00
H1571  H     0.50140   0.12860   0.14670   0.01267  Uiso   1.00
H1572  H     0.65720   0.55140   0.90600   0.01267  Uiso   1.00
H1573  H     0.00110   0.60030   0.83570   0.01267  Uiso   1.00
H1574  H     0.54970   0.63140   0.79730   0.01267  Uiso   1.00
H1575  H     0.09250   0.52440   0.29660   0.01267  Uiso   1.00
H1576  H     0.80230   0.98410   0.24480   0.01267  Uiso   1.00
H1577  H     0.60050   0.59540   0.99830   0.01267  Uiso   1.00
H1578  H     0.10010   0.00040   0.40250   0.01267  Uiso   1.00
H1579  H     0.91970   0.87920   0.31860   0.01267  Uiso   1.00
H1580  H     0.85330   0.73820   0.66310   0.01267  Uiso   1.00
H1581  H     0.31460   0.77540   0.01410   0.01267  Uiso   1.00
H1582  H     0.85000   0.76950   0.37880   0.01267  Uiso   1.00
H1583  H     0.18540   0.77540   0.76130   0.01267  Uiso   1.00
H1584  H     0.53270   0.11930   0.90050   0.01267  Uiso   1.00
H1585  H     0.03230   0.16600   0.99000   0.01267  Uiso   1.00
H1586  H     0.41970   0.18790   0.79380   0.01267  Uiso   1.00
H1587  H     0.57800   0.68630   0.06460   0.01267  Uiso   1.00
H1588  H     0.62450   0.91010   0.66340   0.01267  Uiso   1.00
H1589  H     0.61590   0.80550   0.39530   0.01267  Uiso   1.00
H1590  H     0.93120   0.53790   0.33890   0.01267  Uiso   1.00
H1591  H     0.45020   0.84450   0.95680   0.01267  Uiso   1.00
H1592  H     0.80940   0.95580   0.26600   0.01267  Uiso   1.00
H1593  H     0.19590   0.32710   0.95730   0.01267  Uiso   1.00
H1594  H     0.86370   0.97490   0.19300   0.01267  Uiso   1.00
H1595  H     0.67710   0.63460   0.99780   0.01267  Uiso   1.00
H1596  H     0.40120   0.33680   0.43880   0.01267  Uiso   1.00
H1597  H     0.77980   0.10190   0.24360   0.01267  Uiso   1.00
H1598  H     0.69010   0.91300   0.68460   0.01267  Uiso   1.00
H1599  H     0.70260   0.35060   0.41690   0.01267  Uiso   1.00
H1600  H     0.90120   0.10200   0.43880   0.01267  Uiso   1.00
H1601  H     0.09630   0.33300   0.89730   0.01267  Uiso   1.00
H1602  H     0.08030   0.43940   0.12080   0.01267  Uiso   1.00
H1603  H     0.69060   0.31020   0.26600   0.01267  Uiso   1.00
H1604  H     0.63630   0.80700   0.02510   0.01267  Uiso   1.00
H1605  H     0.44980   0.10310   0.21400   0.01267  Uiso   1.00
H1606  H     0.87210   0.80690   0.47840   0.01267  Uiso   1.00
H1607  H     0.14850   0.06710   0.24550   0.01267  Uiso   1.00
H1608  H     0.88410   0.60470   0.19450   0.01267  Uiso   1.00
H1609  H     0.90120   0.33680   0.89800   0.01267  Uiso   1.00
H1610  H     0.45140   0.83100   0.92180   0.01267  Uiso   1.00
H1611  H     0.53100   0.63850   0.79660   0.01267  Uiso   1.00
H1612  H     0.11590   0.60470   0.19450   0.01267  Uiso   1.00
H1613  H     0.57670   0.26070   0.18270   0.01267  Uiso   1.00
H1614  H     0.53090   0.26650   0.43380   0.01267  Uiso   1.00
H1615  H     0.35150   0.17840   0.24550   0.01267  Uiso   1.00
H1616  H     0.63170   0.40970   0.44060   0.01267  Uiso   1.00
H1617  H     0.91950   0.05830   0.19570   0.01267  Uiso   1.00
H1618  H     0.92080   0.30700   0.09640   0.01267  Uiso   1.00
H1619  H     0.64800   0.58600   0.89690   0.01267  Uiso   1.00
H1620  H     0.58060   0.82700   0.50630   0.01267  Uiso   1.00
H1621  H     0.07730   0.77040   0.32370   0.01267  Uiso   1.00
H1622  H     0.65290   0.92990   0.76020   0.01267  Uiso   1.00
H1623  H     0.41940   0.67930   0.17300   0.01267  Uiso   1.00
H1624  H     0.05020   0.11090   0.21400   0.01267  Uiso   1.00
H1625  H     0.57250   0.56620   0.95980   0.01267  Uiso   1.00
H1626  H     0.22020   0.14170   0.89810   0.01267  Uiso   1.00
H1627  H     0.78060   0.19890   0.83660   0.01267  Uiso   1.00
H1628  H     0.14290   0.97050   0.19010   0.01267  Uiso   1.00
H1629  H     0.32290   0.36320   0.36540   0.01267  Uiso   1.00
H1630  H     0.42200   0.68630   0.06460   0.01267  Uiso   1.00
H1631  H     0.58030   0.43940   0.31860   0.01267  Uiso   1.00
H1632  H     0.57920   0.78940   0.09640   0.01267  Uiso   1.00
H1633  H     0.64800   0.31090   0.41400   0.01267  Uiso   1.00
H1634  H     0.39990   0.00040   0.59790   0.01267  Uiso   1.00
H1635  H     0.42750   0.04020   0.60640   0.01267  Uiso   1.00
H1636  H     0.03210   0.20440   0.36270   0.01267  Uiso   1.00
H1637  H     0.34370   0.57480   0.98180   0.01267  Uiso   1.00
H1638  H     0.21220   0.77890   0.71770   0.01267  Uiso   1.00
H1639  H     0.08040   0.12890   0.92940   0.01267  Uiso   1.00
H1640  H     0.27980   0.14170   0.24360   0.01267  Uiso   1.00
H1641  H     0.12500   0.37440   0.91530   0.01267  Uiso   1.00
H1642  H     0.53100   0.15810   0.36150   0.01267  Uiso   1.00
H1643  H     0.58310   0.31110   0.21300   0.01267  Uiso   1.00
H1644  H     0.18970   0.24580   0.05740   0.01267  Uiso   1.00
H1645  H     0.28780   0.77890   0.06120   0.01267  Uiso   1.00
H1646  H     0.03220   0.56540   0.73430   0.01267  Uiso   1.00
H1647  H     0.03090   0.56620   0.73350   0.01267  Uiso   1.00
H1648  H     0.81030   0.94260   0.18840   0.01267  Uiso   1.00
H1649  H     0.15000   0.60930   0.23050   0.01267  Uiso   1.00
H1650  H     0.42750   0.56620   0.95980   0.01267  Uiso   1.00
H1651  H     0.12450   0.75330   0.66340   0.01267  Uiso   1.00
H1652  H     0.68540   0.23870   0.22460   0.01267  Uiso   1.00
H1653  H     0.31670   0.72340   0.32430   0.01267  Uiso   1.00
H1654  H     0.72020   0.14170   0.24360   0.01267  Uiso   1.00
H1655  H     0.08310   0.90190   0.21300   0.01267  Uiso   1.00
H1656  H     0.68980   0.69090   0.44460   0.01267  Uiso   1.00
H1657  H     0.85000   0.60930   0.23050   0.01267  Uiso   1.00
H1658  H     0.30440   0.62950   0.95630   0.01267  Uiso   1.00
H1659  H     0.00140   0.12860   0.98190   0.01267  Uiso   1.00
H1660  H     0.96970   0.10130   0.87930   0.01267  Uiso   1.00
H1661  H     0.68330   0.67570   0.39910   0.01267  Uiso   1.00
H1662  H     0.68970   0.81160   0.05740   0.01267  Uiso   1.00
H1663  H     0.99860   0.01810   0.14670   0.01267  Uiso   1.00
H1664  H     0.45030   0.16590   0.36860   0.01267  Uiso   1.00
H1665  H     0.20260   0.35060   0.93370   0.01267  Uiso   1.00
H1666  H     0.18330   0.67570   0.27660   0.01267  Uiso   1.00
H1667  H     0.89950   0.40290   0.99830   0.01267  Uiso   1.00
H1668  H     0.29610   0.59490   0.96540   0.01267  Uiso   1.00
H1669  H     0.85710   0.97050   0.19010   0.01267  Uiso   1.00
H1670  H     0.57940   0.59580   0.81520   0.01267  Uiso   1.00
H1671  H     0.59630   0.33300   0.43570   0.01267  Uiso   1.00
H1672  H     0.54910   0.18670   0.41510   0.01267  Uiso   1.00
H1673  H     0.87500   0.54090   0.62560   0.01267  Uiso   1.00
H1674  H     0.41950   0.80430   0.94170   0.01267  Uiso   1.00
H1675  H     0.13630   0.97490   0.19300   0.01267  Uiso   1.00
H1676  H     0.30940   0.31020   0.26600   0.01267  Uiso   1.00
H1677  H     0.99870   0.24560   0.79160   0.01267  Uiso   1.00
H1678  H     0.99750   0.07760   0.89740   0.01267  Uiso   1.00
H1679  H     0.84280   0.55140   0.64540   0.01267  Uiso   1.00
H1680  H     0.68540   0.98590   0.76130   0.01267  Uiso   1.00
H1681  H     0.92060   0.59580   0.78060   0.01267  Uiso   1.00
H1682  H     0.96770   0.01000   0.17600   0.01267  Uiso   1.00
H1683  H     0.22020   0.10190   0.24360   0.01267  Uiso   1.00
H1684  H     0.60010   0.40210   0.40250   0.01267  Uiso   1.00
H1685  H     0.71220   0.28230   0.22110   0.01267  Uiso   1.00
H1686  H     0.99860   0.12860   0.98190   0.01267  Uiso   1.00
H1687  H     0.80440   0.32680   0.95630   0.01267  Uiso   1.00
H1688  H     0.04970   0.63140   0.83410   0.01267  Uiso   1.00
H1689  H     0.84370   0.01820   0.42520   0.01267  Uiso   1.00
H1690  H     0.39950   0.40290   0.40460   0.01267  Uiso   1.00
H1691  H     0.95020   0.04320   0.15550   0.01267  Uiso   1.00
H1692  H     0.31460   0.98590   0.76130   0.01267  Uiso   1.00
H1693  H     0.80770   0.30700   0.04180   0.01267  Uiso   1.00
H1694  H     0.82550   0.57930   0.37810   0.01267  Uiso   1.00
H1695  H     0.30990   0.91300   0.68460   0.01267  Uiso   1.00
H1696  H     0.46730   0.78120   0.88070   0.01267  Uiso   1.00
H1697  H     0.04980   0.84450   0.88770   0.01267  Uiso   1.00
H1698  H     0.15060   0.56980   0.28720   0.01267  Uiso   1.00
H1699  H     0.46770   0.01000   0.83400   0.01267  Uiso   1.00
H1700  H     0.00250   0.10260   0.18020   0.01267  Uiso   1.00
H1701  H     0.96790   0.15830   0.79560   0.01267  Uiso   1.00
H1702  H     0.65060   0.56980   0.28260   0.01267  Uiso   1.00
H1703  H     0.19230   0.95820   0.26520   0.01267  Uiso   1.00
H1704  H     0.65270   0.62120   0.00790   0.01267  Uiso   1.00
H1705  H     0.65060   0.71740   0.28720   0.01267  Uiso   1.00
H1706  H     0.71220   0.77890   0.06120   0.01267  Uiso   1.00
H1707  H     0.65000   0.60930   0.37880   0.01267  Uiso   1.00
H1708  H     0.40810   0.82200   0.05830   0.01267  Uiso   1.00
H1709  H     0.03220   0.26570   0.83110   0.01267  Uiso   1.00
H1710  H     0.42080   0.78940   0.09640   0.01267  Uiso   1.00
H1711  H     0.14800   0.58600   0.68910   0.01267  Uiso   1.00
H1712  H     0.35460   0.23460   0.36070   0.01267  Uiso   1.00
H1713  H     0.60010   0.00040   0.59790   0.01267  Uiso   1.00
H1714  H     0.15290   0.23980   0.07010   0.01267  Uiso   1.00
H1715  H     0.30990   0.31540   0.22840   0.01267  Uiso   1.00
H1716  H     0.92080   0.90360   0.21060   0.01267  Uiso   1.00
H1717  H     0.20260   0.06630   0.41690   0.01267  Uiso   1.00
H1718  H     0.85460   0.63930   0.76540   0.01267  Uiso   1.00
H1719  H     0.08030   0.87920   0.31860   0.01267  Uiso   1.00
H1720  H     0.81030   0.81160   0.75420   0.01267  Uiso   1.00
H1721  H     0.85200   0.10310   0.41400   0.01267  Uiso   1.00
H1722  H     0.90810   0.23630   0.05830   0.01267  Uiso   1.00
H1723  H     0.35330   0.73820   0.07510   0.01267  Uiso   1.00
H1724  H     0.81030   0.24580   0.05740   0.01267  Uiso   1.00
H1725  H     0.46730   0.11930   0.90050   0.01267  Uiso   1.00
H1726  H     0.95090   0.18670   0.77160   0.01267  Uiso   1.00
H1727  H     0.29610   0.37050   0.40510   0.01267  Uiso   1.00
H1728  H     0.95280   0.57010   0.74110   0.01267  Uiso   1.00
H1729  H     0.92060   0.21940   0.81520   0.01267  Uiso   1.00
H1730  H     0.13630   0.80700   0.78190   0.01267  Uiso   1.00
H1731  H     0.55020   0.78600   0.88910   0.01267  Uiso   1.00
H1732  H     0.30940   0.95580   0.68980   0.01267  Uiso   1.00
H1733  H     0.00130   0.24560   0.79160   0.01267  Uiso   1.00
H1734  H     0.95280   0.17100   0.42990   0.01267  Uiso   1.00
H1735  H     0.80440   0.62950   0.67320   0.01267  Uiso   1.00
H1736  H     0.64370   0.79760   0.11030   0.01267  Uiso   1.00
H1737  H     0.53080   0.00970   0.83230   0.01267  Uiso   1.00
H1738  H     0.30940   0.73400   0.04420   0.01267  Uiso   1.00
H1739  H     0.58310   0.78700   0.09810   0.01267  Uiso   1.00
H1740  H     0.31030   0.24580   0.18840   0.01267  Uiso   1.00
H1741  H     0.54910   0.82330   0.98210   0.01267  Uiso   1.00
H1742  H     0.41940   0.82700   0.50630   0.01267  Uiso   1.00
H1743  H     0.31460   0.23870   0.22460   0.01267  Uiso   1.00
H1744  H     0.15720   0.55140   0.64540   0.01267  Uiso   1.00
H1745  H     0.42330   0.81730   0.07800   0.01267  Uiso   1.00
H1746  H     0.04910   0.18670   0.77160   0.01267  Uiso   1.00
H1747  H     0.95140   0.09080   0.92180   0.01267  Uiso   1.00
H1748  H     0.80990   0.77160   0.68460   0.01267  Uiso   1.00
H1749  H     0.32490   0.60370   0.91240   0.01267  Uiso   1.00
H1750  H     0.95280   0.25890   0.82900   0.01267  Uiso   1.00
H1751  H     0.45090   0.58490   0.77160   0.01267  Uiso   1.00
H1752  H     0.96790   0.63730   0.84170   0.01267  Uiso   1.00
H1753  H     0.58030   0.87920   0.56060   0.01267  Uiso   1.00
H1754  H     0.17710   0.00220   0.36540   0.01267  Uiso   1.00
H1755  H     0.87560   0.28500   0.10620   0.01267  Uiso   1.00
H1756  H     0.90750   0.52440   0.29660   0.01267  Uiso   1.00
H1757  H     0.04910   0.15880   0.98210   0.01267  Uiso   1.00
H1758  H     0.00140   0.85330   0.87140   0.01267  Uiso   1.00
H1759  H     0.95020   0.11230   0.95680   0.01267  Uiso   1.00
H1760  H     0.58050   0.05830   0.86260   0.01267  Uiso   1.00
H1761  H     0.64290   0.97050   0.78040   0.01267  Uiso   1.00
H1762  H     0.96910   0.56620   0.73350   0.01267  Uiso   1.00
H1763  H     0.87550   0.75330   0.66340   0.01267  Uiso   1.00
H1764  H     0.64540   0.12610   0.76540   0.01267  Uiso   1.00
H1765  H     0.20390   0.37050   0.96540   0.01267  Uiso   1.00
H1766  H     0.84730   0.62120   0.61330   0.01267  Uiso   1.00
H1767  H     0.45140   0.09080   0.16900   0.01267  Uiso   1.00
H1768  H     0.07920   0.78940   0.69300   0.01267  Uiso   1.00
H1769  H     0.68970   0.24580   0.18840   0.01267  Uiso   1.00
H1770  H     0.00130   0.54600   0.75440   0.01267  Uiso   1.00
H1771  H     0.91950   0.80430   0.86260   0.01267  Uiso   1.00
H1772  H     0.19230   0.73480   0.69300   0.01267  Uiso   1.00
H1773  H     0.41690   0.90190   0.68890   0.01267  Uiso   1.00
H1774  H     0.96900   0.63850   0.84190   0.01267  Uiso   1.00
H1775  H     0.30990   0.77160   0.08700   0.01267  Uiso   1.00
H1776  H     0.12440   0.89380   0.17880   0.01267  Uiso   1.00
H1777  H     0.82550   0.79880   0.42070   0.01267  Uiso   1.00
H1778  H     0.32290   0.63460   0.99780   0.01267  Uiso   1.00
H1779  H     0.85460   0.23460   0.87390   0.01267  Uiso   1.00
H1780  H     0.46900   0.20340   0.84190   0.01267  Uiso   1.00
H1781  H     0.90370   0.56430   0.66700   0.01267  Uiso   1.00
H1782  H     0.85150   0.06710   0.24550   0.01267  Uiso   1.00
H1783  H     0.53030   0.77800   0.87930   0.01267  Uiso   1.00
H1784  H     0.13170   0.55940   0.59030   0.01267  Uiso   1.00
H1785  H     0.91690   0.78700   0.68890   0.01267  Uiso   1.00
H1786  H     0.06750   0.06980   0.44100   0.01267  Uiso   1.00
H1787  H     0.12500   0.54090   0.62560   0.01267  Uiso   1.00
H1788  H     0.54980   0.84450   0.95680   0.01267  Uiso   1.00
H1789  H     0.92330   0.92200   0.18270   0.01267  Uiso   1.00
H1790  H     0.58060   0.49370   0.32070   0.01267  Uiso   1.00
H1791  H     0.43120   0.66110   0.46210   0.01267  Uiso   1.00
H1792  H     0.14370   0.79760   0.68730   0.01267  Uiso   1.00
H1793  H     0.42330   0.92200   0.73930   0.01267  Uiso   1.00
H1794  H     0.54610   0.55900   0.78430   0.01267  Uiso   1.00
H1795  H     0.19010   0.77160   0.68460   0.01267  Uiso   1.00
H1796  H     0.45090   0.01790   0.84120   0.01267  Uiso   1.00
H1797  H     0.04610   0.21570   0.44100   0.01267  Uiso   1.00
H1798  H     0.59880   0.56120   0.89800   0.01267  Uiso   1.00
H1799  H     0.40120   0.56120   0.89800   0.01267  Uiso   1.00
H1800  H     0.07670   0.26070   0.07800   0.01267  Uiso   1.00
H1801  H     0.58050   0.13740   0.19570   0.01267  Uiso   1.00
H1802  H     0.13170   0.40970   0.96910   0.01267  Uiso   1.00
H1803  H     0.53210   0.15830   0.36270   0.01267  Uiso   1.00
H1804  H     0.56880   0.53790   0.19900   0.01267  Uiso   1.00
H1805  H     0.08310   0.31110   0.09810   0.01267  Uiso   1.00
H1806  H     0.37560   0.89380   0.71500   0.01267  Uiso   1.00
H1807  H     0.53270   0.78120   0.88070   0.01267  Uiso   1.00
H1808  H     0.59630   0.56430   0.89730   0.01267  Uiso   1.00
H1809  H     0.86830   0.03090   0.44060   0.01267  Uiso   1.00
H1810  H     0.04980   0.11230   0.95680   0.01267  Uiso   1.00
H1811  H     0.95030   0.63140   0.83410   0.01267  Uiso   1.00
H1812  H     0.69590   0.04270   0.67290   0.01267  Uiso   1.00
H1813  H     0.08040   0.07060   0.19950   0.01267  Uiso   1.00
H1814  H     0.54910   0.22840   0.81330   0.01267  Uiso   1.00
H1815  H     0.46970   0.12070   0.89870   0.01267  Uiso   1.00
H1816  H     0.40120   0.10200   0.66320   0.01267  Uiso   1.00
H1817  H     0.40370   0.10270   0.66700   0.01267  Uiso   1.00
H1818  H     0.93120   0.66110   0.19900   0.01267  Uiso   1.00
H1819  H     0.19060   0.73400   0.68980   0.01267  Uiso   1.00
H1820  H     0.46920   0.16770   0.17740   0.01267  Uiso   1.00
H1821  H     0.08030   0.20620   0.81210   0.01267  Uiso   1.00
H1822  H     0.39950   0.00170   0.59710   0.01267  Uiso   1.00
H1823  H     0.46730   0.09950   0.21880   0.01267  Uiso   1.00
H1824  H     0.96970   0.12070   0.22200   0.01267  Uiso   1.00
H1825  H     0.95140   0.07820   0.16900   0.01267  Uiso   1.00
H1826  H     0.14540   0.63930   0.76540   0.01267  Uiso   1.00
H1827  H     0.35460   0.63930   0.87390   0.01267  Uiso   1.00
H1828  H     0.43120   0.53790   0.19900   0.01267  Uiso   1.00
H1829  H     0.96730   0.09950   0.88070   0.01267  Uiso   1.00
H1830  H     0.50110   0.16430   0.39970   0.01267  Uiso   1.00
H1831  H     0.09880   0.10200   0.43880   0.01267  Uiso   1.00
H1832  H     0.49890   0.23540   0.83570   0.01267  Uiso   1.00
H1833  H     0.54980   0.04320   0.88770   0.01267  Uiso   1.00
H1834  H     0.45280   0.57010   0.82900   0.01267  Uiso   1.00
H1835  H     0.35460   0.12610   0.76540   0.01267  Uiso   1.00
H1836  H     0.42060   0.21940   0.40420   0.01267  Uiso   1.00
H1837  H     0.45390   0.22530   0.44100   0.01267  Uiso   1.00
H1838  H     0.93120   0.80100   0.46210   0.01267  Uiso   1.00
H1839  H     0.07920   0.30700   0.09640   0.01267  Uiso   1.00
H1840  H     0.43250   0.06980   0.62880   0.01267  Uiso   1.00
C469   C     0.16530   0.24240   0.03680   0.01267  Uiso   1.00
C470   C     0.64210   0.62080   0.40660   0.01267  Uiso   1.00
C471   C     0.66050   0.21530   0.33690   0.01267  Uiso   1.00
C472   C     0.89930   0.67560   0.21240   0.01267  Uiso   1.00
C473   C     0.36700   0.09040   0.66280   0.01267  Uiso   1.00
C474   C     0.67960   0.33280   0.39540   0.01267  Uiso   1.00
C475   C     0.29460   0.10830   0.84020   0.01267  Uiso   1.00
C476   C     0.50000   0.16960   0.37810   0.01267  Uiso   1.00
C477   C     0.00000   0.06570   0.20290   0.01267  Uiso   1.00
C478   C     0.04720   0.58050   0.76930   0.01267  Uiso   1.00
C479   C     0.54500   0.67650   0.21750   0.01267  Uiso   1.00
C480   C     0.79500   0.14460   0.33800   0.01267  Uiso   1.00
C481   C     0.33200   0.93430   0.68670   0.01267  Uiso   1.00
C482   C     0.00000   0.87290   0.31960   0.01267  Uiso   1.00
C483   C     0.54910   0.60710   0.79820   0.01267  Uiso   1.00
C484   C     0.36530   0.39040   0.40220   0.01267  Uiso   1.00
C485   C     0.13160   0.94870   0.22650   0.01267  Uiso   1.00
C486   C     0.10020   0.91400   0.19710   0.01267  Uiso   1.00
C487   C     0.12070   0.76090   0.42220   0.01267  Uiso   1.00
C488   C     0.89980   0.91400   0.19710   0.01267  Uiso   1.00
C489   C     0.62650   0.35170   0.39950   0.01267  Uiso   1.00
C490   C     0.68850   0.75930   0.04170   0.01267  Uiso   1.00
C491   C     0.45500   0.78250   0.45900   0.01267  Uiso   1.00
C492   C     0.45090   0.80430   0.91710   0.01267  Uiso   1.00
C493   C     0.63300   0.33720   0.42760   0.01267  Uiso   1.00
C494   C     0.95080   0.81920   0.86360   0.01267  Uiso   1.00
C495   C     0.60590   0.39290   0.42100   0.01267  Uiso   1.00
C496   C     0.04910   0.08290   0.19570   0.01267  Uiso   1.00
C497   C     0.33950   0.21530   0.33690   0.01267  Uiso   1.00
C498   C     0.60020   0.91400   0.71690   0.01267  Uiso   1.00
C499   C     0.42510   0.60330   0.26530   0.01267  Uiso   1.00
C500   C     0.60160   0.56290   0.92100   0.01267  Uiso   1.00
C501   C     0.50000   0.10060   0.20620   0.01267  Uiso   1.00
C502   C     0.87220   0.23960   0.05120   0.01267  Uiso   1.00
C503   C     0.04910   0.80430   0.88720   0.01267  Uiso   1.00
C504   C     0.29500   0.66200   0.85540   0.01267  Uiso   1.00
C505   C     0.95440   0.68500   0.60910   0.01267  Uiso   1.00
C506   C     0.09410   0.27650   0.01940   0.01267  Uiso   1.00
C507   C     0.42510   0.66200   0.39670   0.01267  Uiso   1.00
C508   C     0.04910   0.11280   0.91710   0.01267  Uiso   1.00
C509   C     0.86840   0.77350   0.72220   0.01267  Uiso   1.00
C510   C     0.83950   0.66310   0.78470   0.01267  Uiso   1.00
C511   C     0.11970   0.77830   0.68740   0.01267  Uiso   1.00
C512   C     0.68850   0.28240   0.24070   0.01267  Uiso   1.00
C513   C     0.32040   0.60460   0.93740   0.01267  Uiso   1.00
C514   C     0.50000   0.44670   0.31960   0.01267  Uiso   1.00
C515   C     0.95090   0.60710   0.80890   0.01267  Uiso   1.00
C516   C     0.50000   0.07060   0.82620   0.01267  Uiso   1.00
C517   C     0.16800   0.31330   0.06570   0.01267  Uiso   1.00
C518   C     0.33760   0.08720   0.81770   0.01267  Uiso   1.00
C519   C     0.66530   0.79440   0.03680   0.01267  Uiso   1.00
C520   C     0.54910   0.19110   0.39290   0.01267  Uiso   1.00
C521   C     0.60070   0.67560   0.46320   0.01267  Uiso   1.00
C522   C     0.83470   0.24240   0.03680   0.01267  Uiso   1.00
C523   C     0.87930   0.66130   0.23910   0.01267  Uiso   1.00
C524   C     0.45260   0.68210   0.10970   0.01267  Uiso   1.00
C525   C     0.83760   0.08720   0.26950   0.01267  Uiso   1.00
C526   C     0.14210   0.62080   0.21420   0.01267  Uiso   1.00
C527   C     0.60160   0.35810   0.43710   0.01267  Uiso   1.00
C528   C     0.39980   0.28310   0.19710   0.01267  Uiso   1.00
C529   C     0.62650   0.04780   0.64830   0.01267  Uiso   1.00
C530   C     0.62650   0.60050   0.95220   0.01267  Uiso   1.00
C531   C     0.38030   0.31260   0.22170   0.01267  Uiso   1.00
C532   C     0.27260   0.13910   0.83660   0.01267  Uiso   1.00
C533   C     0.00000   0.22190   0.86240   0.01267  Uiso   1.00
C534   C     0.89980   0.80290   0.71690   0.01267  Uiso   1.00
C535   C     0.14210   0.78580   0.40660   0.01267  Uiso   1.00
C536   C     0.54500   0.54100   0.32350   0.01267  Uiso   1.00
C537   C     0.81150   0.75930   0.71760   0.01267  Uiso   1.00
C538   C     0.04910   0.60710   0.80890   0.01267  Uiso   1.00
C539   C     0.00000   0.10060   0.89440   0.01267  Uiso   1.00
C540   C     0.54740   0.42760   0.31790   0.01267  Uiso   1.00
C541   C     0.86530   0.01180   0.40220   0.01267  Uiso   1.00
C542   C     0.29460   0.15980   0.26810   0.01267  Uiso   1.00
C543   C     0.70500   0.14460   0.80660   0.01267  Uiso   1.00
C544   C     0.13300   0.57240   0.66280   0.01267  Uiso   1.00
C545   C     0.04920   0.04440   0.18080   0.01267  Uiso   1.00
C546   C     0.85790   0.59340   0.37920   0.01267  Uiso   1.00
C547   C     0.66800   0.75240   0.06570   0.01267  Uiso   1.00
C548   C     0.86840   0.27780   0.05130   0.01267  Uiso   1.00
C549   C     0.62070   0.76090   0.33870   0.01267  Uiso   1.00
C550   C     0.89980   0.28310   0.08600   0.01267  Uiso   1.00
C551   C     0.86700   0.09040   0.42760   0.01267  Uiso   1.00
C552   C     0.04730   0.81650   0.32160   0.01267  Uiso   1.00
C553   C     0.95090   0.19110   0.79820   0.01267  Uiso   1.00
C554   C     0.10160   0.07900   0.43710   0.01267  Uiso   1.00
C555   C     0.33500   0.57580   0.26320   0.01267  Uiso   1.00
C556   C     0.13300   0.09040   0.42760   0.01267  Uiso   1.00
C557   C     0.54920   0.04440   0.86360   0.01267  Uiso   1.00
C558   C     0.10160   0.56290   0.64190   0.01267  Uiso   1.00
C559   C     0.83200   0.93430   0.24760   0.01267  Uiso   1.00
C560   C     0.37220   0.23960   0.18840   0.01267  Uiso   1.00
C561   C     0.31150   0.95830   0.71760   0.01267  Uiso   1.00
C562   C     0.54730   0.50510   0.32160   0.01267  Uiso   1.00
C563   C     0.87350   0.04780   0.39950   0.01267  Uiso   1.00
C564   C     0.64210   0.78580   0.37920   0.01267  Uiso   1.00
C565   C     0.40590   0.98060   0.72350   0.01267  Uiso   1.00
C566   C     0.83470   0.79440   0.75760   0.01267  Uiso   1.00
C567   C     0.79460   0.15980   0.89170   0.01267  Uiso   1.00
C568   C     0.04740   0.42760   0.10970   0.01267  Uiso   1.00
C569   C     0.38030   0.90910   0.68740   0.01267  Uiso   1.00
C570   C     0.00000   0.10560   0.20620   0.01267  Uiso   1.00
C571   C     0.81930   0.03020   0.38350   0.01267  Uiso   1.00
C572   C     0.45090   0.20180   0.80890   0.01267  Uiso   1.00
C573   C     0.50000   0.15120   0.17310   0.01267  Uiso   1.00
C574   C     0.79500   0.66200   0.80660   0.01267  Uiso   1.00
C575   C     0.50000   0.18150   0.74890   0.01267  Uiso   1.00
C576   C     0.45270   0.67840   0.18350   0.01267  Uiso   1.00
C577   C     0.66500   0.68740   0.42420   0.01267  Uiso   1.00
C578   C     0.10020   0.80290   0.71690   0.01267  Uiso   1.00
C579   C     0.91020   0.04040   0.36470   0.01267  Uiso   1.00
C580   C     0.39410   0.39290   0.42100   0.01267  Uiso   1.00
C581   C     0.35790   0.62080   0.40660   0.01267  Uiso   1.00
C582   C     0.95260   0.89030   0.31790   0.01267  Uiso   1.00
C583   C     0.27260   0.69750   0.86090   0.01267  Uiso   1.00
C584   C     0.83760   0.73050   0.81770   0.01267  Uiso   1.00
C585   C     0.83200   0.31330   0.06570   0.01267  Uiso   1.00
C586   C     0.79500   0.19340   0.85540   0.01267  Uiso   1.00
C587   C     0.29500   0.14460   0.80660   0.01267  Uiso   1.00
C588   C     0.83500   0.68740   0.26320   0.01267  Uiso   1.00
C589   C     0.45500   0.67650   0.21750   0.01267  Uiso   1.00
C590   C     0.54920   0.13640   0.18080   0.01267  Uiso   1.00
C591   C     0.54730   0.81650   0.49490   0.01267  Uiso   1.00
C592   C     0.22740   0.69750   0.83660   0.01267  Uiso   1.00
C593   C     0.82040   0.60460   0.66720   0.01267  Uiso   1.00
C594   C     0.12650   0.04780   0.39950   0.01267  Uiso   1.00
C595   C     0.57490   0.66200   0.39670   0.01267  Uiso   1.00
C596   C     0.36700   0.33720   0.42760   0.01267  Uiso   1.00
C597   C     0.62070   0.66130   0.42220   0.01267  Uiso   1.00
C598   C     0.45440   0.92410   0.60910   0.01267  Uiso   1.00
C599   C     0.95280   0.58050   0.76930   0.01267  Uiso   1.00
C600   C     0.00000   0.44670   0.12710   0.01267  Uiso   1.00
C601   C     0.35790   0.78580   0.37920   0.01267  Uiso   1.00
C602   C     0.39410   0.57900   0.97190   0.01267  Uiso   1.00
C603   C     0.92510   0.73470   0.39670   0.01267  Uiso   1.00
C604   C     0.88030   0.31260   0.09090   0.01267  Uiso   1.00
C605   C     0.45090   0.08290   0.88720   0.01267  Uiso   1.00
C606   C     0.04920   0.13640   0.95560   0.01267  Uiso   1.00
C607   C     0.54910   0.11280   0.19570   0.01267  Uiso   1.00
C608   C     0.50000   0.22190   0.35950   0.01267  Uiso   1.00
C609   C     0.00000   0.20850   0.37810   0.01267  Uiso   1.00
C610   C     0.10070   0.53680   0.32440   0.01267  Uiso   1.00
C611   C     0.04910   0.20180   0.39290   0.01267  Uiso   1.00
C612   C     0.33950   0.12160   0.78470   0.01267  Uiso   1.00
C613   C     0.87930   0.57780   0.33870   0.01267  Uiso   1.00
C614   C     0.37930   0.57780   0.23910   0.01267  Uiso   1.00
C615   C     0.20540   0.15980   0.89170   0.01267  Uiso   1.00
C616   C     0.57490   0.73470   0.33800   0.01267  Uiso   1.00
C617   C     0.36530   0.01180   0.60960   0.01267  Uiso   1.00
C618   C     0.54720   0.58050   0.81120   0.01267  Uiso   1.00
C619   C     0.36840   0.94870   0.72220   0.01267  Uiso   1.00
C620   C     0.16500   0.68740   0.26320   0.01267  Uiso   1.00
C621   C     0.16800   0.93430   0.24760   0.01267  Uiso   1.00
C622   C     0.04560   0.68500   0.60910   0.01267  Uiso   1.00
C623   C     0.45260   0.89030   0.57240   0.01267  Uiso   1.00
C624   C     0.61970   0.31260   0.22170   0.01267  Uiso   1.00
C625   C     0.13470   0.01180   0.40220   0.01267  Uiso   1.00
C626   C     0.16530   0.79440   0.75760   0.01267  Uiso   1.00
C627   C     0.50000   0.13760   0.77810   0.01267  Uiso   1.00
C628   C     0.16240   0.18230   0.91280   0.01267  Uiso   1.00
C629   C     0.87350   0.60050   0.64830   0.01267  Uiso   1.00
C630   C     0.16530   0.96320   0.20560   0.01267  Uiso   1.00
C631   C     0.50000   0.56740   0.81850   0.01267  Uiso   1.00
C632   C     0.31150   0.75930   0.04170   0.01267  Uiso   1.00
C633   C     0.04500   0.67650   0.45900   0.01267  Uiso   1.00
C634   C     0.60020   0.80290   0.08600   0.01267  Uiso   1.00
C635   C     0.32040   0.06260   0.66720   0.01267  Uiso   1.00
C636   C     0.50000   0.68040   0.12710   0.01267  Uiso   1.00
C637   C     0.45080   0.04440   0.86360   0.01267  Uiso   1.00
C638   C     0.89410   0.39290   0.97190   0.01267  Uiso   1.00
C639   C     0.89840   0.35810   0.92100   0.01267  Uiso   1.00
C640   C     0.33200   0.31330   0.24760   0.01267  Uiso   1.00
C641   C     0.00000   0.79380   0.89940   0.01267  Uiso   1.00
C642   C     0.17960   0.60460   0.66720   0.01267  Uiso   1.00
C643   C     0.95080   0.04440   0.18080   0.01267  Uiso   1.00
C644   C     0.33500   0.73680   0.31260   0.01267  Uiso   1.00
C645   C     0.95280   0.18880   0.41950   0.01267  Uiso   1.00
C646   C     0.54500   0.78250   0.45900   0.01267  Uiso   1.00
C647   C     0.45090   0.60710   0.79820   0.01267  Uiso   1.00
C648   C     0.00000   0.07060   0.24440   0.01267  Uiso   1.00
C649   C     0.54740   0.68210   0.10970   0.01267  Uiso   1.00
C650   C     0.16240   0.08720   0.26950   0.01267  Uiso   1.00
C651   C     0.57490   0.60330   0.26530   0.01267  Uiso   1.00
C652   C     0.45270   0.81650   0.49490   0.01267  Uiso   1.00
C653   C     0.54720   0.18880   0.76930   0.01267  Uiso   1.00
C654   C     0.00000   0.13760   0.35950   0.01267  Uiso   1.00
C655   C     0.50000   0.64050   0.86240   0.01267  Uiso   1.00
C656   C     0.95500   0.54100   0.21750   0.01267  Uiso   1.00
C657   C     0.39980   0.91400   0.71690   0.01267  Uiso   1.00
C658   C     0.70540   0.73190   0.89170   0.01267  Uiso   1.00
C659   C     0.45280   0.58050   0.81120   0.01267  Uiso   1.00
C660   C     0.45080   0.81920   0.95560   0.01267  Uiso   1.00
C661   C     0.58980   0.32430   0.36470   0.01267  Uiso   1.00
C662   C     0.22740   0.16340   0.86090   0.01267  Uiso   1.00
C663   C     0.16050   0.21530   0.87840   0.01267  Uiso   1.00
C664   C     0.66050   0.66310   0.87840   0.01267  Uiso   1.00
C665   C     0.04720   0.23070   0.81120   0.01267  Uiso   1.00
C666   C     0.95500   0.67650   0.45900   0.01267  Uiso   1.00
C667   C     0.89930   0.53680   0.32440   0.01267  Uiso   1.00
C668   C     0.86840   0.94870   0.22650   0.01267  Uiso   1.00
C669   C     0.64210   0.59340   0.21420   0.01267  Uiso   1.00
C670   C     0.37930   0.76090   0.33870   0.01267  Uiso   1.00
C671   C     0.41020   0.32430   0.36470   0.01267  Uiso   1.00
C672   C     0.50000   0.48520   0.32100   0.01267  Uiso   1.00
C673   C     0.33470   0.79440   0.03680   0.01267  Uiso   1.00
C674   C     0.58980   0.63530   0.95960   0.01267  Uiso   1.00
C675   C     0.16050   0.12160   0.33690   0.01267  Uiso   1.00
C676   C     0.66530   0.24240   0.20560   0.01267  Uiso   1.00
C677   C     0.45090   0.19110   0.39290   0.01267  Uiso   1.00
C678   C     0.88030   0.77830   0.68740   0.01267  Uiso   1.00
C679   C     0.36700   0.57240   0.90960   0.01267  Uiso   1.00
C680   C     0.37220   0.81160   0.05120   0.01267  Uiso   1.00
C681   C     0.10590   0.57900   0.60710   0.01267  Uiso   1.00
C682   C     0.83950   0.21530   0.87840   0.01267  Uiso   1.00
C683   C     0.11970   0.31260   0.09090   0.01267  Uiso   1.00
C684   C     0.59410   0.27650   0.25710   0.01267  Uiso   1.00
C685   C     0.54740   0.89030   0.57240   0.01267  Uiso   1.00
C686   C     0.37930   0.66130   0.42220   0.01267  Uiso   1.00
C687   C     0.10590   0.39290   0.97190   0.01267  Uiso   1.00
C688   C     0.66240   0.73050   0.91280   0.01267  Uiso   1.00
C689   C     0.89410   0.02810   0.42100   0.01267  Uiso   1.00
C690   C     0.95270   0.67840   0.49490   0.01267  Uiso   1.00
C691   C     0.81150   0.28240   0.04170   0.01267  Uiso   1.00
C692   C     0.09410   0.98060   0.25710   0.01267  Uiso   1.00
C693   C     0.86700   0.33720   0.90960   0.01267  Uiso   1.00
C694   C     0.79460   0.73190   0.84020   0.01267  Uiso   1.00
C695   C     0.95090   0.80430   0.88720   0.01267  Uiso   1.00
C696   C     0.70540   0.10830   0.84020   0.01267  Uiso   1.00
C697   C     0.54910   0.80430   0.91710   0.01267  Uiso   1.00
C698   C     0.95270   0.81650   0.32160   0.01267  Uiso   1.00
C699   C     0.61970   0.90910   0.68740   0.01267  Uiso   1.00
C700   C     0.22740   0.13910   0.30250   0.01267  Uiso   1.00
C701   C     0.14210   0.59340   0.37920   0.01267  Uiso   1.00
C702   C     0.45260   0.42760   0.31790   0.01267  Uiso   1.00
C703   C     0.45090   0.11280   0.19570   0.01267  Uiso   1.00
C704   C     0.95090   0.11280   0.91710   0.01267  Uiso   1.00
C705   C     0.40590   0.74290   0.01940   0.01267  Uiso   1.00
C706   C     0.60590   0.57900   0.97190   0.01267  Uiso   1.00
C707   C     0.33470   0.24240   0.20560   0.01267  Uiso   1.00
C708   C     0.82040   0.06260   0.39540   0.01267  Uiso   1.00
C709   C     0.42510   0.73470   0.33800   0.01267  Uiso   1.00
C710   C     0.45440   0.39090   0.31500   0.01267  Uiso   1.00
C711   C     0.37350   0.04780   0.64830   0.01267  Uiso   1.00
C712   C     0.39930   0.78760   0.32440   0.01267  Uiso   1.00
C713   C     0.18850   0.75930   0.71760   0.01267  Uiso   1.00
C714   C     0.50000   0.60600   0.81900   0.01267  Uiso   1.00
C715   C     0.00000   0.48520   0.16420   0.01267  Uiso   1.00
C716   C     0.95440   0.39090   0.07590   0.01267  Uiso   1.00
C717   C     0.91020   0.32430   0.95960   0.01267  Uiso   1.00
C718   C     0.33950   0.66310   0.87840   0.01267  Uiso   1.00
C719   C     0.00000   0.79710   0.86280   0.01267  Uiso   1.00
C720   C     0.60590   0.02810   0.60710   0.01267  Uiso   1.00
C721   C     0.00000   0.68040   0.55330   0.01267  Uiso   1.00
C722   C     0.04500   0.54100   0.21750   0.01267  Uiso   1.00
C723   C     0.29500   0.19340   0.33800   0.01267  Uiso   1.00
C724   C     0.92510   0.66200   0.26530   0.01267  Uiso   1.00
C725   C     0.45270   0.50510   0.32160   0.01267  Uiso   1.00
C726   C     0.95440   0.92410   0.31500   0.01267  Uiso   1.00
C727   C     0.54730   0.67840   0.18350   0.01267  Uiso   1.00
C728   C     0.66800   0.93430   0.68670   0.01267  Uiso   1.00
C729   C     0.68850   0.95830   0.71760   0.01267  Uiso   1.00
C730   C     0.10160   0.35810   0.92100   0.01267  Uiso   1.00
C731   C     0.39980   0.80290   0.08600   0.01267  Uiso   1.00
C732   C     0.20500   0.19340   0.85540   0.01267  Uiso   1.00
C733   C     0.50000   0.75560   0.92940   0.01267  Uiso   1.00
C734   C     0.60160   0.07900   0.64190   0.01267  Uiso   1.00
C735   C     0.33470   0.96320   0.75760   0.01267  Uiso   1.00
C736   C     0.70500   0.19340   0.33800   0.01267  Uiso   1.00
C737   C     0.00000   0.75560   0.82620   0.01267  Uiso   1.00
C738   C     0.58980   0.04040   0.67570   0.01267  Uiso   1.00
C739   C     0.04500   0.78250   0.32350   0.01267  Uiso   1.00
C740   C     0.31930   0.03020   0.64670   0.01267  Uiso   1.00
C741   C     0.16050   0.66310   0.78470   0.01267  Uiso   1.00
C742   C     0.62780   0.94880   0.76040   0.01267  Uiso   1.00
C743   C     0.16500   0.73680   0.42420   0.01267  Uiso   1.00
C744   C     0.37350   0.35170   0.39950   0.01267  Uiso   1.00
C745   C     0.66500   0.73680   0.31260   0.01267  Uiso   1.00
C746   C     0.17960   0.33280   0.93740   0.01267  Uiso   1.00
C747   C     0.20500   0.14460   0.33800   0.01267  Uiso   1.00
C748   C     0.04920   0.81920   0.86360   0.01267  Uiso   1.00
C749   C     0.54720   0.23070   0.41950   0.01267  Uiso   1.00
C750   C     0.83760   0.18230   0.91280   0.01267  Uiso   1.00
C751   C     0.68070   0.35330   0.38350   0.01267  Uiso   1.00
C752   C     0.63470   0.59780   0.98820   0.01267  Uiso   1.00
C753   C     0.83500   0.73680   0.42420   0.01267  Uiso   1.00
C754   C     0.07490   0.66200   0.26530   0.01267  Uiso   1.00
C755   C     0.17960   0.06260   0.39540   0.01267  Uiso   1.00
C756   C     0.77260   0.16340   0.86090   0.01267  Uiso   1.00
C757   C     0.63160   0.94870   0.72220   0.01267  Uiso   1.00
C758   C     0.00000   0.15120   0.97810   0.01267  Uiso   1.00
C759   C     0.38030   0.77830   0.09090   0.01267  Uiso   1.00
C760   C     0.13470   0.59780   0.60960   0.01267  Uiso   1.00
C761   C     0.72740   0.13910   0.83660   0.01267  Uiso   1.00
C762   C     0.89930   0.78760   0.46320   0.01267  Uiso   1.00
C763   C     0.13300   0.33720   0.90960   0.01267  Uiso   1.00
C764   C     0.12780   0.23960   0.05120   0.01267  Uiso   1.00
C765   C     0.50000   0.02190   0.84880   0.01267  Uiso   1.00
C766   C     0.40590   0.27650   0.25710   0.01267  Uiso   1.00
C767   C     0.10070   0.67560   0.21240   0.01267  Uiso   1.00
C768   C     0.60070   0.78760   0.32440   0.01267  Uiso   1.00
C769   C     0.04910   0.19110   0.79820   0.01267  Uiso   1.00
C770   C     0.68070   0.61650   0.96980   0.01267  Uiso   1.00
C771   C     0.00000   0.21300   0.81900   0.01267  Uiso   1.00
C772   C     0.41020   0.04040   0.67570   0.01267  Uiso   1.00
C773   C     0.95080   0.13640   0.95560   0.01267  Uiso   1.00
C774   C     0.90590   0.74290   0.72350   0.01267  Uiso   1.00
C775   C     0.62780   0.81160   0.05120   0.01267  Uiso   1.00
C776   C     0.86530   0.39040   0.98820   0.01267  Uiso   1.00
C777   C     0.00000   0.17380   0.92940   0.01267  Uiso   1.00
C778   C     0.10070   0.78760   0.46320   0.01267  Uiso   1.00
C779   C     0.60020   0.28310   0.19710   0.01267  Uiso   1.00
C780   C     0.86700   0.57240   0.66280   0.01267  Uiso   1.00
C781   C     0.63470   0.01180   0.60960   0.01267  Uiso   1.00
C782   C     0.36840   0.77350   0.05130   0.01267  Uiso   1.00
C783   C     0.04730   0.50510   0.18350   0.01267  Uiso   1.00
C784   C     0.18850   0.28240   0.04170   0.01267  Uiso   1.00
C785   C     0.59410   0.98060   0.72350   0.01267  Uiso   1.00
C786   C     0.66240   0.18230   0.26950   0.01267  Uiso   1.00
C787   C     0.83200   0.75240   0.68670   0.01267  Uiso   1.00
C788   C     0.60070   0.53680   0.21240   0.01267  Uiso   1.00
C789   C     0.39930   0.67560   0.46320   0.01267  Uiso   1.00
C790   C     0.50000   0.79380   0.89440   0.01267  Uiso   1.00
C791   C     0.31150   0.28240   0.24070   0.01267  Uiso   1.00
C792   C     0.87220   0.81160   0.76040   0.01267  Uiso   1.00
C793   C     0.50000   0.25110   0.43260   0.01267  Uiso   1.00
C794   C     0.39930   0.53680   0.21240   0.01267  Uiso   1.00
C795   C     0.00000   0.18100   0.39400   0.01267  Uiso   1.00
C796   C     0.66240   0.08720   0.81770   0.01267  Uiso   1.00
C797   C     0.18070   0.03020   0.38350   0.01267  Uiso   1.00
C798   C     0.67960   0.06260   0.66720   0.01267  Uiso   1.00
C799   C     0.50000   0.62190   0.79150   0.01267  Uiso   1.00
C800   C     0.63300   0.09040   0.66280   0.01267  Uiso   1.00
C801   C     0.83470   0.96320   0.20560   0.01267  Uiso   1.00
C802   C     0.00000   0.60600   0.78700   0.01267  Uiso   1.00
C803   C     0.18070   0.61650   0.64670   0.01267  Uiso   1.00
C804   C     0.12070   0.66130   0.23910   0.01267  Uiso   1.00
C805   C     0.95270   0.50510   0.18350   0.01267  Uiso   1.00
C806   C     0.33760   0.18230   0.26950   0.01267  Uiso   1.00
C807   C     0.29460   0.73190   0.89170   0.01267  Uiso   1.00
C808   C     0.36840   0.27780   0.22650   0.01267  Uiso   1.00
C809   C     0.50000   0.13720   0.20290   0.01267  Uiso   1.00
C810   C     0.00000   0.62190   0.83040   0.01267  Uiso   1.00
C811   C     0.12650   0.60050   0.64830   0.01267  Uiso   1.00
C812   C     0.50000   0.83580   0.51480   0.01267  Uiso   1.00
C813   C     0.50000   0.87290   0.55330   0.01267  Uiso   1.00
C814   C     0.39840   0.07900   0.64190   0.01267  Uiso   1.00
C815   C     0.00000   0.83580   0.32100   0.01267  Uiso   1.00
C816   C     0.50000   0.21300   0.39400   0.01267  Uiso   1.00
C817   C     0.59410   0.74290   0.01940   0.01267  Uiso   1.00
C818   C     0.87350   0.35170   0.95220   0.01267  Uiso   1.00
C819   C     0.00000   0.56740   0.74890   0.01267  Uiso   1.00
C820   C     0.50000   0.18100   0.78700   0.01267  Uiso   1.00
C821   C     0.18850   0.95830   0.24070   0.01267  Uiso   1.00
C822   C     0.11970   0.90910   0.22170   0.01267  Uiso   1.00
C823   C     0.61970   0.77830   0.09090   0.01267  Uiso   1.00
C824   C     0.45080   0.13640   0.18080   0.01267  Uiso   1.00
C825   C     0.50000   0.10560   0.89940   0.01267  Uiso   1.00
C826   C     0.62070   0.57780   0.23910   0.01267  Uiso   1.00
C827   C     0.12780   0.81160   0.76040   0.01267  Uiso   1.00
C828   C     0.00000   0.02190   0.17310   0.01267  Uiso   1.00
C829   C     0.12780   0.94880   0.18840   0.01267  Uiso   1.00
C830   C     0.00000   0.13720   0.93430   0.01267  Uiso   1.00
C831   C     0.35790   0.59340   0.21420   0.01267  Uiso   1.00
C832   C     0.89840   0.56290   0.64190   0.01267  Uiso   1.00
C833   C     0.85790   0.62080   0.21420   0.01267  Uiso   1.00
C834   C     0.79460   0.10830   0.26810   0.01267  Uiso   1.00
C835   C     0.66800   0.31330   0.24760   0.01267  Uiso   1.00
C836   C     0.62780   0.23960   0.18840   0.01267  Uiso   1.00
C837   C     0.16240   0.73050   0.81770   0.01267  Uiso   1.00
C838   C     0.13160   0.77350   0.72220   0.01267  Uiso   1.00
C839   C     0.10020   0.28310   0.08600   0.01267  Uiso   1.00
C840   C     0.87930   0.76090   0.42220   0.01267  Uiso   1.00
C841   C     0.39410   0.02810   0.60710   0.01267  Uiso   1.00
C842   C     0.32040   0.33280   0.39540   0.01267  Uiso   1.00
C843   C     0.00000   0.64050   0.77810   0.01267  Uiso   1.00
C844   C     0.88030   0.90910   0.22170   0.01267  Uiso   1.00
C845   C     0.50000   0.20850   0.83040   0.01267  Uiso   1.00
C846   C     0.85790   0.78580   0.40660   0.01267  Uiso   1.00
C847   C     0.95260   0.68210   0.57240   0.01267  Uiso   1.00
C848   C     0.95500   0.78250   0.32350   0.01267  Uiso   1.00
C849   C     0.82040   0.33280   0.93740   0.01267  Uiso   1.00
C850   C     0.31930   0.35330   0.38350   0.01267  Uiso   1.00
C851   C     0.33760   0.73050   0.91280   0.01267  Uiso   1.00
C852   C     0.95260   0.42760   0.10970   0.01267  Uiso   1.00
C853   C     0.20540   0.10830   0.26810   0.01267  Uiso   1.00
C854   C     0.10590   0.02810   0.42100   0.01267  Uiso   1.00
C855   C     0.63300   0.57240   0.90960   0.01267  Uiso   1.00
C856   C     0.08980   0.32430   0.95960   0.01267  Uiso   1.00
C857   C     0.41020   0.63530   0.95960   0.01267  Uiso   1.00
C858   C     0.77260   0.69750   0.83660   0.01267  Uiso   1.00
C859   C     0.00000   0.18150   0.43260   0.01267  Uiso   1.00
C860   C     0.39840   0.56290   0.92100   0.01267  Uiso   1.00
C861   C     0.72740   0.69750   0.86090   0.01267  Uiso   1.00
C862   C     0.95090   0.08290   0.19570   0.01267  Uiso   1.00
C863   C     0.08980   0.04040   0.36470   0.01267  Uiso   1.00
C864   C     0.63160   0.27780   0.22650   0.01267  Uiso   1.00
C865   C     0.00000   0.82690   0.84880   0.01267  Uiso   1.00
C866   C     0.31930   0.61650   0.96980   0.01267  Uiso   1.00
C867   C     0.92510   0.60330   0.33800   0.01267  Uiso   1.00
C868   C     0.66500   0.57580   0.26320   0.01267  Uiso   1.00
C869   C     0.37350   0.60050   0.95220   0.01267  Uiso   1.00
C870   C     0.54560   0.68500   0.07590   0.01267  Uiso   1.00
C871   C     0.83950   0.12160   0.33690   0.01267  Uiso   1.00
C872   C     0.45280   0.18880   0.76930   0.01267  Uiso   1.00
C873   C     0.20500   0.66200   0.80660   0.01267  Uiso   1.00
C874   C     0.54560   0.39090   0.31500   0.01267  Uiso   1.00
C875   C     0.04740   0.68210   0.57240   0.01267  Uiso   1.00
C876   C     0.89840   0.07900   0.43710   0.01267  Uiso   1.00
C877   C     0.83500   0.57580   0.31260   0.01267  Uiso   1.00
C878   C     0.04560   0.39090   0.07590   0.01267  Uiso   1.00
C879   C     0.37220   0.94880   0.76040   0.01267  Uiso   1.00
C880   C     0.54910   0.20180   0.80890   0.01267  Uiso   1.00
C881   C     0.81150   0.95830   0.24070   0.01267  Uiso   1.00
C882   C     0.91020   0.63530   0.67570   0.01267  Uiso   1.00
C883   C     0.50000   0.06570   0.86280   0.01267  Uiso   1.00
C884   C     0.63160   0.77350   0.05130   0.01267  Uiso   1.00
C885   C     0.95280   0.23070   0.81120   0.01267  Uiso   1.00
C886   C     0.67960   0.60460   0.93740   0.01267  Uiso   1.00
C887   C     0.00000   0.16960   0.79150   0.01267  Uiso   1.00
C888   C     0.50000   0.17380   0.24440   0.01267  Uiso   1.00
C889   C     0.39840   0.35810   0.43710   0.01267  Uiso   1.00
C890   C     0.86530   0.59780   0.60960   0.01267  Uiso   1.00
C891   C     0.04740   0.89030   0.31790   0.01267  Uiso   1.00
C892   C     0.70500   0.66200   0.85540   0.01267  Uiso   1.00
C893   C     0.50000   0.82690   0.97810   0.01267  Uiso   1.00
C894   C     0.33500   0.68740   0.42420   0.01267  Uiso   1.00
C895   C     0.00000   0.67900   0.51480   0.01267  Uiso   1.00
C896   C     0.13160   0.27780   0.05130   0.01267  Uiso   1.00
C897   C     0.04730   0.67840   0.49490   0.01267  Uiso   1.00
C898   C     0.68070   0.03020   0.64670   0.01267  Uiso   1.00
C899   C     0.00000   0.25110   0.81850   0.01267  Uiso   1.00
C900   C     0.04560   0.92410   0.31500   0.01267  Uiso   1.00
C901   C     0.54920   0.81920   0.95560   0.01267  Uiso   1.00
C902   C     0.12070   0.57780   0.33870   0.01267  Uiso   1.00
C903   C     0.27260   0.16340   0.30250   0.01267  Uiso   1.00
C904   C     0.33200   0.75240   0.06570   0.01267  Uiso   1.00
C905   C     0.07490   0.73470   0.39670   0.01267  Uiso   1.00
C906   C     0.12650   0.35170   0.95220   0.01267  Uiso   1.00
C907   C     0.81930   0.35330   0.96980   0.01267  Uiso   1.00
C908   C     0.72740   0.16340   0.30250   0.01267  Uiso   1.00
C909   C     0.20540   0.73190   0.84020   0.01267  Uiso   1.00
C910   C     0.16800   0.75240   0.68670   0.01267  Uiso   1.00
C911   C     0.77260   0.13910   0.30250   0.01267  Uiso   1.00
C912   C     0.54910   0.08290   0.88720   0.01267  Uiso   1.00
C913   C     0.45500   0.54100   0.32350   0.01267  Uiso   1.00
C914   C     0.04720   0.18880   0.41950   0.01267  Uiso   1.00
C915   C     0.13470   0.39040   0.98820   0.01267  Uiso   1.00
C916   C     0.95090   0.20180   0.39290   0.01267  Uiso   1.00
C917   C     0.16500   0.57580   0.31260   0.01267  Uiso   1.00
C918   C     0.66530   0.96320   0.75760   0.01267  Uiso   1.00
C919   C     0.50000   0.79710   0.93430   0.01267  Uiso   1.00
C920   C     0.09410   0.74290   0.72350   0.01267  Uiso   1.00
C921   C     0.18070   0.35330   0.96980   0.01267  Uiso   1.00
C922   C     0.90590   0.27650   0.01940   0.01267  Uiso   1.00
C923   C     0.45440   0.68500   0.07590   0.01267  Uiso   1.00
C924   C     0.66050   0.12160   0.78470   0.01267  Uiso   1.00
C925   C     0.81930   0.61650   0.64670   0.01267  Uiso   1.00
C926   C     0.63470   0.39040   0.40220   0.01267  Uiso   1.00
C927   C     0.89410   0.57900   0.60710   0.01267  Uiso   1.00
C928   C     0.07490   0.60330   0.33800   0.01267  Uiso   1.00
C929   C     0.87220   0.94880   0.18840   0.01267  Uiso   1.00
C930   C     0.08980   0.63530   0.67570   0.01267  Uiso   1.00
C931   C     0.36530   0.59780   0.98820   0.01267  Uiso   1.00
C932   C     0.50000   0.67900   0.16420   0.01267  Uiso   1.00
C933   C     0.70540   0.15980   0.26810   0.01267  Uiso   1.00
C934   C     0.45280   0.23070   0.41950   0.01267  Uiso   1.00
C935   C     0.54560   0.92410   0.60910   0.01267  Uiso   1.00
C936   C     0.90590   0.98060   0.25710   0.01267  Uiso   1.00
N25    N     0.50000   0.55910   0.32480   0.01267  Uiso   1.00
N26    N     0.36070   0.69730   0.90650   0.01267  Uiso   1.00
N27    N     0.50000   0.37260   0.31410   0.01267  Uiso   1.00
N28    N     0.63930   0.20920   0.30270   0.01267  Uiso   1.00
N29    N     0.00000   0.55910   0.23430   0.01267  Uiso   1.00
N30    N     0.50000   0.76570   0.44090   0.01267  Uiso   1.00
N31    N     0.36070   0.20920   0.30270   0.01267  Uiso   1.00
N32    N     0.00000   0.76570   0.32480   0.01267  Uiso   1.00
N33    N     0.00000   0.67520   0.44090   0.01267  Uiso   1.00
N34    N     0.00000   0.37260   0.05850   0.01267  Uiso   1.00
N35    N     0.13930   0.09350   0.30270   0.01267  Uiso   1.00
N36    N     0.50000   0.94150   0.62740   0.01267  Uiso   1.00
N37    N     0.50000   0.68590   0.05850   0.01267  Uiso   1.00
N38    N     0.00000   0.94150   0.31410   0.01267  Uiso   1.00
N39    N     0.13930   0.69730   0.79080   0.01267  Uiso   1.00
N40    N     0.63930   0.09350   0.79080   0.01267  Uiso   1.00
N41    N     0.00000   0.68590   0.62740   0.01267  Uiso   1.00
N42    N     0.50000   0.67520   0.23430   0.01267  Uiso   1.00
N43    N     0.36070   0.09350   0.79080   0.01267  Uiso   1.00
N44    N     0.86070   0.69730   0.79080   0.01267  Uiso   1.00
N45    N     0.86070   0.09350   0.30270   0.01267  Uiso   1.00
N46    N     0.63930   0.69730   0.90650   0.01267  Uiso   1.00
N47    N     0.86070   0.20920   0.90650   0.01267  Uiso   1.00
N48    N     0.13930   0.20920   0.90650   0.01267  Uiso   1.00
O105   O     0.94240   0.62920   0.37050   0.01267  Uiso   1.00
O106   O     0.94290   0.69500   0.28830   0.01267  Uiso   1.00
O107   O     0.55520   0.64700   0.98540   0.01267  Uiso   1.00
O108   O     0.94410   0.73110   0.69930   0.01267  Uiso   1.00
O109   O     0.05710   0.71170   0.40670   0.01267  Uiso   1.00
O110   O     0.00000   0.69290   0.73520   0.01267  Uiso   1.00
O111   O     0.04410   0.12160   0.34600   0.01267  Uiso   1.00
O112   O     0.54470   0.07270   0.81380   0.01267  Uiso   1.00
O113   O     0.05590   0.30070   0.03180   0.01267  Uiso   1.00
O114   O     0.45590   0.65400   0.87840   0.01267  Uiso   1.00
O115   O     0.94240   0.74130   0.37080   0.01267  Uiso   1.00
O116   O     0.94410   0.30070   0.03180   0.01267  Uiso   1.00
O117   O     0.44480   0.33840   0.35300   0.01267  Uiso   1.00
O118   O     0.39820   0.01590   0.74940   0.01267  Uiso   1.00
O119   O     0.00000   0.66667   0.33334   0.01267  Uiso   1.00
O120   O     0.00000   0.04230   0.30710   0.01267  Uiso   1.00
O121   O     0.05520   0.01460   0.35300   0.01267  Uiso   1.00
O122   O     0.55760   0.74130   0.37050   0.01267  Uiso   1.00
O123   O     0.94480   0.64700   0.66160   0.01267  Uiso   1.00
O124   O     0.04470   0.07270   0.25890   0.01267  Uiso   1.00
O125   O     0.89820   0.25060   0.98410   0.01267  Uiso   1.00
O126   O     0.54410   0.22440   0.34600   0.01267  Uiso   1.00
O127   O     0.04470   0.74110   0.81380   0.01267  Uiso   1.00
O128   O     0.09920   0.64960   0.71260   0.01267  Uiso   1.00
O129   O     0.95530   0.18620   0.92730   0.01267  Uiso   1.00
O130   O     0.09920   0.06300   0.35040   0.01267  Uiso   1.00
O131   O     0.05760   0.62920   0.37050   0.01267  Uiso   1.00
O132   O     0.60180   0.73350   0.98410   0.01267  Uiso   1.00
O133   O     0.95530   0.07270   0.25890   0.01267  Uiso   1.00
O134   O     0.05760   0.74130   0.37080   0.01267  Uiso   1.00
O135   O     0.10180   0.73350   0.74940   0.01267  Uiso   1.00
O136   O     0.55710   0.71170   0.30500   0.01267  Uiso   1.00
O137   O     0.10180   0.01590   0.26650   0.01267  Uiso   1.00
O138   O     0.40080   0.64960   0.93700   0.01267  Uiso   1.00
O139   O     0.95590   0.22440   0.87840   0.01267  Uiso   1.00
O140   O     0.89820   0.73350   0.74940   0.01267  Uiso   1.00
O141   O     0.45590   0.12160   0.77560   0.01267  Uiso   1.00
O142   O     0.50000   0.04230   0.73520   0.01267  Uiso   1.00
O143   O     0.60180   0.01590   0.74940   0.01267  Uiso   1.00
O144   O     0.90080   0.06300   0.35040   0.01267  Uiso   1.00
O145   O     0.39820   0.25060   0.26650   0.01267  Uiso   1.00
O146   O     0.90080   0.64960   0.71260   0.01267  Uiso   1.00
O147   O     0.50000   0.69290   0.95770   0.01267  Uiso   1.00
O148   O     0.95530   0.74110   0.81380   0.01267  Uiso   1.00
O149   O     0.55760   0.62950   0.37080   0.01267  Uiso   1.00
O150   O     0.39820   0.73350   0.98410   0.01267  Uiso   1.00
O151   O     0.55590   0.96820   0.69930   0.01267  Uiso   1.00
O152   O     0.05710   0.59330   0.30500   0.01267  Uiso   1.00
O153   O     0.94240   0.62950   0.25870   0.01267  Uiso   1.00
O154   O     0.45530   0.18620   0.25890   0.01267  Uiso   1.00
O155   O     0.55590   0.30070   0.26890   0.01267  Uiso   1.00
O156   O     0.59920   0.64960   0.93700   0.01267  Uiso   1.00
O157   O     0.04410   0.65400   0.77560   0.01267  Uiso   1.00
O158   O     0.94290   0.59330   0.30500   0.01267  Uiso   1.00
O159   O     0.54470   0.18620   0.25890   0.01267  Uiso   1.00
O160   O     0.55760   0.62920   0.25870   0.01267  Uiso   1.00
O161   O     0.50000   0.26480   0.30710   0.01267  Uiso   1.00
O162   O     0.44480   0.01460   0.66160   0.01267  Uiso   1.00
O163   O     0.95590   0.65400   0.77560   0.01267  Uiso   1.00
O164   O     0.00000   0.26480   0.95770   0.01267  Uiso   1.00
O165   O     0.40080   0.28740   0.35040   0.01267  Uiso   1.00
O166   O     0.55710   0.59330   0.28830   0.01267  Uiso   1.00
O167   O     0.55710   0.69500   0.40670   0.01267  Uiso   1.00
O168   O     0.44290   0.59330   0.28830   0.01267  Uiso   1.00
O169   O     0.05590   0.96820   0.26890   0.01267  Uiso   1.00
O170   O     0.44410   0.73110   0.03180   0.01267  Uiso   1.00
O171   O     0.44410   0.96820   0.69930   0.01267  Uiso   1.00
O172   O     0.50000   0.66667   0.33334   0.01267  Uiso   1.00
O173   O     0.95590   0.12160   0.34600   0.01267  Uiso   1.00
O174   O     0.05590   0.73110   0.69930   0.01267  Uiso   1.00
O175   O     0.44240   0.62950   0.37080   0.01267  Uiso   1.00
O176   O     0.44480   0.64700   0.98540   0.01267  Uiso   1.00
O177   O     0.05520   0.64700   0.66160   0.01267  Uiso   1.00
O178   O     0.04410   0.22440   0.87840   0.01267  Uiso   1.00
O179   O     0.94480   0.33840   0.98540   0.01267  Uiso   1.00
O180   O     0.05710   0.69500   0.28830   0.01267  Uiso   1.00
O181   O     0.54410   0.12160   0.77560   0.01267  Uiso   1.00
O182   O     0.44410   0.30070   0.26890   0.01267  Uiso   1.00
O183   O     0.05760   0.62950   0.25870   0.01267  Uiso   1.00
O184   O     0.44240   0.62920   0.25870   0.01267  Uiso   1.00
O185   O     0.59920   0.28740   0.35040   0.01267  Uiso   1.00
O186   O     0.04470   0.18620   0.92730   0.01267  Uiso   1.00
O187   O     0.55520   0.33840   0.35300   0.01267  Uiso   1.00
O188   O     0.44290   0.69500   0.40670   0.01267  Uiso   1.00
O189   O     0.05520   0.33840   0.98540   0.01267  Uiso   1.00
O190   O     0.44290   0.71170   0.30500   0.01267  Uiso   1.00
O191   O     0.89820   0.01590   0.26650   0.01267  Uiso   1.00
O192   O     0.44240   0.74130   0.37050   0.01267  Uiso   1.00
O193   O     0.55520   0.01460   0.66160   0.01267  Uiso   1.00
O194   O     0.10180   0.25060   0.98410   0.01267  Uiso   1.00
O195   O     0.60180   0.25060   0.26650   0.01267  Uiso   1.00
O196   O     0.55590   0.73110   0.03180   0.01267  Uiso   1.00
O197   O     0.09920   0.28740   0.93700   0.01267  Uiso   1.00
O198   O     0.94410   0.96820   0.26890   0.01267  Uiso   1.00
O199   O     0.59920   0.06300   0.71260   0.01267  Uiso   1.00
O200   O     0.90080   0.28740   0.93700   0.01267  Uiso   1.00
O201   O     0.54410   0.65400   0.87840   0.01267  Uiso   1.00
O202   O     0.40080   0.06300   0.71260   0.01267  Uiso   1.00
O203   O     0.45530   0.07270   0.81380   0.01267  Uiso   1.00
O204   O     0.94290   0.71170   0.40670   0.01267  Uiso   1.00
O205   O     0.54470   0.74110   0.92730   0.01267  Uiso   1.00
O206   O     0.45530   0.74110   0.92730   0.01267  Uiso   1.00
O207   O     0.94480   0.01460   0.35300   0.01267  Uiso   1.00
O208   O     0.45590   0.22440   0.34600   0.01267  Uiso   1.00
