data_image0
_cell_length_a       23.132
_cell_length_b       23.132
_cell_length_c       15.528
_cell_angle_alpha    90
_cell_angle_beta     90
_cell_angle_gamma    120

_symmetry_space_group_name_H-M    "P 1"
_symmetry_int_tables_number       1

loop_
  _symmetry_equiv_pos_as_xyz
  'x, y, z'

loop_
  _atom_site_label
  _atom_site_occupancy
  _atom_site_fract_x
  _atom_site_fract_y
  _atom_site_fract_z
  _atom_site_thermal_displace_type
  _atom_site_B_iso_or_equiv
  _atom_site_type_symbol
  N1       1.0000 0.68062  0.69310  0.60310  Biso   1.000  N
  N2       1.0000 0.82872  0.75408  0.53840  Biso   1.000  N
  C1       1.0000 0.61980  0.68280  0.62720  Biso   1.000  C
  C2       1.0000 0.86740  0.79420  0.60350  Biso   1.000  C
  N3       1.0000 0.84240  0.83190  0.65090  Biso   1.000  N
  O1       1.0000 0.79330  0.82650  0.64420  Biso   1.000  O
  O2       1.0000 0.88480  0.86290  0.71370  Biso   1.000  O
  C3       1.0000 0.57980  0.69780  0.55130  Biso   1.000  C
  H1       1.0000 0.61140  0.72670  0.50810  Biso   1.000  H
  H2       1.0000 0.55700  0.71940  0.57600  Biso   1.000  H
  H3       1.0000 0.54740  0.65600  0.52470  Biso   1.000  H
  N4       1.0000 0.58550  0.70830  0.58800  Biso   1.000  N
  O3       1.0000 0.53220  0.69890  0.61670  Biso   1.000  O
  O4       1.0000 0.60690  0.73270  0.51900  Biso   1.000  O
  C4       1.0000 0.84560  0.82750  0.66420  Biso   1.000  C
  H4       1.0000 0.80150  0.81900  0.64810  Biso   1.000  H
  H5       1.0000 0.87670  0.87520  0.66300  Biso   1.000  H
  H6       1.0000 0.84410  0.81050  0.72180  Biso   1.000  H
  N5       1.0000 0.34729  0.02643  0.93643  Biso   1.000  N
  N6       1.0000 0.49539  0.08741  0.87173  Biso   1.000  N
  C5       1.0000 0.28647  0.01613  0.96053  Biso   1.000  C
  C6       1.0000 0.53407  0.12753  0.93683  Biso   1.000  C
  N7       1.0000 0.50907  0.16523  0.98423  Biso   1.000  N
  O5       1.0000 0.45997  0.15983  0.97753  Biso   1.000  O
  O6       1.0000 0.55147  0.19623  0.04703  Biso   1.000  O
  C7       1.0000 0.24647  0.03113  0.88463  Biso   1.000  C
  H7       1.0000 0.27807  0.06003  0.84143  Biso   1.000  H
  H8       1.0000 0.22367  0.05273  0.90933  Biso   1.000  H
  H9       1.0000 0.21407  0.98933  0.85803  Biso   1.000  H
  N8       1.0000 0.25217  0.04163  0.92133  Biso   1.000  N
  O7       1.0000 0.19887  0.03223  0.95003  Biso   1.000  O
  O8       1.0000 0.27357  0.06603  0.85233  Biso   1.000  O
  C8       1.0000 0.51227  0.16083  0.99753  Biso   1.000  C
  H10      1.0000 0.46817  0.15233  0.98143  Biso   1.000  H
  H11      1.0000 0.54337  0.20853  0.99633  Biso   1.000  H
  H12      1.0000 0.51077  0.14383  0.05513  Biso   1.000  H
  N9       1.0000 0.01395  0.35977  0.26977  Biso   1.000  N
  N10      1.0000 0.16205  0.42075  0.20507  Biso   1.000  N
  C9       1.0000 0.95313  0.34947  0.29387  Biso   1.000  C
  C10      1.0000 0.20073  0.46087  0.27017  Biso   1.000  C
  N11      1.0000 0.17573  0.49857  0.31757  Biso   1.000  N
  O9       1.0000 0.12663  0.49317  0.31087  Biso   1.000  O
  O10      1.0000 0.21813  0.52957  0.38037  Biso   1.000  O
  C11      1.0000 0.91313  0.36447  0.21797  Biso   1.000  C
  H13      1.0000 0.94473  0.39337  0.17477  Biso   1.000  H
  H14      1.0000 0.89033  0.38607  0.24267  Biso   1.000  H
  H15      1.0000 0.88073  0.32267  0.19137  Biso   1.000  H
  N12      1.0000 0.91883  0.37497  0.25467  Biso   1.000  N
  O11      1.0000 0.86553  0.36557  0.28337  Biso   1.000  O
  O12      1.0000 0.94023  0.39937  0.18567  Biso   1.000  O
  C12      1.0000 0.17893  0.49417  0.33087  Biso   1.000  C
  H16      1.0000 0.13483  0.48567  0.31477  Biso   1.000  H
  H17      1.0000 0.21003  0.54187  0.32967  Biso   1.000  H
  H18      1.0000 0.17743  0.47717  0.38847  Biso   1.000  H
  N13      1.0000 0.30690  0.98752  0.60310  Biso   1.000  N
  N14      1.0000 0.24592  0.07464  0.53840  Biso   1.000  N
  C13      1.0000 0.31720  0.93700  0.62720  Biso   1.000  C
  C14      1.0000 0.20580  0.07320  0.60350  Biso   1.000  C
  N15      1.0000 0.16810  0.01050  0.65090  Biso   1.000  N
  O13      1.0000 0.17350  0.96680  0.64420  Biso   1.000  O
  O14      1.0000 0.13710  0.02190  0.71370  Biso   1.000  O
  C15      1.0000 0.30220  0.88200  0.55130  Biso   1.000  C
  H19      1.0000 0.27330  0.88470  0.50810  Biso   1.000  H
  H20      1.0000 0.28060  0.83760  0.57600  Biso   1.000  H
  H21      1.0000 0.34400  0.89140  0.52470  Biso   1.000  H
  N16      1.0000 0.29170  0.87720  0.58800  Biso   1.000  N
  O15      1.0000 0.30110  0.83330  0.61670  Biso   1.000  O
  O16      1.0000 0.26730  0.87420  0.51900  Biso   1.000  O
  C16      1.0000 0.17250  0.01810  0.66420  Biso   1.000  C
  H22      1.0000 0.18100  0.98250  0.64810  Biso   1.000  H
  H23      1.0000 0.12480  0.00150  0.66300  Biso   1.000  H
  H24      1.0000 0.18950  0.03360  0.72180  Biso   1.000  H
  N17      1.0000 0.97357  0.32085  0.93643  Biso   1.000  N
  N18      1.0000 0.91259  0.40797  0.87173  Biso   1.000  N
  C17      1.0000 0.98387  0.27033  0.96053  Biso   1.000  C
  C18      1.0000 0.87247  0.40653  0.93683  Biso   1.000  C
  N19      1.0000 0.83477  0.34383  0.98423  Biso   1.000  N
  O17      1.0000 0.84017  0.30013  0.97753  Biso   1.000  O
  O18      1.0000 0.80377  0.35523  0.04703  Biso   1.000  O
  C19      1.0000 0.96887  0.21533  0.88463  Biso   1.000  C
  H25      1.0000 0.93997  0.21803  0.84143  Biso   1.000  H
  H26      1.0000 0.94727  0.17093  0.90933  Biso   1.000  H
  H27      1.0000 0.01067  0.22473  0.85803  Biso   1.000  H
  N20      1.0000 0.95837  0.21053  0.92133  Biso   1.000  N
  O19      1.0000 0.96777  0.16663  0.95003  Biso   1.000  O
  O20      1.0000 0.93397  0.20753  0.85233  Biso   1.000  O
  C20      1.0000 0.83917  0.35143  0.99753  Biso   1.000  C
  H28      1.0000 0.84767  0.31583  0.98143  Biso   1.000  H
  H29      1.0000 0.79147  0.33483  0.99633  Biso   1.000  H
  H30      1.0000 0.85617  0.36693  0.05513  Biso   1.000  H
  N21      1.0000 0.64023  0.65419  0.26977  Biso   1.000  N
  N22      1.0000 0.57925  0.74131  0.20507  Biso   1.000  N
  C21      1.0000 0.65053  0.60367  0.29387  Biso   1.000  C
  C22      1.0000 0.53913  0.73987  0.27017  Biso   1.000  C
  N23      1.0000 0.50143  0.67717  0.31757  Biso   1.000  N
  O21      1.0000 0.50683  0.63347  0.31087  Biso   1.000  O
  O22      1.0000 0.47043  0.68857  0.38037  Biso   1.000  O
  C23      1.0000 0.63553  0.54867  0.21797  Biso   1.000  C
  H31      1.0000 0.60663  0.55137  0.17477  Biso   1.000  H
  H32      1.0000 0.61393  0.50427  0.24267  Biso   1.000  H
  H33      1.0000 0.67733  0.55807  0.19137  Biso   1.000  H
  N24      1.0000 0.62503  0.54387  0.25467  Biso   1.000  N
  O23      1.0000 0.63443  0.49997  0.28337  Biso   1.000  O
  O24      1.0000 0.60063  0.54087  0.18567  Biso   1.000  O
  C24      1.0000 0.50583  0.68477  0.33087  Biso   1.000  C
  H34      1.0000 0.51433  0.64917  0.31477  Biso   1.000  H
  H35      1.0000 0.45813  0.66817  0.32967  Biso   1.000  H
  H36      1.0000 0.52283  0.70027  0.38847  Biso   1.000  H
  N25      1.0000 0.01248  0.31938  0.60310  Biso   1.000  N
  N26      1.0000 0.92536  0.17128  0.53840  Biso   1.000  N
  C25      1.0000 0.06300  0.38020  0.62720  Biso   1.000  C
  C26      1.0000 0.92680  0.13260  0.60350  Biso   1.000  C
  N27      1.0000 0.98950  0.15760  0.65090  Biso   1.000  N
  O25      1.0000 0.03320  0.20670  0.64420  Biso   1.000  O
  O26      1.0000 0.97810  0.11520  0.71370  Biso   1.000  O
  C27      1.0000 0.11800  0.42020  0.55130  Biso   1.000  C
  H37      1.0000 0.11530  0.38860  0.50810  Biso   1.000  H
  H38      1.0000 0.16240  0.44300  0.57600  Biso   1.000  H
  H39      1.0000 0.10860  0.45260  0.52470  Biso   1.000  H
  N28      1.0000 0.12280  0.41450  0.58800  Biso   1.000  N
  O27      1.0000 0.16670  0.46780  0.61670  Biso   1.000  O
  O28      1.0000 0.12580  0.39310  0.51900  Biso   1.000  O
  C28      1.0000 0.98190  0.15440  0.66420  Biso   1.000  C
  H40      1.0000 0.01750  0.19850  0.64810  Biso   1.000  H
  H41      1.0000 0.99850  0.12330  0.66300  Biso   1.000  H
  H42      1.0000 0.96640  0.15590  0.72180  Biso   1.000  H
  N29      1.0000 0.67915  0.65271  0.93643  Biso   1.000  N
  N30      1.0000 0.59203  0.50461  0.87173  Biso   1.000  N
  C29      1.0000 0.72967  0.71353  0.96053  Biso   1.000  C
  C30      1.0000 0.59347  0.46593  0.93683  Biso   1.000  C
  N31      1.0000 0.65617  0.49093  0.98423  Biso   1.000  N
  O29      1.0000 0.69987  0.54003  0.97753  Biso   1.000  O
  O30      1.0000 0.64477  0.44853  0.04703  Biso   1.000  O
  C31      1.0000 0.78467  0.75353  0.88463  Biso   1.000  C
  H43      1.0000 0.78197  0.72193  0.84143  Biso   1.000  H
  H44      1.0000 0.82907  0.77633  0.90933  Biso   1.000  H
  H45      1.0000 0.77527  0.78593  0.85803  Biso   1.000  H
  N32      1.0000 0.78947  0.74783  0.92133  Biso   1.000  N
  O31      1.0000 0.83337  0.80113  0.95003  Biso   1.000  O
  O32      1.0000 0.79247  0.72643  0.85233  Biso   1.000  O
  C32      1.0000 0.64857  0.48773  0.99753  Biso   1.000  C
  H46      1.0000 0.68417  0.53183  0.98143  Biso   1.000  H
  H47      1.0000 0.66517  0.45663  0.99633  Biso   1.000  H
  H48      1.0000 0.63307  0.48923  0.05513  Biso   1.000  H
  N33      1.0000 0.34581  0.98605  0.26977  Biso   1.000  N
  N34      1.0000 0.25869  0.83795  0.20507  Biso   1.000  N
  C33      1.0000 0.39633  0.04687  0.29387  Biso   1.000  C
  C34      1.0000 0.26013  0.79927  0.27017  Biso   1.000  C
  N35      1.0000 0.32283  0.82427  0.31757  Biso   1.000  N
  O33      1.0000 0.36653  0.87337  0.31087  Biso   1.000  O
  O34      1.0000 0.31143  0.78187  0.38037  Biso   1.000  O
  C35      1.0000 0.45133  0.08687  0.21797  Biso   1.000  C
  H49      1.0000 0.44863  0.05527  0.17477  Biso   1.000  H
  H50      1.0000 0.49573  0.10967  0.24267  Biso   1.000  H
  H51      1.0000 0.44193  0.11927  0.19137  Biso   1.000  H
  N36      1.0000 0.45613  0.08117  0.25467  Biso   1.000  N
  O35      1.0000 0.50003  0.13447  0.28337  Biso   1.000  O
  O36      1.0000 0.45913  0.05977  0.18567  Biso   1.000  O
  C36      1.0000 0.31523  0.82107  0.33087  Biso   1.000  C
  H52      1.0000 0.35083  0.86517  0.31477  Biso   1.000  H
  H53      1.0000 0.33183  0.78997  0.32967  Biso   1.000  H
  H54      1.0000 0.29973  0.82257  0.38847  Biso   1.000  H
  N37      1.0000 0.69310  0.68062  0.39690  Biso   1.000  N
  N38      1.0000 0.75408  0.82872  0.46160  Biso   1.000  N
  C37      1.0000 0.68280  0.61980  0.37280  Biso   1.000  C
  C38      1.0000 0.79420  0.86740  0.39650  Biso   1.000  C
  N39      1.0000 0.83190  0.84240  0.34910  Biso   1.000  N
  O37      1.0000 0.82650  0.79330  0.35580  Biso   1.000  O
  O38      1.0000 0.86290  0.88480  0.28630  Biso   1.000  O
  C39      1.0000 0.69780  0.57980  0.44870  Biso   1.000  C
  H55      1.0000 0.72670  0.61140  0.49190  Biso   1.000  H
  H56      1.0000 0.71940  0.55700  0.42400  Biso   1.000  H
  H57      1.0000 0.65600  0.54740  0.47530  Biso   1.000  H
  N40      1.0000 0.70830  0.58550  0.41200  Biso   1.000  N
  O39      1.0000 0.69890  0.53220  0.38330  Biso   1.000  O
  O40      1.0000 0.73270  0.60690  0.48100  Biso   1.000  O
  C40      1.0000 0.82750  0.84560  0.33580  Biso   1.000  C
  H58      1.0000 0.81900  0.80150  0.35190  Biso   1.000  H
  H59      1.0000 0.87520  0.87670  0.33700  Biso   1.000  H
  H60      1.0000 0.81050  0.84410  0.27820  Biso   1.000  H
  N41      1.0000 0.35977  0.01395  0.73023  Biso   1.000  N
  N42      1.0000 0.42075  0.16205  0.79493  Biso   1.000  N
  C41      1.0000 0.34947  0.95313  0.70613  Biso   1.000  C
  C42      1.0000 0.46087  0.20073  0.72983  Biso   1.000  C
  N43      1.0000 0.49857  0.17573  0.68243  Biso   1.000  N
  O41      1.0000 0.49317  0.12663  0.68913  Biso   1.000  O
  O42      1.0000 0.52957  0.21813  0.61963  Biso   1.000  O
  C43      1.0000 0.36447  0.91313  0.78203  Biso   1.000  C
  H61      1.0000 0.39337  0.94473  0.82523  Biso   1.000  H
  H62      1.0000 0.38607  0.89033  0.75733  Biso   1.000  H
  H63      1.0000 0.32267  0.88073  0.80863  Biso   1.000  H
  N44      1.0000 0.37497  0.91883  0.74533  Biso   1.000  N
  O43      1.0000 0.36557  0.86553  0.71663  Biso   1.000  O
  O44      1.0000 0.39937  0.94023  0.81433  Biso   1.000  O
  C44      1.0000 0.49417  0.17893  0.66913  Biso   1.000  C
  H64      1.0000 0.48567  0.13483  0.68523  Biso   1.000  H
  H65      1.0000 0.54187  0.21003  0.67033  Biso   1.000  H
  H66      1.0000 0.47717  0.17743  0.61153  Biso   1.000  H
  N45      1.0000 0.02643  0.34729  0.06357  Biso   1.000  N
  N46      1.0000 0.08741  0.49539  0.12827  Biso   1.000  N
  C45      1.0000 0.01613  0.28647  0.03947  Biso   1.000  C
  C46      1.0000 0.12753  0.53407  0.06317  Biso   1.000  C
  N47      1.0000 0.16523  0.50907  0.01577  Biso   1.000  N
  O45      1.0000 0.15983  0.45997  0.02247  Biso   1.000  O
  O46      1.0000 0.19623  0.55147  0.95297  Biso   1.000  O
  C47      1.0000 0.03113  0.24647  0.11537  Biso   1.000  C
  H67      1.0000 0.06003  0.27807  0.15857  Biso   1.000  H
  H68      1.0000 0.05273  0.22367  0.09067  Biso   1.000  H
  H69      1.0000 0.98933  0.21407  0.14197  Biso   1.000  H
  N48      1.0000 0.04163  0.25217  0.07867  Biso   1.000  N
  O47      1.0000 0.03223  0.19887  0.04997  Biso   1.000  O
  O48      1.0000 0.06603  0.27357  0.14767  Biso   1.000  O
  C48      1.0000 0.16083  0.51227  0.00247  Biso   1.000  C
  H70      1.0000 0.15233  0.46817  0.01857  Biso   1.000  H
  H71      1.0000 0.20853  0.54337  0.00367  Biso   1.000  H
  H72      1.0000 0.14383  0.51077  0.94487  Biso   1.000  H
  N49      1.0000 0.98752  0.30690  0.39690  Biso   1.000  N
  N50      1.0000 0.07464  0.24592  0.46160  Biso   1.000  N
  C49      1.0000 0.93700  0.31720  0.37280  Biso   1.000  C
  C50      1.0000 0.07320  0.20580  0.39650  Biso   1.000  C
  N51      1.0000 0.01050  0.16810  0.34910  Biso   1.000  N
  O49      1.0000 0.96680  0.17350  0.35580  Biso   1.000  O
  O50      1.0000 0.02190  0.13710  0.28630  Biso   1.000  O
  C51      1.0000 0.88200  0.30220  0.44870  Biso   1.000  C
  H73      1.0000 0.88470  0.27330  0.49190  Biso   1.000  H
  H74      1.0000 0.83760  0.28060  0.42400  Biso   1.000  H
  H75      1.0000 0.89140  0.34400  0.47530  Biso   1.000  H
  N52      1.0000 0.87720  0.29170  0.41200  Biso   1.000  N
  O51      1.0000 0.83330  0.30110  0.38330  Biso   1.000  O
  O52      1.0000 0.87420  0.26730  0.48100  Biso   1.000  O
  C52      1.0000 0.01810  0.17250  0.33580  Biso   1.000  C
  H76      1.0000 0.98250  0.18100  0.35190  Biso   1.000  H
  H77      1.0000 0.00150  0.12480  0.33700  Biso   1.000  H
  H78      1.0000 0.03360  0.18950  0.27820  Biso   1.000  H
  N53      1.0000 0.65419  0.64023  0.73023  Biso   1.000  N
  N54      1.0000 0.74131  0.57925  0.79493  Biso   1.000  N
  C53      1.0000 0.60367  0.65053  0.70613  Biso   1.000  C
  C54      1.0000 0.73987  0.53913  0.72983  Biso   1.000  C
  N55      1.0000 0.67717  0.50143  0.68243  Biso   1.000  N
  O53      1.0000 0.63347  0.50683  0.68913  Biso   1.000  O
  O54      1.0000 0.68857  0.47043  0.61963  Biso   1.000  O
  C55      1.0000 0.54867  0.63553  0.78203  Biso   1.000  C
  H79      1.0000 0.55137  0.60663  0.82523  Biso   1.000  H
  H80      1.0000 0.50427  0.61393  0.75733  Biso   1.000  H
  H81      1.0000 0.55807  0.67733  0.80863  Biso   1.000  H
  N56      1.0000 0.54387  0.62503  0.74533  Biso   1.000  N
  O55      1.0000 0.49997  0.63443  0.71663  Biso   1.000  O
  O56      1.0000 0.54087  0.60063  0.81433  Biso   1.000  O
  C56      1.0000 0.68477  0.50583  0.66913  Biso   1.000  C
  H82      1.0000 0.64917  0.51433  0.68523  Biso   1.000  H
  H83      1.0000 0.66817  0.45813  0.67033  Biso   1.000  H
  H84      1.0000 0.70027  0.52283  0.61153  Biso   1.000  H
  N57      1.0000 0.32085  0.97357  0.06357  Biso   1.000  N
  N58      1.0000 0.40797  0.91259  0.12827  Biso   1.000  N
  C57      1.0000 0.27033  0.98387  0.03947  Biso   1.000  C
  C58      1.0000 0.40653  0.87247  0.06317  Biso   1.000  C
  N59      1.0000 0.34383  0.83477  0.01577  Biso   1.000  N
  O57      1.0000 0.30013  0.84017  0.02247  Biso   1.000  O
  O58      1.0000 0.35523  0.80377  0.95297  Biso   1.000  O
  C59      1.0000 0.21533  0.96887  0.11537  Biso   1.000  C
  H85      1.0000 0.21803  0.93997  0.15857  Biso   1.000  H
  H86      1.0000 0.17093  0.94727  0.09067  Biso   1.000  H
  H87      1.0000 0.22473  0.01067  0.14197  Biso   1.000  H
  N60      1.0000 0.21053  0.95837  0.07867  Biso   1.000  N
  O59      1.0000 0.16663  0.96777  0.04997  Biso   1.000  O
  O60      1.0000 0.20753  0.93397  0.14767  Biso   1.000  O
  C60      1.0000 0.35143  0.83917  0.00247  Biso   1.000  C
  H88      1.0000 0.31583  0.84767  0.01857  Biso   1.000  H
  H89      1.0000 0.33483  0.79147  0.00367  Biso   1.000  H
  H90      1.0000 0.36693  0.85617  0.94487  Biso   1.000  H
  N61      1.0000 0.31938  0.01248  0.39690  Biso   1.000  N
  N62      1.0000 0.17128  0.92536  0.46160  Biso   1.000  N
  C61      1.0000 0.38020  0.06300  0.37280  Biso   1.000  C
  C62      1.0000 0.13260  0.92680  0.39650  Biso   1.000  C
  N63      1.0000 0.15760  0.98950  0.34910  Biso   1.000  N
  O61      1.0000 0.20670  0.03320  0.35580  Biso   1.000  O
  O62      1.0000 0.11520  0.97810  0.28630  Biso   1.000  O
  C63      1.0000 0.42020  0.11800  0.44870  Biso   1.000  C
  H91      1.0000 0.38860  0.11530  0.49190  Biso   1.000  H
  H92      1.0000 0.44300  0.16240  0.42400  Biso   1.000  H
  H93      1.0000 0.45260  0.10860  0.47530  Biso   1.000  H
  N64      1.0000 0.41450  0.12280  0.41200  Biso   1.000  N
  O63      1.0000 0.46780  0.16670  0.38330  Biso   1.000  O
  O64      1.0000 0.39310  0.12580  0.48100  Biso   1.000  O
  C64      1.0000 0.15440  0.98190  0.33580  Biso   1.000  C
  H94      1.0000 0.19850  0.01750  0.35190  Biso   1.000  H
  H95      1.0000 0.12330  0.99850  0.33700  Biso   1.000  H
  H96      1.0000 0.15590  0.96640  0.27820  Biso   1.000  H
  N65      1.0000 0.98605  0.34581  0.73023  Biso   1.000  N
  N66      1.0000 0.83795  0.25869  0.79493  Biso   1.000  N
  C65      1.0000 0.04687  0.39633  0.70613  Biso   1.000  C
  C66      1.0000 0.79927  0.26013  0.72983  Biso   1.000  C
  N67      1.0000 0.82427  0.32283  0.68243  Biso   1.000  N
  O65      1.0000 0.87337  0.36653  0.68913  Biso   1.000  O
  O66      1.0000 0.78187  0.31143  0.61963  Biso   1.000  O
  C67      1.0000 0.08687  0.45133  0.78203  Biso   1.000  C
  H97      1.0000 0.05527  0.44863  0.82523  Biso   1.000  H
  H98      1.0000 0.10967  0.49573  0.75733  Biso   1.000  H
  H99      1.0000 0.11927  0.44193  0.80863  Biso   1.000  H
  N68      1.0000 0.08117  0.45613  0.74533  Biso   1.000  N
  O67      1.0000 0.13447  0.50003  0.71663  Biso   1.000  O
  O68      1.0000 0.05977  0.45913  0.81433  Biso   1.000  O
  C68      1.0000 0.82107  0.31523  0.66913  Biso   1.000  C
  H100     1.0000 0.86517  0.35083  0.68523  Biso   1.000  H
  H101     1.0000 0.78997  0.33183  0.67033  Biso   1.000  H
  H102     1.0000 0.82257  0.29973  0.61153  Biso   1.000  H
  N69      1.0000 0.65271  0.67915  0.06357  Biso   1.000  N
  N70      1.0000 0.50461  0.59203  0.12827  Biso   1.000  N
  C69      1.0000 0.71353  0.72967  0.03947  Biso   1.000  C
  C70      1.0000 0.46593  0.59347  0.06317  Biso   1.000  C
  N71      1.0000 0.49093  0.65617  0.01577  Biso   1.000  N
  O69      1.0000 0.54003  0.69987  0.02247  Biso   1.000  O
  O70      1.0000 0.44853  0.64477  0.95297  Biso   1.000  O
  C71      1.0000 0.75353  0.78467  0.11537  Biso   1.000  C
  H103     1.0000 0.72193  0.78197  0.15857  Biso   1.000  H
  H104     1.0000 0.77633  0.82907  0.09067  Biso   1.000  H
  H105     1.0000 0.78593  0.77527  0.14197  Biso   1.000  H
  N72      1.0000 0.74783  0.78947  0.07867  Biso   1.000  N
  O71      1.0000 0.80113  0.83337  0.04997  Biso   1.000  O
  O72      1.0000 0.72643  0.79247  0.14767  Biso   1.000  O
  C72      1.0000 0.48773  0.64857  0.00247  Biso   1.000  C
  H106     1.0000 0.53183  0.68417  0.01857  Biso   1.000  H
  H107     1.0000 0.45663  0.66517  0.00367  Biso   1.000  H
  H108     1.0000 0.48923  0.63307  0.94487  Biso   1.000  H
  N73      1.0000 0.31938  0.30690  0.39690  Biso   1.000  N
  N74      1.0000 0.17128  0.24592  0.46160  Biso   1.000  N
  C73      1.0000 0.38020  0.31720  0.37280  Biso   1.000  C
  C74      1.0000 0.13260  0.20580  0.39650  Biso   1.000  C
  N75      1.0000 0.15760  0.16810  0.34910  Biso   1.000  N
  O73      1.0000 0.20670  0.17350  0.35580  Biso   1.000  O
  O74      1.0000 0.11520  0.13710  0.28630  Biso   1.000  O
  C75      1.0000 0.42020  0.30220  0.44870  Biso   1.000  C
  H109     1.0000 0.38860  0.27330  0.49190  Biso   1.000  H
  H110     1.0000 0.44300  0.28060  0.42400  Biso   1.000  H
  H111     1.0000 0.45260  0.34400  0.47530  Biso   1.000  H
  N76      1.0000 0.41450  0.29170  0.41200  Biso   1.000  N
  O75      1.0000 0.46780  0.30110  0.38330  Biso   1.000  O
  O76      1.0000 0.39310  0.26730  0.48100  Biso   1.000  O
  C76      1.0000 0.15440  0.17250  0.33580  Biso   1.000  C
  H112     1.0000 0.19850  0.18100  0.35190  Biso   1.000  H
  H113     1.0000 0.12330  0.12480  0.33700  Biso   1.000  H
  H114     1.0000 0.15590  0.18950  0.27820  Biso   1.000  H
  N77      1.0000 0.98605  0.64023  0.73023  Biso   1.000  N
  N78      1.0000 0.83795  0.57925  0.79493  Biso   1.000  N
  C77      1.0000 0.04687  0.65053  0.70613  Biso   1.000  C
  C78      1.0000 0.79927  0.53913  0.72983  Biso   1.000  C
  N79      1.0000 0.82427  0.50143  0.68243  Biso   1.000  N
  O77      1.0000 0.87337  0.50683  0.68913  Biso   1.000  O
  O78      1.0000 0.78187  0.47043  0.61963  Biso   1.000  O
  C79      1.0000 0.08687  0.63553  0.78203  Biso   1.000  C
  H115     1.0000 0.05527  0.60663  0.82523  Biso   1.000  H
  H116     1.0000 0.10967  0.61393  0.75733  Biso   1.000  H
  H117     1.0000 0.11927  0.67733  0.80863  Biso   1.000  H
  N80      1.0000 0.08117  0.62503  0.74533  Biso   1.000  N
  O79      1.0000 0.13447  0.63443  0.71663  Biso   1.000  O
  O80      1.0000 0.05977  0.60063  0.81433  Biso   1.000  O
  C80      1.0000 0.82107  0.50583  0.66913  Biso   1.000  C
  H118     1.0000 0.86517  0.51433  0.68523  Biso   1.000  H
  H119     1.0000 0.78997  0.45813  0.67033  Biso   1.000  H
  H120     1.0000 0.82257  0.52283  0.61153  Biso   1.000  H
  N81      1.0000 0.65271  0.97357  0.06357  Biso   1.000  N
  N82      1.0000 0.50461  0.91259  0.12827  Biso   1.000  N
  C81      1.0000 0.71353  0.98387  0.03947  Biso   1.000  C
  C82      1.0000 0.46593  0.87247  0.06317  Biso   1.000  C
  N83      1.0000 0.49093  0.83477  0.01577  Biso   1.000  N
  O81      1.0000 0.54003  0.84017  0.02247  Biso   1.000  O
  O82      1.0000 0.44853  0.80377  0.95297  Biso   1.000  O
  C83      1.0000 0.75353  0.96887  0.11537  Biso   1.000  C
  H121     1.0000 0.72193  0.93997  0.15857  Biso   1.000  H
  H122     1.0000 0.77633  0.94727  0.09067  Biso   1.000  H
  H123     1.0000 0.78593  0.01067  0.14197  Biso   1.000  H
  N84      1.0000 0.74783  0.95837  0.07867  Biso   1.000  N
  O83      1.0000 0.80113  0.96777  0.04997  Biso   1.000  O
  O84      1.0000 0.72643  0.93397  0.14767  Biso   1.000  O
  C84      1.0000 0.48773  0.83917  0.00247  Biso   1.000  C
  H124     1.0000 0.53183  0.84767  0.01857  Biso   1.000  H
  H125     1.0000 0.45663  0.79147  0.00367  Biso   1.000  H
  H126     1.0000 0.48923  0.85617  0.94487  Biso   1.000  H
  N85      1.0000 0.69310  0.01248  0.39690  Biso   1.000  N
  N86      1.0000 0.75408  0.92536  0.46160  Biso   1.000  N
  C85      1.0000 0.68280  0.06300  0.37280  Biso   1.000  C
  C86      1.0000 0.79420  0.92680  0.39650  Biso   1.000  C
  N87      1.0000 0.83190  0.98950  0.34910  Biso   1.000  N
  O85      1.0000 0.82650  0.03320  0.35580  Biso   1.000  O
  O86      1.0000 0.86290  0.97810  0.28630  Biso   1.000  O
  C87      1.0000 0.69780  0.11800  0.44870  Biso   1.000  C
  H127     1.0000 0.72670  0.11530  0.49190  Biso   1.000  H
  H128     1.0000 0.71940  0.16240  0.42400  Biso   1.000  H
  H129     1.0000 0.65600  0.10860  0.47530  Biso   1.000  H
  N88      1.0000 0.70830  0.12280  0.41200  Biso   1.000  N
  O87      1.0000 0.69890  0.16670  0.38330  Biso   1.000  O
  O88      1.0000 0.73270  0.12580  0.48100  Biso   1.000  O
  C88      1.0000 0.82750  0.98190  0.33580  Biso   1.000  C
  H130     1.0000 0.81900  0.01750  0.35190  Biso   1.000  H
  H131     1.0000 0.87520  0.99850  0.33700  Biso   1.000  H
  H132     1.0000 0.81050  0.96640  0.27820  Biso   1.000  H
  N89      1.0000 0.35977  0.34581  0.73023  Biso   1.000  N
  N90      1.0000 0.42075  0.25869  0.79493  Biso   1.000  N
  C89      1.0000 0.34947  0.39633  0.70613  Biso   1.000  C
  C90      1.0000 0.46087  0.26013  0.72983  Biso   1.000  C
  N91      1.0000 0.49857  0.32283  0.68243  Biso   1.000  N
  O89      1.0000 0.49317  0.36653  0.68913  Biso   1.000  O
  O90      1.0000 0.52957  0.31143  0.61963  Biso   1.000  O
  C91      1.0000 0.36447  0.45133  0.78203  Biso   1.000  C
  H133     1.0000 0.39337  0.44863  0.82523  Biso   1.000  H
  H134     1.0000 0.38607  0.49573  0.75733  Biso   1.000  H
  H135     1.0000 0.32267  0.44193  0.80863  Biso   1.000  H
  N92      1.0000 0.37497  0.45613  0.74533  Biso   1.000  N
  O91      1.0000 0.36557  0.50003  0.71663  Biso   1.000  O
  O92      1.0000 0.39937  0.45913  0.81433  Biso   1.000  O
  C92      1.0000 0.49417  0.31523  0.66913  Biso   1.000  C
  H136     1.0000 0.48567  0.35083  0.68523  Biso   1.000  H
  H137     1.0000 0.54187  0.33183  0.67033  Biso   1.000  H
  H138     1.0000 0.47717  0.29973  0.61153  Biso   1.000  H
  N93      1.0000 0.02643  0.67915  0.06357  Biso   1.000  N
  N94      1.0000 0.08741  0.59203  0.12827  Biso   1.000  N
  C93      1.0000 0.01613  0.72967  0.03947  Biso   1.000  C
  C94      1.0000 0.12753  0.59347  0.06317  Biso   1.000  C
  N95      1.0000 0.16523  0.65617  0.01577  Biso   1.000  N
  O93      1.0000 0.15983  0.69987  0.02247  Biso   1.000  O
  O94      1.0000 0.19623  0.64477  0.95297  Biso   1.000  O
  C95      1.0000 0.03113  0.78467  0.11537  Biso   1.000  C
  H139     1.0000 0.06003  0.78197  0.15857  Biso   1.000  H
  H140     1.0000 0.05273  0.82907  0.09067  Biso   1.000  H
  H141     1.0000 0.98933  0.77527  0.14197  Biso   1.000  H
  N96      1.0000 0.04163  0.78947  0.07867  Biso   1.000  N
  O95      1.0000 0.03223  0.83337  0.04997  Biso   1.000  O
  O96      1.0000 0.06603  0.79247  0.14767  Biso   1.000  O
  C96      1.0000 0.16083  0.64857  0.00247  Biso   1.000  C
  H142     1.0000 0.15233  0.68417  0.01857  Biso   1.000  H
  H143     1.0000 0.20853  0.66517  0.00367  Biso   1.000  H
  H144     1.0000 0.14383  0.63307  0.94487  Biso   1.000  H
  N97      1.0000 0.98752  0.68062  0.39690  Biso   1.000  N
  N98      1.0000 0.07464  0.82872  0.46160  Biso   1.000  N
  C97      1.0000 0.93700  0.61980  0.37280  Biso   1.000  C
  C98      1.0000 0.07320  0.86740  0.39650  Biso   1.000  C
  N99      1.0000 0.01050  0.84240  0.34910  Biso   1.000  N
  O97      1.0000 0.96680  0.79330  0.35580  Biso   1.000  O
  O98      1.0000 0.02190  0.88480  0.28630  Biso   1.000  O
  C99      1.0000 0.88200  0.57980  0.44870  Biso   1.000  C
  H145     1.0000 0.88470  0.61140  0.49190  Biso   1.000  H
  H146     1.0000 0.83760  0.55700  0.42400  Biso   1.000  H
  H147     1.0000 0.89140  0.54740  0.47530  Biso   1.000  H
  N100     1.0000 0.87720  0.58550  0.41200  Biso   1.000  N
  O99      1.0000 0.83330  0.53220  0.38330  Biso   1.000  O
  O100     1.0000 0.87420  0.60690  0.48100  Biso   1.000  O
  C100     1.0000 0.01810  0.84560  0.33580  Biso   1.000  C
  H148     1.0000 0.98250  0.80150  0.35190  Biso   1.000  H
  H149     1.0000 0.00150  0.87670  0.33700  Biso   1.000  H
  H150     1.0000 0.03360  0.84410  0.27820  Biso   1.000  H
  N101     1.0000 0.65419  0.01395  0.73023  Biso   1.000  N
  N102     1.0000 0.74131  0.16205  0.79493  Biso   1.000  N
  C101     1.0000 0.60367  0.95313  0.70613  Biso   1.000  C
  C102     1.0000 0.73987  0.20073  0.72983  Biso   1.000  C
  N103     1.0000 0.67717  0.17573  0.68243  Biso   1.000  N
  O101     1.0000 0.63347  0.12663  0.68913  Biso   1.000  O
  O102     1.0000 0.68857  0.21813  0.61963  Biso   1.000  O
  C103     1.0000 0.54867  0.91313  0.78203  Biso   1.000  C
  H151     1.0000 0.55137  0.94473  0.82523  Biso   1.000  H
  H152     1.0000 0.50427  0.89033  0.75733  Biso   1.000  H
  H153     1.0000 0.55807  0.88073  0.80863  Biso   1.000  H
  N104     1.0000 0.54387  0.91883  0.74533  Biso   1.000  N
  O103     1.0000 0.49997  0.86553  0.71663  Biso   1.000  O
  O104     1.0000 0.54087  0.94023  0.81433  Biso   1.000  O
  C104     1.0000 0.68477  0.17893  0.66913  Biso   1.000  C
  H154     1.0000 0.64917  0.13483  0.68523  Biso   1.000  H
  H155     1.0000 0.66817  0.21003  0.67033  Biso   1.000  H
  H156     1.0000 0.70027  0.17743  0.61153  Biso   1.000  H
  N105     1.0000 0.32085  0.34729  0.06357  Biso   1.000  N
  N106     1.0000 0.40797  0.49539  0.12827  Biso   1.000  N
  C105     1.0000 0.27033  0.28647  0.03947  Biso   1.000  C
  C106     1.0000 0.40653  0.53407  0.06317  Biso   1.000  C
  N107     1.0000 0.34383  0.50907  0.01577  Biso   1.000  N
  O105     1.0000 0.30013  0.45997  0.02247  Biso   1.000  O
  O106     1.0000 0.35523  0.55147  0.95297  Biso   1.000  O
  C107     1.0000 0.21533  0.24647  0.11537  Biso   1.000  C
  H157     1.0000 0.21803  0.27807  0.15857  Biso   1.000  H
  H158     1.0000 0.17093  0.22367  0.09067  Biso   1.000  H
  H159     1.0000 0.22473  0.21407  0.14197  Biso   1.000  H
  N108     1.0000 0.21053  0.25217  0.07867  Biso   1.000  N
  O107     1.0000 0.16663  0.19887  0.04997  Biso   1.000  O
  O108     1.0000 0.20753  0.27357  0.14767  Biso   1.000  O
  C108     1.0000 0.35143  0.51227  0.00247  Biso   1.000  C
  H160     1.0000 0.31583  0.46817  0.01857  Biso   1.000  H
  H161     1.0000 0.33483  0.54337  0.00367  Biso   1.000  H
  H162     1.0000 0.36693  0.51077  0.94487  Biso   1.000  H
  N109     1.0000 0.30690  0.31938  0.60310  Biso   1.000  N
  N110     1.0000 0.24592  0.17128  0.53840  Biso   1.000  N
  C109     1.0000 0.31720  0.38020  0.62720  Biso   1.000  C
  C110     1.0000 0.20580  0.13260  0.60350  Biso   1.000  C
  N111     1.0000 0.16810  0.15760  0.65090  Biso   1.000  N
  O109     1.0000 0.17350  0.20670  0.64420  Biso   1.000  O
  O110     1.0000 0.13710  0.11520  0.71370  Biso   1.000  O
  C111     1.0000 0.30220  0.42020  0.55130  Biso   1.000  C
  H163     1.0000 0.27330  0.38860  0.50810  Biso   1.000  H
  H164     1.0000 0.28060  0.44300  0.57600  Biso   1.000  H
  H165     1.0000 0.34400  0.45260  0.52470  Biso   1.000  H
  N112     1.0000 0.29170  0.41450  0.58800  Biso   1.000  N
  O111     1.0000 0.30110  0.46780  0.61670  Biso   1.000  O
  O112     1.0000 0.26730  0.39310  0.51900  Biso   1.000  O
  C112     1.0000 0.17250  0.15440  0.66420  Biso   1.000  C
  H166     1.0000 0.18100  0.19850  0.64810  Biso   1.000  H
  H167     1.0000 0.12480  0.12330  0.66300  Biso   1.000  H
  H168     1.0000 0.18950  0.15590  0.72180  Biso   1.000  H
  N113     1.0000 0.97357  0.65271  0.93643  Biso   1.000  N
  N114     1.0000 0.91259  0.50461  0.87173  Biso   1.000  N
  C113     1.0000 0.98387  0.71353  0.96053  Biso   1.000  C
  C114     1.0000 0.87247  0.46593  0.93683  Biso   1.000  C
  N115     1.0000 0.83477  0.49093  0.98423  Biso   1.000  N
  O113     1.0000 0.84017  0.54003  0.97753  Biso   1.000  O
  O114     1.0000 0.80377  0.44853  0.04703  Biso   1.000  O
  C115     1.0000 0.96887  0.75353  0.88463  Biso   1.000  C
  H169     1.0000 0.93997  0.72193  0.84143  Biso   1.000  H
  H170     1.0000 0.94727  0.77633  0.90933  Biso   1.000  H
  H171     1.0000 0.01067  0.78593  0.85803  Biso   1.000  H
  N116     1.0000 0.95837  0.74783  0.92133  Biso   1.000  N
  O115     1.0000 0.96777  0.80113  0.95003  Biso   1.000  O
  O116     1.0000 0.93397  0.72643  0.85233  Biso   1.000  O
  C116     1.0000 0.83917  0.48773  0.99753  Biso   1.000  C
  H172     1.0000 0.84767  0.53183  0.98143  Biso   1.000  H
  H173     1.0000 0.79147  0.45663  0.99633  Biso   1.000  H
  H174     1.0000 0.85617  0.48923  0.05513  Biso   1.000  H
  N117     1.0000 0.64023  0.98605  0.26977  Biso   1.000  N
  N118     1.0000 0.57925  0.83795  0.20507  Biso   1.000  N
  C117     1.0000 0.65053  0.04687  0.29387  Biso   1.000  C
  C118     1.0000 0.53913  0.79927  0.27017  Biso   1.000  C
  N119     1.0000 0.50143  0.82427  0.31757  Biso   1.000  N
  O117     1.0000 0.50683  0.87337  0.31087  Biso   1.000  O
  O118     1.0000 0.47043  0.78187  0.38037  Biso   1.000  O
  C119     1.0000 0.63553  0.08687  0.21797  Biso   1.000  C
  H175     1.0000 0.60663  0.05527  0.17477  Biso   1.000  H
  H176     1.0000 0.61393  0.10967  0.24267  Biso   1.000  H
  H177     1.0000 0.67733  0.11927  0.19137  Biso   1.000  H
  N120     1.0000 0.62503  0.08117  0.25467  Biso   1.000  N
  O119     1.0000 0.63443  0.13447  0.28337  Biso   1.000  O
  O120     1.0000 0.60063  0.05977  0.18567  Biso   1.000  O
  C120     1.0000 0.50583  0.82107  0.33087  Biso   1.000  C
  H178     1.0000 0.51433  0.86517  0.31477  Biso   1.000  H
  H179     1.0000 0.45813  0.78997  0.32967  Biso   1.000  H
  H180     1.0000 0.52283  0.82257  0.38847  Biso   1.000  H
  N121     1.0000 0.01248  0.69310  0.60310  Biso   1.000  N
  N122     1.0000 0.92536  0.75408  0.53840  Biso   1.000  N
  C121     1.0000 0.06300  0.68280  0.62720  Biso   1.000  C
  C122     1.0000 0.92680  0.79420  0.60350  Biso   1.000  C
  N123     1.0000 0.98950  0.83190  0.65090  Biso   1.000  N
  O121     1.0000 0.03320  0.82650  0.64420  Biso   1.000  O
  O122     1.0000 0.97810  0.86290  0.71370  Biso   1.000  O
  C123     1.0000 0.11800  0.69780  0.55130  Biso   1.000  C
  H181     1.0000 0.11530  0.72670  0.50810  Biso   1.000  H
  H182     1.0000 0.16240  0.71940  0.57600  Biso   1.000  H
  H183     1.0000 0.10860  0.65600  0.52470  Biso   1.000  H
  N124     1.0000 0.12280  0.70830  0.58800  Biso   1.000  N
  O123     1.0000 0.16670  0.69890  0.61670  Biso   1.000  O
  O124     1.0000 0.12580  0.73270  0.51900  Biso   1.000  O
  C124     1.0000 0.98190  0.82750  0.66420  Biso   1.000  C
  H184     1.0000 0.01750  0.81900  0.64810  Biso   1.000  H
  H185     1.0000 0.99850  0.87520  0.66300  Biso   1.000  H
  H186     1.0000 0.96640  0.81050  0.72180  Biso   1.000  H
  N125     1.0000 0.67915  0.02643  0.93643  Biso   1.000  N
  N126     1.0000 0.59203  0.08741  0.87173  Biso   1.000  N
  C125     1.0000 0.72967  0.01613  0.96053  Biso   1.000  C
  C126     1.0000 0.59347  0.12753  0.93683  Biso   1.000  C
  N127     1.0000 0.65617  0.16523  0.98423  Biso   1.000  N
  O125     1.0000 0.69987  0.15983  0.97753  Biso   1.000  O
  O126     1.0000 0.64477  0.19623  0.04703  Biso   1.000  O
  C127     1.0000 0.78467  0.03113  0.88463  Biso   1.000  C
  H187     1.0000 0.78197  0.06003  0.84143  Biso   1.000  H
  H188     1.0000 0.82907  0.05273  0.90933  Biso   1.000  H
  H189     1.0000 0.77527  0.98933  0.85803  Biso   1.000  H
  N128     1.0000 0.78947  0.04163  0.92133  Biso   1.000  N
  O127     1.0000 0.83337  0.03223  0.95003  Biso   1.000  O
  O128     1.0000 0.79247  0.06603  0.85233  Biso   1.000  O
  C128     1.0000 0.64857  0.16083  0.99753  Biso   1.000  C
  H190     1.0000 0.68417  0.15233  0.98143  Biso   1.000  H
  H191     1.0000 0.66517  0.20853  0.99633  Biso   1.000  H
  H192     1.0000 0.63307  0.14383  0.05513  Biso   1.000  H
  N129     1.0000 0.34581  0.35977  0.26977  Biso   1.000  N
  N130     1.0000 0.25869  0.42075  0.20507  Biso   1.000  N
  C129     1.0000 0.39633  0.34947  0.29387  Biso   1.000  C
  C130     1.0000 0.26013  0.46087  0.27017  Biso   1.000  C
  N131     1.0000 0.32283  0.49857  0.31757  Biso   1.000  N
  O129     1.0000 0.36653  0.49317  0.31087  Biso   1.000  O
  O130     1.0000 0.31143  0.52957  0.38037  Biso   1.000  O
  C131     1.0000 0.45133  0.36447  0.21797  Biso   1.000  C
  H193     1.0000 0.44863  0.39337  0.17477  Biso   1.000  H
  H194     1.0000 0.49573  0.38607  0.24267  Biso   1.000  H
  H195     1.0000 0.44193  0.32267  0.19137  Biso   1.000  H
  N132     1.0000 0.45613  0.37497  0.25467  Biso   1.000  N
  O131     1.0000 0.50003  0.36557  0.28337  Biso   1.000  O
  O132     1.0000 0.45913  0.39937  0.18567  Biso   1.000  O
  C132     1.0000 0.31523  0.49417  0.33087  Biso   1.000  C
  H196     1.0000 0.35083  0.48567  0.31477  Biso   1.000  H
  H197     1.0000 0.33183  0.54187  0.32967  Biso   1.000  H
  H198     1.0000 0.29973  0.47717  0.38847  Biso   1.000  H
  N133     1.0000 0.68062  0.98752  0.60310  Biso   1.000  N
  N134     1.0000 0.82872  0.07464  0.53840  Biso   1.000  N
  C133     1.0000 0.61980  0.93700  0.62720  Biso   1.000  C
  C134     1.0000 0.86740  0.07320  0.60350  Biso   1.000  C
  N135     1.0000 0.84240  0.01050  0.65090  Biso   1.000  N
  O133     1.0000 0.79330  0.96680  0.64420  Biso   1.000  O
  O134     1.0000 0.88480  0.02190  0.71370  Biso   1.000  O
  C135     1.0000 0.57980  0.88200  0.55130  Biso   1.000  C
  H199     1.0000 0.61140  0.88470  0.50810  Biso   1.000  H
  H200     1.0000 0.55700  0.83760  0.57600  Biso   1.000  H
  H201     1.0000 0.54740  0.89140  0.52470  Biso   1.000  H
  N136     1.0000 0.58550  0.87720  0.58800  Biso   1.000  N
  O135     1.0000 0.53220  0.83330  0.61670  Biso   1.000  O
  O136     1.0000 0.60690  0.87420  0.51900  Biso   1.000  O
  C136     1.0000 0.84560  0.01810  0.66420  Biso   1.000  C
  H202     1.0000 0.80150  0.98250  0.64810  Biso   1.000  H
  H203     1.0000 0.87670  0.00150  0.66300  Biso   1.000  H
  H204     1.0000 0.84410  0.03360  0.72180  Biso   1.000  H
  N137     1.0000 0.34729  0.32085  0.93643  Biso   1.000  N
  N138     1.0000 0.49539  0.40797  0.87173  Biso   1.000  N
  C137     1.0000 0.28647  0.27033  0.96053  Biso   1.000  C
  C138     1.0000 0.53407  0.40653  0.93683  Biso   1.000  C
  N139     1.0000 0.50907  0.34383  0.98423  Biso   1.000  N
  O137     1.0000 0.45997  0.30013  0.97753  Biso   1.000  O
  O138     1.0000 0.55147  0.35523  0.04703  Biso   1.000  O
  C139     1.0000 0.24647  0.21533  0.88463  Biso   1.000  C
  H205     1.0000 0.27807  0.21803  0.84143  Biso   1.000  H
  H206     1.0000 0.22367  0.17093  0.90933  Biso   1.000  H
  H207     1.0000 0.21407  0.22473  0.85803  Biso   1.000  H
  N140     1.0000 0.25217  0.21053  0.92133  Biso   1.000  N
  O139     1.0000 0.19887  0.16663  0.95003  Biso   1.000  O
  O140     1.0000 0.27357  0.20753  0.85233  Biso   1.000  O
  C140     1.0000 0.51227  0.35143  0.99753  Biso   1.000  C
  H208     1.0000 0.46817  0.31583  0.98143  Biso   1.000  H
  H209     1.0000 0.54337  0.33483  0.99633  Biso   1.000  H
  H210     1.0000 0.51077  0.36693  0.05513  Biso   1.000  H
  N141     1.0000 0.01395  0.65419  0.26977  Biso   1.000  N
  N142     1.0000 0.16205  0.74131  0.20507  Biso   1.000  N
  C141     1.0000 0.95313  0.60367  0.29387  Biso   1.000  C
  C142     1.0000 0.20073  0.73987  0.27017  Biso   1.000  C
  N143     1.0000 0.17573  0.67717  0.31757  Biso   1.000  N
  O141     1.0000 0.12663  0.63347  0.31087  Biso   1.000  O
  O142     1.0000 0.21813  0.68857  0.38037  Biso   1.000  O
  C143     1.0000 0.91313  0.54867  0.21797  Biso   1.000  C
  H211     1.0000 0.94473  0.55137  0.17477  Biso   1.000  H
  H212     1.0000 0.89033  0.50427  0.24267  Biso   1.000  H
  H213     1.0000 0.88073  0.55807  0.19137  Biso   1.000  H
  N144     1.0000 0.91883  0.54387  0.25467  Biso   1.000  N
  O143     1.0000 0.86553  0.49997  0.28337  Biso   1.000  O
  O144     1.0000 0.94023  0.54087  0.18567  Biso   1.000  O
  C144     1.0000 0.17893  0.68477  0.33087  Biso   1.000  C
  H214     1.0000 0.13483  0.64917  0.31477  Biso   1.000  H
  H215     1.0000 0.21003  0.66817  0.32967  Biso   1.000  H
  H216     1.0000 0.17743  0.70027  0.38847  Biso   1.000  H
  Zn1      1.0000 0.73834  0.73834  0.50000  Biso   1.000  Zn
  Zn2      1.0000 0.40501  0.07167  0.83333  Biso   1.000  Zn
  Zn3      1.0000 0.07167  0.40501  0.16667  Biso   1.000  Zn
  Zn4      1.0000 0.26166  0.00000  0.50000  Biso   1.000  Zn
  Zn5      1.0000 0.92833  0.33333  0.83333  Biso   1.000  Zn
  Zn6      1.0000 0.59499  0.66667  0.16667  Biso   1.000  Zn
  Zn7      1.0000 0.00000  0.26166  0.50000  Biso   1.000  Zn
  Zn8      1.0000 0.66667  0.59499  0.83333  Biso   1.000  Zn
  Zn9      1.0000 0.33333  0.92833  0.16667  Biso   1.000  Zn
  Zn10     1.0000 0.26166  0.26166  0.50000  Biso   1.000  Zn
  Zn11     1.0000 0.92833  0.59499  0.83333  Biso   1.000  Zn
  Zn12     1.0000 0.59499  0.92833  0.16667  Biso   1.000  Zn
  Zn13     1.0000 0.73834  0.00000  0.50000  Biso   1.000  Zn
  Zn14     1.0000 0.40501  0.33333  0.83333  Biso   1.000  Zn
  Zn15     1.0000 0.07167  0.66667  0.16667  Biso   1.000  Zn
  Zn16     1.0000 0.00000  0.73834  0.50000  Biso   1.000  Zn
  Zn17     1.0000 0.66667  0.07167  0.83333  Biso   1.000  Zn
  Zn18     1.0000 0.33333  0.40501  0.16667  Biso   1.000  Zn
  C145     1.0000 0.69898  0.66667  0.66667  Biso   1.000  C
  H217     1.0000 0.73958  0.66667  0.66667  Biso   1.000  H
  C146     1.0000 0.36565  0.00000  0.00000  Biso   1.000  C
  H218     1.0000 0.40625  0.00000  0.00000  Biso   1.000  H
  C147     1.0000 0.33333  0.03232  0.66667  Biso   1.000  C
  H219     1.0000 0.33333  0.07292  0.66667  Biso   1.000  H
  C148     1.0000 0.00000  0.36565  0.00000  Biso   1.000  C
  H220     1.0000 0.00000  0.40625  0.00000  Biso   1.000  H
  C149     1.0000 0.96768  0.30102  0.66667  Biso   1.000  C
  H221     1.0000 0.92708  0.26042  0.66667  Biso   1.000  H
  C150     1.0000 0.63435  0.63435  0.00000  Biso   1.000  C
  H222     1.0000 0.59375  0.59375  0.00000  Biso   1.000  H
  C151     1.0000 0.66667  0.69898  0.33333  Biso   1.000  C
  H223     1.0000 0.66667  0.73958  0.33333  Biso   1.000  H
  C152     1.0000 0.03232  0.33333  0.33333  Biso   1.000  C
  H224     1.0000 0.07292  0.33333  0.33333  Biso   1.000  H
  C153     1.0000 0.30102  0.96768  0.33333  Biso   1.000  C
  H225     1.0000 0.26042  0.92708  0.33333  Biso   1.000  H
  C154     1.0000 0.30102  0.33333  0.33333  Biso   1.000  C
  H226     1.0000 0.26042  0.33333  0.33333  Biso   1.000  H
  C155     1.0000 0.66667  0.96768  0.33333  Biso   1.000  C
  H227     1.0000 0.66667  0.92708  0.33333  Biso   1.000  H
  C156     1.0000 0.03232  0.69898  0.33333  Biso   1.000  C
  H228     1.0000 0.07292  0.73958  0.33333  Biso   1.000  H
  C157     1.0000 0.33333  0.30102  0.66667  Biso   1.000  C
  H229     1.0000 0.33333  0.26042  0.66667  Biso   1.000  H
  C158     1.0000 0.00000  0.63435  0.00000  Biso   1.000  C
  H230     1.0000 0.00000  0.59375  0.00000  Biso   1.000  H
  C159     1.0000 0.96768  0.66667  0.66667  Biso   1.000  C
  H231     1.0000 0.92708  0.66667  0.66667  Biso   1.000  H
  C160     1.0000 0.63435  0.00000  0.00000  Biso   1.000  C
  H232     1.0000 0.59375  0.00000  0.00000  Biso   1.000  H
  C161     1.0000 0.69898  0.03232  0.66667  Biso   1.000  C
  H233     1.0000 0.73958  0.07292  0.66667  Biso   1.000  H
  C162     1.0000 0.36565  0.36565  0.00000  Biso   1.000  C
  H234     1.0000 0.40625  0.40625  0.00000  Biso   1.000  H
  C163     1.0000 0.86650  0.73300  0.50120  Biso   1.000  C
  H235     1.0000 0.85265  0.70530  0.45230  Biso   1.000  H
  C164     1.0000 0.53317  0.06633  0.83453  Biso   1.000  C
  H236     1.0000 0.51932  0.03863  0.78563  Biso   1.000  H
  C165     1.0000 0.19983  0.39967  0.16787  Biso   1.000  C
  H237     1.0000 0.18598  0.37197  0.11897  Biso   1.000  H
  C166     1.0000 0.26700  0.13350  0.50120  Biso   1.000  C
  H238     1.0000 0.29470  0.14735  0.45230  Biso   1.000  H
  C167     1.0000 0.93367  0.46683  0.83453  Biso   1.000  C
  H239     1.0000 0.96137  0.48068  0.78563  Biso   1.000  H
  C168     1.0000 0.60033  0.80017  0.16787  Biso   1.000  C
  H240     1.0000 0.62803  0.81402  0.11897  Biso   1.000  H
  C169     1.0000 0.86650  0.13350  0.50120  Biso   1.000  C
  H241     1.0000 0.85265  0.14735  0.45230  Biso   1.000  H
  C170     1.0000 0.53317  0.46683  0.83453  Biso   1.000  C
  H242     1.0000 0.51932  0.48068  0.78563  Biso   1.000  H
  C171     1.0000 0.19983  0.80017  0.16787  Biso   1.000  C
  H243     1.0000 0.18598  0.81402  0.11897  Biso   1.000  H
  C172     1.0000 0.73300  0.86650  0.49880  Biso   1.000  C
  H244     1.0000 0.70530  0.85265  0.54770  Biso   1.000  H
  C173     1.0000 0.39967  0.19983  0.83213  Biso   1.000  C
  H245     1.0000 0.37197  0.18598  0.88103  Biso   1.000  H
  C174     1.0000 0.06633  0.53317  0.16547  Biso   1.000  C
  H246     1.0000 0.03863  0.51932  0.21437  Biso   1.000  H
  C175     1.0000 0.13350  0.26700  0.49880  Biso   1.000  C
  H247     1.0000 0.14735  0.29470  0.54770  Biso   1.000  H
  C176     1.0000 0.80017  0.60033  0.83213  Biso   1.000  C
  H248     1.0000 0.81402  0.62803  0.88103  Biso   1.000  H
  C177     1.0000 0.46683  0.93367  0.16547  Biso   1.000  C
  H249     1.0000 0.48068  0.96137  0.21437  Biso   1.000  H
  C178     1.0000 0.13350  0.86650  0.49880  Biso   1.000  C
  H250     1.0000 0.14735  0.85265  0.54770  Biso   1.000  H
  C179     1.0000 0.80017  0.19983  0.83213  Biso   1.000  C
  H251     1.0000 0.81402  0.18598  0.88103  Biso   1.000  H
  C180     1.0000 0.46683  0.53317  0.16547  Biso   1.000  C
  H252     1.0000 0.48068  0.51932  0.21437  Biso   1.000  H
