data_image0
_cell_length_a       34.2658
_cell_length_b       34.2658
_cell_length_c       21.8681
_cell_angle_alpha    90
_cell_angle_beta     90
_cell_angle_gamma    120

_symmetry_space_group_name_H-M    "P 1"
_symmetry_int_tables_number       1

loop_
  _symmetry_equiv_pos_as_xyz
  'x, y, z'

loop_
  _atom_site_label
  _atom_site_occupancy
  _atom_site_fract_x
  _atom_site_fract_y
  _atom_site_fract_z
  _atom_site_thermal_displace_type
  _atom_site_B_iso_or_equiv
  _atom_site_type_symbol
  La1      1.0000 0.04516  0.96919  0.66368  Biso   1.000  La
  La2      1.0000 0.40953  0.69778  0.37481  Biso   1.000  La
  La3      1.0000 0.36418  0.62098  0.54099  Biso   1.000  La
  O1       1.0000 0.13010  0.03850  0.69280  Biso   1.000  O
  O2       1.0000 0.10080  0.98520  0.47360  Biso   1.000  O
  O3       1.0000 0.97500  0.99330  0.78620  Biso   1.000  O
  O4       1.0000 0.05740  0.96350  0.55180  Biso   1.000  O
  O5       1.0000 0.10370  0.04950  0.60600  Biso   1.000  O
  O6       1.0000 0.03570  0.02440  0.72630  Biso   1.000  O
  O7       1.0000 0.28480  0.56990  0.59480  Biso   1.000  O
  O8       1.0000 0.64740  0.30250  0.48440  Biso   1.000  O
  O9       1.0000 0.34310  0.69130  0.42580  Biso   1.000  O
  O10      1.0000 0.77990  0.34560  0.56660  Biso   1.000  O
  O11      1.0000 0.71230  0.29800  0.66050  Biso   1.000  O
  O12      1.0000 0.31190  0.63470  0.48430  Biso   1.000  O
  O13      1.0000 0.67650  0.35820  0.42490  Biso   1.000  O
  O14      1.0000 0.39200  0.56960  0.55910  Biso   1.000  O
  O15      1.0000 0.38160  0.61720  0.42670  Biso   1.000  O
  O16      1.0000 0.30170  0.54080  0.51540  Biso   1.000  O
  O17      1.0000 0.67630  0.23130  0.73020  Biso   1.000  O
  O18      1.0000 0.42800  0.63550  0.35270  Biso   1.000  O
  O19      1.0000 0.74760  0.37710  0.49270  Biso   1.000  O
  N1       1.0000 0.41440  0.51710  0.59380  Biso   1.000  N
  C1       1.0000 0.07040  0.90930  0.49230  Biso   1.000  C
  C2       1.0000 0.82510  0.42170  0.53970  Biso   1.000  C
  C3       1.0000 0.86760  0.31980  0.64180  Biso   1.000  C
  C4       1.0000 0.75460  0.26190  0.70680  Biso   1.000  C
  C5       1.0000 0.17070  0.10420  0.64320  Biso   1.000  C
  C6       1.0000 0.90700  0.31910  0.64650  Biso   1.000  C
  C7       1.0000 0.13310  0.06240  0.65090  Biso   1.000  C
  C8       1.0000 0.16380  0.62680  0.54900  Biso   1.000  C
  C9       1.0000 0.99590  0.01780  0.75190  Biso   1.000  C
  C10      1.0000 0.41860  0.55560  0.56080  Biso   1.000  C
  C11      1.0000 0.37200  0.49460  0.62760  Biso   1.000  C
  C12      1.0000 0.42800  0.48530  0.61470  Biso   1.000  C
  C13      1.0000 0.45960  0.33140  0.51780  Biso   1.000  C
  C14      1.0000 0.17270  0.13830  0.61270  Biso   1.000  C
  C15      1.0000 0.29260  0.22310  0.60320  Biso   1.000  C
  C16      1.0000 0.03540  0.28700  0.66350  Biso   1.000  C
  C17      1.0000 0.06880  0.78740  0.48200  Biso   1.000  C
  C18      1.0000 0.04350  0.87460  0.52510  Biso   1.000  C
  C19      1.0000 0.06890  0.82760  0.48020  Biso   1.000  C
  C20      1.0000 0.25470  0.18480  0.62110  Biso   1.000  C
  C21      1.0000 0.25200  0.24960  0.53850  Biso   1.000  C
  C22      1.0000 0.00030  0.20540  0.68360  Biso   1.000  C
  C23      1.0000 0.41630  0.36790  0.49890  Biso   1.000  C
  C24      1.0000 0.01350  0.09000  0.70010  Biso   1.000  C
  C25      1.0000 0.41720  0.33280  0.51940  Biso   1.000  C
  C26      1.0000 0.95950  0.25020  0.68930  Biso   1.000  C
  C27      1.0000 0.21120  0.21000  0.55620  Biso   1.000  C
  C28      1.0000 0.04030  0.62570  0.52080  Biso   1.000  C
  C29      1.0000 0.08390  0.70600  0.51050  Biso   1.000  C
  C30      1.0000 0.99820  0.25080  0.67920  Biso   1.000  C
  C31      1.0000 0.19930  0.65250  0.50600  Biso   1.000  C
  C32      1.0000 0.09680  0.90530  0.45020  Biso   1.000  C
  C33      1.0000 0.19820  0.68490  0.46890  Biso   1.000  C
  C34      1.0000 0.37690  0.29400  0.54140  Biso   1.000  C
  C35      1.0000 0.03950  0.75130  0.52470  Biso   1.000  C
  C36      1.0000 0.33540  0.29410  0.53990  Biso   1.000  C
  C37      1.0000 0.83830  0.26380  0.71820  Biso   1.000  C
  C38      1.0000 0.07450  0.95530  0.50280  Biso   1.000  C
  C39      1.0000 0.99450  0.32770  0.66780  Biso   1.000  C
  C40      1.0000 0.12500  0.66620  0.51620  Biso   1.000  C
  C41      1.0000 0.29520  0.25840  0.55980  Biso   1.000  C
  C42      1.0000 0.23490  0.64410  0.50130  Biso   1.000  C
  C43      1.0000 0.48610  0.34920  0.47390  Biso   1.000  C
  C44      1.0000 0.00970  0.12830  0.69380  Biso   1.000  C
  C45      1.0000 0.14520  0.41320  0.57970  Biso   1.000  C
  C46      1.0000 0.04040  0.70710  0.51910  Biso   1.000  C
  C47      1.0000 0.21120  0.11480  0.66790  Biso   1.000  C
  C48      1.0000 0.02690  0.15840  0.63740  Biso   1.000  C
  C49      1.0000 0.08180  0.66540  0.51150  Biso   1.000  C
  C50      1.0000 0.09410  0.86430  0.44230  Biso   1.000  C
  C51      1.0000 0.87810  0.26070  0.72220  Biso   1.000  C
  C52      1.0000 0.40160  0.48100  0.42110  Biso   1.000  C
  C53      1.0000 0.95620  0.28910  0.68390  Biso   1.000  C
  C54      1.0000 0.00960  0.75350  0.56160  Biso   1.000  C
  C55      1.0000 0.07740  0.37180  0.63520  Biso   1.000  C
  C56      1.0000 0.40450  0.44060  0.43620  Biso   1.000  C
  C57      1.0000 0.85780  0.42630  0.58140  Biso   1.000  C
  C58      1.0000 0.90380  0.50430  0.55320  Biso   1.000  C
  C59      1.0000 0.94770  0.54590  0.55430  Biso   1.000  C
  C60      1.0000 0.26930  0.66800  0.45950  Biso   1.000  C
  C61      1.0000 0.57420  0.31700  0.50440  Biso   1.000  C
  C62      1.0000 0.19620  0.49490  0.59450  Biso   1.000  C
  C63      1.0000 0.03410  0.32700  0.65730  Biso   1.000  C
  C64      1.0000 0.26810  0.70030  0.42230  Biso   1.000  C
  C65      1.0000 0.98460  0.13710  0.73590  Biso   1.000  C
  C66      1.0000 0.25130  0.15080  0.66190  Biso   1.000  C
  C67      1.0000 0.00150  0.66870  0.52760  Biso   1.000  C
  C68      1.0000 0.01190  0.79250  0.56220  Biso   1.000  C
  C69      1.0000 0.34060  0.41860  0.49830  Biso   1.000  C
  C70      1.0000 0.53620  0.32160  0.50910  Biso   1.000  C
  C71      1.0000 0.99240  0.06050  0.74840  Biso   1.000  C
  C72      1.0000 0.37330  0.36960  0.49590  Biso   1.000  C
  C73      1.0000 0.33740  0.45510  0.48130  Biso   1.000  C
  C74      1.0000 0.08240  0.41160  0.66120  Biso   1.000  C
  C75      1.0000 0.10700  0.37240  0.59830  Biso   1.000  C
  C76      1.0000 0.00050  0.62540  0.52860  Biso   1.000  C
  C77      1.0000 0.36680  0.52870  0.43010  Biso   1.000  C
  C78      1.0000 0.96730  0.06930  0.79050  Biso   1.000  C
  C79      1.0000 0.21150  0.17810  0.59820  Biso   1.000  C
  C80      1.0000 0.22680  0.49560  0.55860  Biso   1.000  C
  C81      1.0000 0.02160  0.19550  0.64210  Biso   1.000  C
  C82      1.0000 0.39900  0.56150  0.39180  Biso   1.000  C
  C83      1.0000 0.79030  0.29410  0.67180  Biso   1.000  C
  C84      1.0000 0.97780  0.17390  0.73530  Biso   1.000  C
  C85      1.0000 0.50680  0.30280  0.55650  Biso   1.000  C
  C86      1.0000 0.27360  0.53790  0.55450  Biso   1.000  C
  C87      1.0000 0.60330  0.33520  0.45880  Biso   1.000  C
  C88      1.0000 0.87110  0.49980  0.51150  Biso   1.000  C
  C89      1.0000 0.37300  0.41170  0.47370  Biso   1.000  C
  C90      1.0000 0.83180  0.45850  0.50480  Biso   1.000  C
  C91      1.0000 0.36830  0.48650  0.44540  Biso   1.000  C
  C92      1.0000 0.18000  0.41310  0.54450  Biso   1.000  C
  C93      1.0000 0.83230  0.29490  0.67510  Biso   1.000  C
  C94      1.0000 0.53050  0.34900  0.46450  Biso   1.000  C
  C95      1.0000 0.95420  0.58140  0.52320  Biso   1.000  C
  C96      1.0000 0.15570  0.68810  0.47570  Biso   1.000  C
  C97      1.0000 0.11990  0.45050  0.64740  Biso   1.000  C
  C98      1.0000 0.33640  0.33120  0.51780  Biso   1.000  C
  C99      1.0000 0.91340  0.28880  0.68740  Biso   1.000  C
  C100     1.0000 0.03960  0.83060  0.52540  Biso   1.000  C
  C101     1.0000 0.43380  0.51180  0.38220  Biso   1.000  C
  C102     1.0000 0.88460  0.53710  0.48050  Biso   1.000  C
  C103     1.0000 0.76190  0.23690  0.74790  Biso   1.000  C
  C104     1.0000 0.89710  0.46760  0.58810  Biso   1.000  C
  C105     1.0000 0.46760  0.30550  0.56480  Biso   1.000  C
  C106     1.0000 0.96340  0.10760  0.78420  Biso   1.000  C
  C107     1.0000 0.56230  0.36640  0.41690  Biso   1.000  C
  C108     1.0000 0.78190  0.37760  0.53260  Biso   1.000  C
  C109     1.0000 0.92150  0.57570  0.48400  Biso   1.000  C
  C110     1.0000 0.12860  0.63120  0.55670  Biso   1.000  C
  C111     1.0000 0.43390  0.55590  0.36690  Biso   1.000  C
  C112     1.0000 0.23260  0.70880  0.42700  Biso   1.000  C
  C113     1.0000 0.15140  0.45250  0.60900  Biso   1.000  C
  C114     1.0000 0.80130  0.23750  0.75450  Biso   1.000  C
  C115     1.0000 0.59870  0.35970  0.41050  Biso   1.000  C
  C116     1.0000 0.22100  0.45330  0.53410  Biso   1.000  C
  C117     1.0000 0.71070  0.25910  0.69740  Biso   1.000  C
  C118     1.0000 0.40230  0.60560  0.38770  Biso   1.000  C
  C119     1.0000 0.64400  0.32750  0.45420  Biso   1.000  C
  C120     1.0000 0.30970  0.66150  0.45750  Biso   1.000  C
  H1       1.0000 0.86593  0.33937  0.61256  Biso   1.000  H
  H2       1.0000 0.93170  0.33955  0.62201  Biso   1.000  H
  H3       1.0000 0.16621  0.60521  0.57340  Biso   1.000  H
  H4       1.0000 0.44543  0.57217  0.53757  Biso   1.000  H
  H5       1.0000 0.36933  0.46797  0.64838  Biso   1.000  H
  H6       1.0000 0.34676  0.48525  0.59924  Biso   1.000  H
  H7       1.0000 0.37153  0.51533  0.65803  Biso   1.000  H
  H8       1.0000 0.40313  0.46062  0.63703  Biso   1.000  H
  H9       1.0000 0.45426  0.50075  0.64168  Biso   1.000  H
  H10      1.0000 0.43595  0.47302  0.57930  Biso   1.000  H
  H11      1.0000 0.14499  0.13522  0.59927  Biso   1.000  H
  H12      1.0000 0.32033  0.22811  0.61991  Biso   1.000  H
  H13      1.0000 0.06242  0.28631  0.65647  Biso   1.000  H
  H14      1.0000 0.08790  0.78285  0.45516  Biso   1.000  H
  H15      1.0000 0.02397  0.87851  0.55202  Biso   1.000  H
  H16      1.0000 0.25041  0.27062  0.51182  Biso   1.000  H
  H17      1.0000 0.44362  0.39318  0.48540  Biso   1.000  H
  H18      1.0000 0.03067  0.08405  0.67138  Biso   1.000  H
  H19      1.0000 0.93358  0.22266  0.70054  Biso   1.000  H
  H20      1.0000 0.18330  0.20475  0.53972  Biso   1.000  H
  H21      1.0000 0.03992  0.59776  0.52176  Biso   1.000  H
  H22      1.0000 0.11179  0.73297  0.50463  Biso   1.000  H
  H23      1.0000 0.11702  0.93055  0.42623  Biso   1.000  H
  H24      1.0000 0.37803  0.26860  0.55667  Biso   1.000  H
  H25      1.0000 0.99415  0.35510  0.66379  Biso   1.000  H
  H26      1.0000 0.23569  0.62201  0.52666  Biso   1.000  H
  H27      1.0000 0.47815  0.36397  0.44389  Biso   1.000  H
  H28      1.0000 0.21052  0.09226  0.69396  Biso   1.000  H
  H29      1.0000 0.03982  0.15220  0.60295  Biso   1.000  H
  H30      1.0000 0.11029  0.86088  0.40939  Biso   1.000  H
  H31      1.0000 0.87964  0.23960  0.74872  Biso   1.000  H
  H32      1.0000 0.98852  0.72869  0.58542  Biso   1.000  H
  H33      1.0000 0.42738  0.43571  0.42005  Biso   1.000  H
  H34      1.0000 0.85329  0.40122  0.60525  Biso   1.000  H
  H35      1.0000 0.97165  0.54719  0.57783  Biso   1.000  H
  H36      1.0000 0.57938  0.30037  0.53480  Biso   1.000  H
  H37      1.0000 0.20208  0.52246  0.61286  Biso   1.000  H
  H38      1.0000 0.29165  0.71666  0.39372  Biso   1.000  H
  H39      1.0000 0.27675  0.15405  0.68377  Biso   1.000  H
  H40      1.0000 0.97442  0.66941  0.53300  Biso   1.000  H
  H41      1.0000 0.99276  0.79588  0.59044  Biso   1.000  H
  H42      1.0000 0.32012  0.39790  0.52741  Biso   1.000  H
  H43      1.0000 0.31280  0.45803  0.49531  Biso   1.000  H
  H44      1.0000 0.06001  0.41106  0.68751  Biso   1.000  H
  H45      1.0000 0.10313  0.34463  0.58322  Biso   1.000  H
  H46      1.0000 0.34358  0.53301  0.44679  Biso   1.000  H
  H47      1.0000 0.95281  0.04915  0.82352  Biso   1.000  H
  H48      1.0000 0.03534  0.21715  0.61044  Biso   1.000  H
  H49      1.0000 0.78681  0.31468  0.64668  Biso   1.000  H
  H50      1.0000 0.96041  0.17843  0.76531  Biso   1.000  H
  H51      1.0000 0.51326  0.28664  0.58614  Biso   1.000  H
  H52      1.0000 0.80944  0.45533  0.47634  Biso   1.000  H
  H53      1.0000 0.17564  0.38562  0.52774  Biso   1.000  H
  H54      1.0000 0.15150  0.70744  0.44867  Biso   1.000  H
  H55      1.0000 0.12425  0.47760  0.66552  Biso   1.000  H
  H56      1.0000 0.30853  0.33087  0.51720  Biso   1.000  H
  H57      1.0000 0.45575  0.50601  0.36483  Biso   1.000  H
  H58      1.0000 0.86392  0.53566  0.45038  Biso   1.000  H
  H59      1.0000 0.73770  0.21754  0.77388  Biso   1.000  H
  H60      1.0000 0.91946  0.47074  0.61657  Biso   1.000  H
  H61      1.0000 0.44770  0.29170  0.59833  Biso   1.000  H
  H62      1.0000 0.94628  0.11360  0.81296  Biso   1.000  H
  H63      1.0000 0.55854  0.38415  0.38664  Biso   1.000  H
  H64      1.0000 0.92539  0.60005  0.45896  Biso   1.000  H
  H65      1.0000 0.10602  0.61360  0.58600  Biso   1.000  H
  H66      1.0000 0.45664  0.57832  0.34168  Biso   1.000  H
  H67      1.0000 0.23177  0.73086  0.40165  Biso   1.000  H
  H68      1.0000 0.80368  0.21916  0.78524  Biso   1.000  H
  H69      1.0000 0.61870  0.37053  0.37657  Biso   1.000  H
  H70      1.0000 0.24450  0.45301  0.51153  Biso   1.000  H
  N2       1.0000 0.46690  0.57510  0.52960  Biso   1.000  N
  C121     1.0000 0.42960  0.58390  0.53690  Biso   1.000  C
  C122     1.0000 0.50120  0.61220  0.49370  Biso   1.000  C
  C123     1.0000 0.49380  0.55300  0.53430  Biso   1.000  C
  H71      1.0000 0.43757  0.61131  0.51649  Biso   1.000  H
  H72      1.0000 0.52668  0.60723  0.48688  Biso   1.000  H
  H73      1.0000 0.51159  0.64055  0.51579  Biso   1.000  H
  H74      1.0000 0.48844  0.61361  0.45423  Biso   1.000  H
  H75      1.0000 0.52232  0.57086  0.51236  Biso   1.000  H
  H76      1.0000 0.47720  0.52285  0.51636  Biso   1.000  H
  H77      1.0000 0.50009  0.55061  0.57749  Biso   1.000  H
  La4      1.0000 0.03081  0.07597  0.33035  Biso   1.000  La
  La5      1.0000 0.30222  0.71175  0.04148  Biso   1.000  La
  La6      1.0000 0.37902  0.74320  0.20766  Biso   1.000  La
  O20      1.0000 0.96150  0.09160  0.35947  Biso   1.000  O
  O21      1.0000 0.01480  0.11560  0.14027  Biso   1.000  O
  O22      1.0000 0.00670  0.98170  0.45287  Biso   1.000  O
  O23      1.0000 0.03650  0.09390  0.21847  Biso   1.000  O
  O24      1.0000 0.95050  0.05420  0.27267  Biso   1.000  O
  O25      1.0000 0.97560  0.01130  0.39297  Biso   1.000  O
  O26      1.0000 0.43010  0.71490  0.26147  Biso   1.000  O
  O27      1.0000 0.69750  0.34490  0.15107  Biso   1.000  O
  O28      1.0000 0.30870  0.65180  0.09247  Biso   1.000  O
  O29      1.0000 0.65440  0.43430  0.23327  Biso   1.000  O
  O30      1.0000 0.70200  0.41430  0.32717  Biso   1.000  O
  O31      1.0000 0.36530  0.67720  0.15097  Biso   1.000  O
  O32      1.0000 0.64180  0.31830  0.09157  Biso   1.000  O
  O33      1.0000 0.43040  0.82240  0.22577  Biso   1.000  O
  O34      1.0000 0.38280  0.76440  0.09337  Biso   1.000  O
  O35      1.0000 0.45920  0.76090  0.18207  Biso   1.000  O
  O36      1.0000 0.76870  0.44500  0.39687  Biso   1.000  O
  O37      1.0000 0.36450  0.79250  0.01937  Biso   1.000  O
  O38      1.0000 0.62290  0.37050  0.15937  Biso   1.000  O
  N3       1.0000 0.48290  0.89730  0.26047  Biso   1.000  N
  C124     1.0000 0.09070  0.16110  0.15897  Biso   1.000  C
  C125     1.0000 0.57830  0.40340  0.20637  Biso   1.000  C
  C126     1.0000 0.68020  0.54780  0.30847  Biso   1.000  C
  C127     1.0000 0.73810  0.49270  0.37347  Biso   1.000  C
  C128     1.0000 0.89580  0.06650  0.30987  Biso   1.000  C
  C129     1.0000 0.68090  0.58790  0.31317  Biso   1.000  C
  C130     1.0000 0.93760  0.07070  0.31757  Biso   1.000  C
  C131     1.0000 0.37320  0.53700  0.21567  Biso   1.000  C
  C132     1.0000 0.98220  0.97810  0.41857  Biso   1.000  C
  C133     1.0000 0.44440  0.86300  0.22747  Biso   1.000  C
  C134     1.0000 0.50540  0.87740  0.29427  Biso   1.000  C
  C135     1.0000 0.51470  0.94270  0.28137  Biso   1.000  C
  C136     1.0000 0.66860  0.12820  0.18447  Biso   1.000  C
  C137     1.0000 0.86170  0.03440  0.27937  Biso   1.000  C
  C138     1.0000 0.77690  0.06950  0.26987  Biso   1.000  C
  C139     1.0000 0.71300  0.74840  0.33017  Biso   1.000  C
  C140     1.0000 0.21260  0.28140  0.14867  Biso   1.000  C
  C141     1.0000 0.12540  0.16890  0.19177  Biso   1.000  C
  C142     1.0000 0.17240  0.24130  0.14687  Biso   1.000  C
  C143     1.0000 0.81520  0.06990  0.28777  Biso   1.000  C
  C144     1.0000 0.75040  0.00240  0.20517  Biso   1.000  C
  C145     1.0000 0.79460  0.79490  0.35027  Biso   1.000  C
  C146     1.0000 0.63210  0.04840  0.16557  Biso   1.000  C
  C147     1.0000 0.91000  0.92350  0.36677  Biso   1.000  C
  C148     1.0000 0.66720  0.08440  0.18607  Biso   1.000  C
  C149     1.0000 0.74980  0.70930  0.35597  Biso   1.000  C
  C150     1.0000 0.79000  0.00120  0.22287  Biso   1.000  C
  C151     1.0000 0.37430  0.41460  0.18747  Biso   1.000  C
  C152     1.0000 0.29400  0.37790  0.17717  Biso   1.000  C
  C153     1.0000 0.74920  0.74740  0.34587  Biso   1.000  C
  C154     1.0000 0.34750  0.54680  0.17267  Biso   1.000  C
  C155     1.0000 0.09470  0.19150  0.11687  Biso   1.000  C
  C156     1.0000 0.31510  0.51330  0.13557  Biso   1.000  C
  C157     1.0000 0.70600  0.08290  0.20807  Biso   1.000  C
  C158     1.0000 0.24870  0.28820  0.19137  Biso   1.000  C
  C159     1.0000 0.70590  0.04130  0.20657  Biso   1.000  C
  C160     1.0000 0.73620  0.57450  0.38487  Biso   1.000  C
  C161     1.0000 0.04470  0.11920  0.16947  Biso   1.000  C
  C162     1.0000 0.67230  0.66680  0.33447  Biso   1.000  C
  C163     1.0000 0.33380  0.45880  0.18287  Biso   1.000  C
  C164     1.0000 0.74160  0.03680  0.22647  Biso   1.000  C
  C165     1.0000 0.35590  0.59080  0.16797  Biso   1.000  C
  C166     1.0000 0.65080  0.13690  0.14057  Biso   1.000  C
  C167     1.0000 0.87170  0.88140  0.36047  Biso   1.000  C
  C168     1.0000 0.58680  0.73200  0.24637  Biso   1.000  C
  C169     1.0000 0.29290  0.33330  0.18577  Biso   1.000  C
  C170     1.0000 0.88520  0.09640  0.33457  Biso   1.000  C
  C171     1.0000 0.84160  0.86850  0.30407  Biso   1.000  C
  C172     1.0000 0.33460  0.41640  0.17817  Biso   1.000  C
  C173     1.0000 0.13570  0.22980  0.10897  Biso   1.000  C
  C174     1.0000 0.73930  0.61740  0.38887  Biso   1.000  C
  C175     1.0000 0.51900  0.92060  0.08777  Biso   1.000  C
  C176     1.0000 0.71090  0.66710  0.35057  Biso   1.000  C
  C177     1.0000 0.24650  0.25610  0.22827  Biso   1.000  C
  C178     1.0000 0.62820  0.70560  0.30187  Biso   1.000  C
  C179     1.0000 0.55940  0.96390  0.10287  Biso   1.000  C
  C180     1.0000 0.57370  0.43150  0.24807  Biso   1.000  C
  C181     1.0000 0.49570  0.39950  0.21987  Biso   1.000  C
  C182     1.0000 0.45410  0.40180  0.22097  Biso   1.000  C
  C183     1.0000 0.33200  0.60130  0.12617  Biso   1.000  C
  C184     1.0000 0.68300  0.25720  0.17107  Biso   1.000  C
  C185     1.0000 0.50510  0.70130  0.26117  Biso   1.000  C
  C186     1.0000 0.67300  0.70710  0.32397  Biso   1.000  C
  C187     1.0000 0.29970  0.56780  0.08897  Biso   1.000  C
  C188     1.0000 0.86290  0.84750  0.40257  Biso   1.000  C
  C189     1.0000 0.84920  0.10050  0.32857  Biso   1.000  C
  C190     1.0000 0.33130  0.33280  0.19427  Biso   1.000  C
  C191     1.0000 0.20750  0.21940  0.22887  Biso   1.000  C
  C192     1.0000 0.58140  0.92200  0.16497  Biso   1.000  C
  C193     1.0000 0.67840  0.21460  0.17577  Biso   1.000  C
  C194     1.0000 0.93950  0.93190  0.41507  Biso   1.000  C
  C195     1.0000 0.63040  0.00370  0.16257  Biso   1.000  C
  C196     1.0000 0.54490  0.88230  0.14797  Biso   1.000  C
  C197     1.0000 0.58840  0.67080  0.32787  Biso   1.000  C
  C198     1.0000 0.62760  0.73460  0.26497  Biso   1.000  C
  C199     1.0000 0.37460  0.37510  0.19527  Biso   1.000  C
  C200     1.0000 0.47130  0.83810  0.09677  Biso   1.000  C
  C201     1.0000 0.93070  0.89800  0.45717  Biso   1.000  C
  C202     1.0000 0.82190  0.03340  0.26487  Biso   1.000  C
  C203     1.0000 0.50440  0.73120  0.22527  Biso   1.000  C
  C204     1.0000 0.80450  0.82610  0.30877  Biso   1.000  C
  C205     1.0000 0.43850  0.83750  0.05847  Biso   1.000  C
  C206     1.0000 0.70590  0.49620  0.33847  Biso   1.000  C
  C207     1.0000 0.82610  0.80390  0.40197  Biso   1.000  C
  C208     1.0000 0.69720  0.20400  0.22317  Biso   1.000  C
  C209     1.0000 0.46210  0.73570  0.22117  Biso   1.000  C
  C210     1.0000 0.66480  0.26810  0.12547  Biso   1.000  C
  C211     1.0000 0.50020  0.37130  0.17817  Biso   1.000  C
  C212     1.0000 0.58830  0.96130  0.14037  Biso   1.000  C
  C213     1.0000 0.54150  0.37330  0.17147  Biso   1.000  C
  C214     1.0000 0.51350  0.88180  0.11207  Biso   1.000  C
  C215     1.0000 0.58690  0.76690  0.21117  Biso   1.000  C
  C216     1.0000 0.70510  0.53740  0.34177  Biso   1.000  C
  C217     1.0000 0.65100  0.18150  0.13117  Biso   1.000  C
  C218     1.0000 0.41860  0.37280  0.18987  Biso   1.000  C
  C219     1.0000 0.31190  0.46760  0.14237  Biso   1.000  C
  C220     1.0000 0.54950  0.66940  0.31407  Biso   1.000  C
  C221     1.0000 0.66880  0.00520  0.18447  Biso   1.000  C
  C222     1.0000 0.71120  0.62460  0.35407  Biso   1.000  C
  C223     1.0000 0.16940  0.20900  0.19207  Biso   1.000  C
  C224     1.0000 0.48820  0.92200  0.04887  Biso   1.000  C
  C225     1.0000 0.46290  0.34750  0.14717  Biso   1.000  C
  C226     1.0000 0.76310  0.52500  0.41457  Biso   1.000  C
  C227     1.0000 0.53240  0.42950  0.25477  Biso   1.000  C
  C228     1.0000 0.69450  0.16210  0.23147  Biso   1.000  C
  C229     1.0000 0.89240  0.85580  0.45087  Biso   1.000  C
  C230     1.0000 0.63360  0.19590  0.08357  Biso   1.000  C
  C231     1.0000 0.62240  0.40430  0.19927  Biso   1.000  C
  C232     1.0000 0.42430  0.34580  0.15067  Biso   1.000  C
  C233     1.0000 0.36880  0.49740  0.22337  Biso   1.000  C
  C234     1.0000 0.44410  0.87800  0.03357  Biso   1.000  C
  C235     1.0000 0.29120  0.52380  0.09367  Biso   1.000  C
  C236     1.0000 0.54750  0.69890  0.27567  Biso   1.000  C
  C237     1.0000 0.76250  0.56380  0.42117  Biso   1.000  C
  C238     1.0000 0.64030  0.23900  0.07717  Biso   1.000  C
  C239     1.0000 0.54670  0.76770  0.20077  Biso   1.000  C
  C240     1.0000 0.74090  0.45160  0.36407  Biso   1.000  C
  C241     1.0000 0.39440  0.79670  0.05437  Biso   1.000  C
  C242     1.0000 0.67250  0.31650  0.12087  Biso   1.000  C
  C243     1.0000 0.33850  0.64820  0.12417  Biso   1.000  C
  H78      1.0000 0.66063  0.52656  0.27923  Biso   1.000  H
  H79      1.0000 0.66045  0.59215  0.28868  Biso   1.000  H
  H80      1.0000 0.39479  0.56100  0.24007  Biso   1.000  H
  H81      1.0000 0.42783  0.87326  0.20424  Biso   1.000  H
  H82      1.0000 0.53203  0.90136  0.31505  Biso   1.000  H
  H83      1.0000 0.51475  0.86151  0.26591  Biso   1.000  H
  H84      1.0000 0.48467  0.85620  0.32470  Biso   1.000  H
  H85      1.0000 0.53938  0.94251  0.30370  Biso   1.000  H
  H86      1.0000 0.49925  0.95351  0.30835  Biso   1.000  H
  H87      1.0000 0.52698  0.96293  0.24597  Biso   1.000  H
  H88      1.0000 0.86478  0.00977  0.26594  Biso   1.000  H
  H89      1.0000 0.77189  0.09222  0.28658  Biso   1.000  H
  H90      1.0000 0.71369  0.77611  0.32314  Biso   1.000  H
  H91      1.0000 0.21715  0.30505  0.12183  Biso   1.000  H
  H92      1.0000 0.12149  0.14546  0.21869  Biso   1.000  H
  H93      1.0000 0.72938  0.97979  0.17849  Biso   1.000  H
  H94      1.0000 0.60682  0.05044  0.15207  Biso   1.000  H
  H95      1.0000 0.91595  0.94662  0.33805  Biso   1.000  H
  H96      1.0000 0.77734  0.71092  0.36721  Biso   1.000  H
  H97      1.0000 0.79525  0.97855  0.20639  Biso   1.000  H
  H98      1.0000 0.40224  0.44216  0.18843  Biso   1.000  H
  H99      1.0000 0.26703  0.37882  0.17130  Biso   1.000  H
  H100     1.0000 0.06945  0.18647  0.09290  Biso   1.000  H
  H101     1.0000 0.73140  0.10943  0.22334  Biso   1.000  H
  H102     1.0000 0.64490  0.63905  0.33046  Biso   1.000  H
  H103     1.0000 0.37799  0.61368  0.19333  Biso   1.000  H
  H104     1.0000 0.63603  0.11418  0.11056  Biso   1.000  H
  H105     1.0000 0.90774  0.11826  0.36063  Biso   1.000  H
  H106     1.0000 0.84780  0.88762  0.26962  Biso   1.000  H
  H107     1.0000 0.13912  0.24941  0.07606  Biso   1.000  H
  H108     1.0000 0.76040  0.64004  0.41539  Biso   1.000  H
  H109     1.0000 0.27131  0.25983  0.25209  Biso   1.000  H
  H110     1.0000 0.56429  0.99167  0.08672  Biso   1.000  H
  H111     1.0000 0.59878  0.45207  0.27192  Biso   1.000  H
  H112     1.0000 0.45281  0.42446  0.24450  Biso   1.000  H
  H113     1.0000 0.69963  0.27901  0.20147  Biso   1.000  H
  H114     1.0000 0.47754  0.67962  0.27953  Biso   1.000  H
  H115     1.0000 0.28334  0.57499  0.06039  Biso   1.000  H
  H116     1.0000 0.84595  0.12270  0.35044  Biso   1.000  H
  H117     1.0000 0.33059  0.30501  0.19967  Biso   1.000  H
  H118     1.0000 0.20412  0.19688  0.25711  Biso   1.000  H
  H119     1.0000 0.60210  0.92222  0.19408  Biso   1.000  H
  H120     1.0000 0.54197  0.85477  0.16198  Biso   1.000  H
  H121     1.0000 0.58894  0.64895  0.35418  Biso   1.000  H
  H122     1.0000 0.65537  0.75850  0.24989  Biso   1.000  H
  H123     1.0000 0.46699  0.81057  0.11346  Biso   1.000  H
  H124     1.0000 0.95085  0.90366  0.49019  Biso   1.000  H
  H125     1.0000 0.78285  0.81819  0.27711  Biso   1.000  H
  H126     1.0000 0.68532  0.47213  0.31335  Biso   1.000  H
  H127     1.0000 0.82157  0.78198  0.43198  Biso   1.000  H
  H128     1.0000 0.71336  0.22662  0.25281  Biso   1.000  H
  H129     1.0000 0.54467  0.35411  0.14301  Biso   1.000  H
  H130     1.0000 0.61438  0.79002  0.19441  Biso   1.000  H
  H131     1.0000 0.29256  0.44406  0.11534  Biso   1.000  H
  H132     1.0000 0.52240  0.64665  0.33219  Biso   1.000  H
  H133     1.0000 0.66913  0.97766  0.18387  Biso   1.000  H
  H134     1.0000 0.49399  0.94974  0.03150  Biso   1.000  H
  H135     1.0000 0.46434  0.32826  0.11705  Biso   1.000  H
  H136     1.0000 0.78246  0.52016  0.44055  Biso   1.000  H
  H137     1.0000 0.52926  0.44872  0.28324  Biso   1.000  H
  H138     1.0000 0.70830  0.15600  0.26500  Biso   1.000  H
  H139     1.0000 0.88640  0.83268  0.47963  Biso   1.000  H
  H140     1.0000 0.61585  0.17439  0.05331  Biso   1.000  H
  H141     1.0000 0.39995  0.32534  0.12563  Biso   1.000  H
  H142     1.0000 0.38640  0.49242  0.25267  Biso   1.000  H
  H143     1.0000 0.42168  0.87832  0.00835  Biso   1.000  H
  H144     1.0000 0.26914  0.50091  0.06832  Biso   1.000  H
  H145     1.0000 0.78084  0.58452  0.45191  Biso   1.000  H
  H146     1.0000 0.62947  0.24817  0.04324  Biso   1.000  H
  H147     1.0000 0.54699  0.79149  0.17820  Biso   1.000  H
  N4       1.0000 0.42490  0.89180  0.19627  Biso   1.000  N
  C244     1.0000 0.41610  0.84570  0.20357  Biso   1.000  C
  C245     1.0000 0.38780  0.88900  0.16037  Biso   1.000  C
  C246     1.0000 0.44700  0.94080  0.20097  Biso   1.000  C
  H148     1.0000 0.38869  0.82626  0.18316  Biso   1.000  H
  H149     1.0000 0.39277  0.91945  0.15355  Biso   1.000  H
  H150     1.0000 0.35945  0.87104  0.18246  Biso   1.000  H
  H151     1.0000 0.38639  0.87483  0.12090  Biso   1.000  H
  H152     1.0000 0.42914  0.95146  0.17903  Biso   1.000  H
  H153     1.0000 0.47715  0.95435  0.18303  Biso   1.000  H
  H154     1.0000 0.44939  0.94948  0.24416  Biso   1.000  H
  La7      1.0000 0.92403  0.95484  0.99701  Biso   1.000  La
  La8      1.0000 0.28825  0.59047  0.70814  Biso   1.000  La
  La9      1.0000 0.25680  0.63582  0.87432  Biso   1.000  La
  O39      1.0000 0.90840  0.86990  0.02613  Biso   1.000  O
  O40      1.0000 0.88440  0.89920  0.80693  Biso   1.000  O
  O41      1.0000 0.01830  0.02500  0.11953  Biso   1.000  O
  O42      1.0000 0.90610  0.94260  0.88513  Biso   1.000  O
  O43      1.0000 0.94580  0.89630  0.93933  Biso   1.000  O
  O44      1.0000 0.98870  0.96430  0.05963  Biso   1.000  O
  O45      1.0000 0.28510  0.71520  0.92813  Biso   1.000  O
  O46      1.0000 0.65510  0.35260  0.81773  Biso   1.000  O
  O47      1.0000 0.34820  0.65690  0.75913  Biso   1.000  O
  O48      1.0000 0.56570  0.22010  0.89993  Biso   1.000  O
  O49      1.0000 0.58570  0.28770  0.99383  Biso   1.000  O
  O50      1.0000 0.32280  0.68810  0.81763  Biso   1.000  O
  O51      1.0000 0.68170  0.32350  0.75823  Biso   1.000  O
  O52      1.0000 0.17760  0.60800  0.89243  Biso   1.000  O
  O53      1.0000 0.23560  0.61840  0.76003  Biso   1.000  O
  O54      1.0000 0.23910  0.69830  0.84873  Biso   1.000  O
  O55      1.0000 0.55500  0.32370  0.06353  Biso   1.000  O
  O56      1.0000 0.20750  0.57200  0.68603  Biso   1.000  O
  O57      1.0000 0.62950  0.25240  0.82603  Biso   1.000  O
  N5       1.0000 0.10270  0.58560  0.92713  Biso   1.000  N
  C247     1.0000 0.83890  0.92960  0.82563  Biso   1.000  C
  C248     1.0000 0.59660  0.17490  0.87303  Biso   1.000  C
  C249     1.0000 0.45220  0.13240  0.97513  Biso   1.000  C
  C250     1.0000 0.50730  0.24540  0.04013  Biso   1.000  C
  C251     1.0000 0.93350  0.82930  0.97653  Biso   1.000  C
  C252     1.0000 0.41210  0.09300  0.97983  Biso   1.000  C
  C253     1.0000 0.92930  0.86690  0.98423  Biso   1.000  C
  C254     1.0000 0.46300  0.83620  0.88233  Biso   1.000  C
  C255     1.0000 0.02190  0.00410  0.08523  Biso   1.000  C
  C256     1.0000 0.13700  0.58140  0.89413  Biso   1.000  C
  C257     1.0000 0.12260  0.62800  0.96093  Biso   1.000  C
  C258     1.0000 0.05730  0.57200  0.94803  Biso   1.000  C
  C259     1.0000 0.87180  0.54040  0.85113  Biso   1.000  C
  C260     1.0000 0.96560  0.82730  0.94603  Biso   1.000  C
  C261     1.0000 0.93050  0.70740  0.93653  Biso   1.000  C
  C262     1.0000 0.25160  0.96460  0.99683  Biso   1.000  C
  C263     1.0000 0.71860  0.93120  0.81533  Biso   1.000  C
  C264     1.0000 0.83110  0.95650  0.85843  Biso   1.000  C
  C265     1.0000 0.75870  0.93110  0.81353  Biso   1.000  C
  C266     1.0000 0.93010  0.74530  0.95443  Biso   1.000  C
  C267     1.0000 0.99760  0.74800  0.87183  Biso   1.000  C
  C268     1.0000 0.20510  0.99970  0.01693  Biso   1.000  C
  C269     1.0000 0.95160  0.58370  0.83223  Biso   1.000  C
  C270     1.0000 0.07650  0.98650  0.03343  Biso   1.000  C
  C271     1.0000 0.91560  0.58280  0.85273  Biso   1.000  C
  C272     1.0000 0.29070  0.04050  0.02263  Biso   1.000  C
  C273     1.0000 0.99880  0.78880  0.88953  Biso   1.000  C
  C274     1.0000 0.58540  0.95970  0.85413  Biso   1.000  C
  C275     1.0000 0.62210  0.91610  0.84383  Biso   1.000  C
  C276     1.0000 0.25260  0.00180  0.01253  Biso   1.000  C
  C277     1.0000 0.45320  0.80070  0.83933  Biso   1.000  C
  C278     1.0000 0.80850  0.90320  0.78353  Biso   1.000  C
  C279     1.0000 0.48670  0.80180  0.80223  Biso   1.000  C
  C280     1.0000 0.91710  0.62310  0.87473  Biso   1.000  C
  C281     1.0000 0.71180  0.96050  0.85803  Biso   1.000  C
  C282     1.0000 0.95870  0.66460  0.87323  Biso   1.000  C
  C283     1.0000 0.42550  0.16170  0.05153  Biso   1.000  C
  C284     1.0000 0.88080  0.92550  0.83613  Biso   1.000  C
  C285     1.0000 0.33320  0.00550  0.00113  Biso   1.000  C
  C286     1.0000 0.54120  0.87500  0.84953  Biso   1.000  C
  C287     1.0000 0.96320  0.70480  0.89313  Biso   1.000  C
  C288     1.0000 0.40920  0.76510  0.83463  Biso   1.000  C
  C289     1.0000 0.86310  0.51390  0.80723  Biso   1.000  C
  C290     1.0000 0.11860  0.99030  0.02713  Biso   1.000  C
  C291     1.0000 0.26800  0.85480  0.91303  Biso   1.000  C
  C292     1.0000 0.66670  0.95960  0.85243  Biso   1.000  C
  C293     1.0000 0.90360  0.78880  0.00123  Biso   1.000  C
  C294     1.0000 0.13150  0.97310  0.97073  Biso   1.000  C
  C295     1.0000 0.58360  0.91820  0.84483  Biso   1.000  C
  C296     1.0000 0.77020  0.90590  0.77563  Biso   1.000  C
  C297     1.0000 0.38260  0.12190  0.05553  Biso   1.000  C
  C298     1.0000 0.07940  0.59840  0.75443  Biso   1.000  C
  C299     1.0000 0.33290  0.04380  0.01723  Biso   1.000  C
  C300     1.0000 0.74390  0.99040  0.89493  Biso   1.000  C
  C301     1.0000 0.29440  0.92260  0.96853  Biso   1.000  C
  C302     1.0000 0.03610  0.59550  0.76953  Biso   1.000  C
  C303     1.0000 0.56850  0.14220  0.91473  Biso   1.000  C
  C304     1.0000 0.60050  0.09620  0.88653  Biso   1.000  C
  C305     1.0000 0.59820  0.05230  0.88763  Biso   1.000  C
  C306     1.0000 0.39870  0.73070  0.79283  Biso   1.000  C
  C307     1.0000 0.74280  0.42580  0.83773  Biso   1.000  C
  C308     1.0000 0.29870  0.80380  0.92783  Biso   1.000  C
  C309     1.0000 0.29290  0.96590  0.99063  Biso   1.000  C
  C310     1.0000 0.43220  0.73190  0.75563  Biso   1.000  C
  C311     1.0000 0.15250  0.01540  0.06923  Biso   1.000  C
  C312     1.0000 0.89950  0.74870  0.99523  Biso   1.000  C
  C313     1.0000 0.66720  0.99850  0.86093  Biso   1.000  C
  C314     1.0000 0.78060  0.98810  0.89553  Biso   1.000  C
  C315     1.0000 0.07800  0.65940  0.83163  Biso   1.000  C
  C316     1.0000 0.78540  0.46380  0.84243  Biso   1.000  C
  C317     1.0000 0.06810  0.00760  0.08173  Biso   1.000  C
  C318     1.0000 0.99630  0.62670  0.82923  Biso   1.000  C
  C319     1.0000 0.11770  0.66260  0.81463  Biso   1.000  C
  C320     1.0000 0.32920  0.91760  0.99453  Biso   1.000  C
  C321     1.0000 0.26540  0.89300  0.93163  Biso   1.000  C
  C322     1.0000 0.62490  0.99950  0.86193  Biso   1.000  C
  C323     1.0000 0.16190  0.63320  0.76343  Biso   1.000  C
  C324     1.0000 0.10200  0.03270  0.12383  Biso   1.000  C
  C325     1.0000 0.96660  0.78850  0.93153  Biso   1.000  C
  C326     1.0000 0.26880  0.77320  0.89193  Biso   1.000  C
  C327     1.0000 0.17390  0.97840  0.97543  Biso   1.000  C
  C328     1.0000 0.16250  0.60100  0.72513  Biso   1.000  C
  C329     1.0000 0.50380  0.20970  0.00513  Biso   1.000  C
  C330     1.0000 0.19610  0.02220  0.06863  Biso   1.000  C
  C331     1.0000 0.79600  0.49320  0.88983  Biso   1.000  C
  C332     1.0000 0.26430  0.72640  0.88783  Biso   1.000  C
  C333     1.0000 0.73190  0.39670  0.79213  Biso   1.000  C
  C334     1.0000 0.62870  0.12890  0.84483  Biso   1.000  C
  C335     1.0000 0.03870  0.62700  0.80703  Biso   1.000  C
  C336     1.0000 0.62670  0.16820  0.83813  Biso   1.000  C
  C337     1.0000 0.11820  0.63170  0.77873  Biso   1.000  C
  C338     1.0000 0.23310  0.82000  0.87783  Biso   1.000  C
  C339     1.0000 0.46260  0.16770  0.00843  Biso   1.000  C
  C340     1.0000 0.81850  0.46950  0.79783  Biso   1.000  C
  C341     1.0000 0.62720  0.04580  0.85653  Biso   1.000  C
  C342     1.0000 0.53240  0.84430  0.80903  Biso   1.000  C
  C343     1.0000 0.33060  0.88010  0.98073  Biso   1.000  C
  C344     1.0000 0.99480  0.66360  0.85113  Biso   1.000  C
  C345     1.0000 0.37540  0.08660  0.02073  Biso   1.000  C
  C346     1.0000 0.79100  0.96040  0.85873  Biso   1.000  C
  C347     1.0000 0.07800  0.56620  0.71553  Biso   1.000  C
  C348     1.0000 0.65250  0.11540  0.81383  Biso   1.000  C
  C349     1.0000 0.47500  0.23810  0.08123  Biso   1.000  C
  C350     1.0000 0.57050  0.10290  0.92143  Biso   1.000  C
  C351     1.0000 0.83790  0.53240  0.89813  Biso   1.000  C
  C352     1.0000 0.14420  0.03660  0.11753  Biso   1.000  C
  C353     1.0000 0.80410  0.43770  0.75023  Biso   1.000  C
  C354     1.0000 0.59570  0.21810  0.86593  Biso   1.000  C
  C355     1.0000 0.65420  0.07850  0.81733  Biso   1.000  C
  C356     1.0000 0.50260  0.87140  0.89003  Biso   1.000  C
  C357     1.0000 0.12200  0.56610  0.70023  Biso   1.000  C
  C358     1.0000 0.47620  0.76740  0.76033  Biso   1.000  C
  C359     1.0000 0.30110  0.84860  0.94233  Biso   1.000  C
  C360     1.0000 0.43620  0.19870  0.08783  Biso   1.000  C
  C361     1.0000 0.76100  0.40130  0.74383  Biso   1.000  C
  C362     1.0000 0.23230  0.77900  0.86743  Biso   1.000  C
  C363     1.0000 0.54840  0.28930  0.03073  Biso   1.000  C
  C364     1.0000 0.20330  0.59770  0.72103  Biso   1.000  C
  C365     1.0000 0.68350  0.35600  0.78753  Biso   1.000  C
  C366     1.0000 0.35180  0.69030  0.79083  Biso   1.000  C
  H155     1.0000 0.47344  0.13407  0.94589  Biso   1.000  H
  H156     1.0000 0.40785  0.06830  0.95534  Biso   1.000  H
  H157     1.0000 0.43900  0.83379  0.90673  Biso   1.000  H
  H158     1.0000 0.12674  0.55457  0.87090  Biso   1.000  H
  H159     1.0000 0.09864  0.63067  0.98171  Biso   1.000  H
  H160     1.0000 0.13849  0.65324  0.93257  Biso   1.000  H
  H161     1.0000 0.14380  0.62847  0.99136  Biso   1.000  H
  H162     1.0000 0.05749  0.59687  0.97036  Biso   1.000  H
  H163     1.0000 0.04649  0.54574  0.97501  Biso   1.000  H
  H164     1.0000 0.03707  0.56405  0.91263  Biso   1.000  H
  H165     1.0000 0.99023  0.85501  0.93260  Biso   1.000  H
  H166     1.0000 0.90778  0.67967  0.95324  Biso   1.000  H
  H167     1.0000 0.22389  0.93758  0.98980  Biso   1.000  H
  H168     1.0000 0.69495  0.91210  0.78849  Biso   1.000  H
  H169     1.0000 0.85454  0.97603  0.88535  Biso   1.000  H
  H170     1.0000 0.02021  0.74959  0.84515  Biso   1.000  H
  H171     1.0000 0.94956  0.55638  0.81873  Biso   1.000  H
  H172     1.0000 0.05338  0.96933  0.00471  Biso   1.000  H
  H173     1.0000 0.28908  0.06642  0.03387  Biso   1.000  H
  H174     1.0000 0.02145  0.81670  0.87305  Biso   1.000  H
  H175     1.0000 0.55784  0.96008  0.85509  Biso   1.000  H
  H176     1.0000 0.62118  0.88821  0.83796  Biso   1.000  H
  H177     1.0000 0.81353  0.88298  0.75956  Biso   1.000  H
  H178     1.0000 0.89057  0.62197  0.89000  Biso   1.000  H
  H179     1.0000 0.36095  0.00585  0.99712  Biso   1.000  H
  H180     1.0000 0.38632  0.76431  0.85999  Biso   1.000  H
  H181     1.0000 0.88582  0.52185  0.77722  Biso   1.000  H
  H182     1.0000 0.88174  0.78948  0.02729  Biso   1.000  H
  H183     1.0000 0.11238  0.96018  0.93628  Biso   1.000  H
  H184     1.0000 0.75059  0.88971  0.74272  Biso   1.000  H
  H185     1.0000 0.35996  0.12036  0.08205  Biso   1.000  H
  H186     1.0000 0.74017  0.01148  0.91875  Biso   1.000  H
  H187     1.0000 0.00833  0.57262  0.75338  Biso   1.000  H
  H188     1.0000 0.54793  0.14671  0.93858  Biso   1.000  H
  H189     1.0000 0.57554  0.02835  0.91116  Biso   1.000  H
  H190     1.0000 0.72099  0.42062  0.86813  Biso   1.000  H
  H191     1.0000 0.32038  0.79792  0.94619  Biso   1.000  H
  H192     1.0000 0.42501  0.70835  0.72705  Biso   1.000  H
  H193     1.0000 0.87730  0.72325  0.01710  Biso   1.000  H
  H194     1.0000 0.69499  0.02558  0.86633  Biso   1.000  H
  H195     1.0000 0.80312  0.00724  0.92377  Biso   1.000  H
  H196     1.0000 0.07778  0.67988  0.86074  Biso   1.000  H
  H197     1.0000 0.14523  0.68720  0.82864  Biso   1.000  H
  H198     1.0000 0.35105  0.93999  0.02084  Biso   1.000  H
  H199     1.0000 0.24150  0.89687  0.91655  Biso   1.000  H
  H200     1.0000 0.18943  0.65642  0.78012  Biso   1.000  H
  H201     1.0000 0.09634  0.04719  0.15685  Biso   1.000  H
  H202     1.0000 0.18181  0.96466  0.94377  Biso   1.000  H
  H203     1.0000 0.52787  0.21319  0.98001  Biso   1.000  H
  H204     1.0000 0.21802  0.03959  0.09864  Biso   1.000  H
  H205     1.0000 0.77338  0.48674  0.91947  Biso   1.000  H
  H206     1.0000 0.64589  0.19056  0.80967  Biso   1.000  H
  H207     1.0000 0.20998  0.82436  0.86107  Biso   1.000  H
  H208     1.0000 0.55594  0.84850  0.78200  Biso   1.000  H
  H209     1.0000 0.35335  0.87575  0.99885  Biso   1.000  H
  H210     1.0000 0.02234  0.69147  0.85053  Biso   1.000  H
  H211     1.0000 0.05026  0.54425  0.69816  Biso   1.000  H
  H212     1.0000 0.67174  0.13608  0.78371  Biso   1.000  H
  H213     1.0000 0.47984  0.26230  0.10721  Biso   1.000  H
  H214     1.0000 0.55128  0.08054  0.94990  Biso   1.000  H
  H215     1.0000 0.84400  0.55230  0.93166  Biso   1.000  H
  H216     1.0000 0.16732  0.05372  0.14629  Biso   1.000  H
  H217     1.0000 0.82561  0.44146  0.71997  Biso   1.000  H
  H218     1.0000 0.67466  0.07461  0.79229  Biso   1.000  H
  H219     1.0000 0.50758  0.89398  0.91933  Biso   1.000  H
  H220     1.0000 0.12168  0.54336  0.67501  Biso   1.000  H
  H221     1.0000 0.49909  0.76823  0.73498  Biso   1.000  H
  H222     1.0000 0.41548  0.19632  0.11857  Biso   1.000  H
  H223     1.0000 0.75183  0.38130  0.70990  Biso   1.000  H
  H224     1.0000 0.20851  0.75550  0.84486  Biso   1.000  H
  N6       1.0000 0.10820  0.53310  0.86293  Biso   1.000  N
  C367     1.0000 0.15430  0.57040  0.87023  Biso   1.000  C
  C368     1.0000 0.11100  0.49880  0.82703  Biso   1.000  C
  C369     1.0000 0.05920  0.50620  0.86763  Biso   1.000  C
  H225     1.0000 0.17374  0.56243  0.84982  Biso   1.000  H
  H226     1.0000 0.08055  0.47332  0.82021  Biso   1.000  H
  H227     1.0000 0.12896  0.48841  0.84912  Biso   1.000  H
  H228     1.0000 0.12517  0.51156  0.78756  Biso   1.000  H
  H229     1.0000 0.04854  0.47768  0.84569  Biso   1.000  H
  H230     1.0000 0.04565  0.52280  0.84969  Biso   1.000  H
  H231     1.0000 0.05052  0.49991  0.91082  Biso   1.000  H
  La10     1.0000 0.95484  0.03081  0.16368  Biso   1.000  La
  La11     1.0000 0.59047  0.30222  0.87481  Biso   1.000  La
  La12     1.0000 0.63582  0.37902  0.04099  Biso   1.000  La
  O58      1.0000 0.86990  0.96150  0.19280  Biso   1.000  O
  O59      1.0000 0.89920  0.01480  0.97360  Biso   1.000  O
  O60      1.0000 0.02500  0.00670  0.28620  Biso   1.000  O
  O61      1.0000 0.94260  0.03650  0.05180  Biso   1.000  O
  O62      1.0000 0.89630  0.95050  0.10600  Biso   1.000  O
  O63      1.0000 0.96430  0.97560  0.22630  Biso   1.000  O
  O64      1.0000 0.71520  0.43010  0.09480  Biso   1.000  O
  O65      1.0000 0.35260  0.69750  0.98440  Biso   1.000  O
  O66      1.0000 0.65690  0.30870  0.92580  Biso   1.000  O
  O67      1.0000 0.22010  0.65440  0.06660  Biso   1.000  O
  O68      1.0000 0.28770  0.70200  0.16050  Biso   1.000  O
  O69      1.0000 0.68810  0.36530  0.98430  Biso   1.000  O
  O70      1.0000 0.32350  0.64180  0.92490  Biso   1.000  O
  O71      1.0000 0.60800  0.43040  0.05910  Biso   1.000  O
  O72      1.0000 0.61840  0.38280  0.92670  Biso   1.000  O
  O73      1.0000 0.69830  0.45920  0.01540  Biso   1.000  O
  O74      1.0000 0.32370  0.76870  0.23020  Biso   1.000  O
  O75      1.0000 0.57200  0.36450  0.85270  Biso   1.000  O
  O76      1.0000 0.25240  0.62290  0.99270  Biso   1.000  O
  N7       1.0000 0.58560  0.48290  0.09380  Biso   1.000  N
  C370     1.0000 0.92960  0.09070  0.99230  Biso   1.000  C
  C371     1.0000 0.17490  0.57830  0.03970  Biso   1.000  C
  C372     1.0000 0.13240  0.68020  0.14180  Biso   1.000  C
  C373     1.0000 0.24540  0.73810  0.20680  Biso   1.000  C
  C374     1.0000 0.82930  0.89580  0.14320  Biso   1.000  C
  C375     1.0000 0.09300  0.68090  0.14650  Biso   1.000  C
  C376     1.0000 0.86690  0.93760  0.15090  Biso   1.000  C
  C377     1.0000 0.83620  0.37320  0.04900  Biso   1.000  C
  C378     1.0000 0.00410  0.98220  0.25190  Biso   1.000  C
  C379     1.0000 0.58140  0.44440  0.06080  Biso   1.000  C
  C380     1.0000 0.62800  0.50540  0.12760  Biso   1.000  C
  C381     1.0000 0.57200  0.51470  0.11470  Biso   1.000  C
  C382     1.0000 0.54040  0.66860  0.01780  Biso   1.000  C
  C383     1.0000 0.82730  0.86170  0.11270  Biso   1.000  C
  C384     1.0000 0.70740  0.77690  0.10320  Biso   1.000  C
  C385     1.0000 0.96460  0.71300  0.16350  Biso   1.000  C
  C386     1.0000 0.93120  0.21260  0.98200  Biso   1.000  C
  C387     1.0000 0.95650  0.12540  0.02510  Biso   1.000  C
  C388     1.0000 0.93110  0.17240  0.98020  Biso   1.000  C
  C389     1.0000 0.74530  0.81520  0.12110  Biso   1.000  C
  C390     1.0000 0.74800  0.75040  0.03850  Biso   1.000  C
  C391     1.0000 0.99970  0.79460  0.18360  Biso   1.000  C
  C392     1.0000 0.58370  0.63210  0.99890  Biso   1.000  C
  C393     1.0000 0.98650  0.91000  0.20010  Biso   1.000  C
  C394     1.0000 0.58280  0.66720  0.01940  Biso   1.000  C
  C395     1.0000 0.04050  0.74980  0.18930  Biso   1.000  C
  C396     1.0000 0.78880  0.79000  0.05620  Biso   1.000  C
  C397     1.0000 0.95970  0.37430  0.02080  Biso   1.000  C
  C398     1.0000 0.91610  0.29400  0.01050  Biso   1.000  C
  C399     1.0000 0.00180  0.74920  0.17920  Biso   1.000  C
  C400     1.0000 0.80070  0.34750  0.00600  Biso   1.000  C
  C401     1.0000 0.90320  0.09470  0.95020  Biso   1.000  C
  C402     1.0000 0.80180  0.31510  0.96890  Biso   1.000  C
  C403     1.0000 0.62310  0.70600  0.04140  Biso   1.000  C
  C404     1.0000 0.96050  0.24870  0.02470  Biso   1.000  C
  C405     1.0000 0.66460  0.70590  0.03990  Biso   1.000  C
  C406     1.0000 0.16170  0.73620  0.21820  Biso   1.000  C
  C407     1.0000 0.92550  0.04470  0.00280  Biso   1.000  C
  C408     1.0000 0.00550  0.67230  0.16780  Biso   1.000  C
  C409     1.0000 0.87500  0.33380  0.01620  Biso   1.000  C
  C410     1.0000 0.70480  0.74160  0.05980  Biso   1.000  C
  C411     1.0000 0.76510  0.35590  0.00130  Biso   1.000  C
  C412     1.0000 0.51390  0.65080  0.97390  Biso   1.000  C
  C413     1.0000 0.99030  0.87170  0.19380  Biso   1.000  C
  C414     1.0000 0.85480  0.58680  0.07970  Biso   1.000  C
  C415     1.0000 0.95960  0.29290  0.01910  Biso   1.000  C
  C416     1.0000 0.78880  0.88520  0.16790  Biso   1.000  C
  C417     1.0000 0.97310  0.84160  0.13740  Biso   1.000  C
  C418     1.0000 0.91820  0.33460  0.01150  Biso   1.000  C
  C419     1.0000 0.90590  0.13570  0.94230  Biso   1.000  C
  C420     1.0000 0.12190  0.73930  0.22220  Biso   1.000  C
  C421     1.0000 0.59840  0.51900  0.92110  Biso   1.000  C
  C422     1.0000 0.04380  0.71090  0.18390  Biso   1.000  C
  C423     1.0000 0.99040  0.24650  0.06160  Biso   1.000  C
  C424     1.0000 0.92260  0.62820  0.13520  Biso   1.000  C
  C425     1.0000 0.59550  0.55940  0.93620  Biso   1.000  C
  C426     1.0000 0.14220  0.57370  0.08140  Biso   1.000  C
  C427     1.0000 0.09620  0.49570  0.05320  Biso   1.000  C
  C428     1.0000 0.05230  0.45410  0.05430  Biso   1.000  C
  C429     1.0000 0.73070  0.33200  0.95950  Biso   1.000  C
  C430     1.0000 0.42580  0.68300  0.00440  Biso   1.000  C
  C431     1.0000 0.80380  0.50510  0.09450  Biso   1.000  C
  C432     1.0000 0.96590  0.67300  0.15730  Biso   1.000  C
  C433     1.0000 0.73190  0.29970  0.92230  Biso   1.000  C
  C434     1.0000 0.01540  0.86290  0.23590  Biso   1.000  C
  C435     1.0000 0.74870  0.84920  0.16190  Biso   1.000  C
  C436     1.0000 0.99850  0.33130  0.02760  Biso   1.000  C
  C437     1.0000 0.98810  0.20750  0.06220  Biso   1.000  C
  C438     1.0000 0.65940  0.58140  0.99830  Biso   1.000  C
  C439     1.0000 0.46380  0.67840  0.00910  Biso   1.000  C
  C440     1.0000 0.00760  0.93950  0.24840  Biso   1.000  C
  C441     1.0000 0.62670  0.63040  0.99590  Biso   1.000  C
  C442     1.0000 0.66260  0.54490  0.98130  Biso   1.000  C
  C443     1.0000 0.91760  0.58840  0.16120  Biso   1.000  C
  C444     1.0000 0.89300  0.62760  0.09830  Biso   1.000  C
  C445     1.0000 0.99950  0.37460  0.02860  Biso   1.000  C
  C446     1.0000 0.63320  0.47130  0.93010  Biso   1.000  C
  C447     1.0000 0.03270  0.93070  0.29050  Biso   1.000  C
  C448     1.0000 0.78850  0.82190  0.09820  Biso   1.000  C
  C449     1.0000 0.77320  0.50440  0.05860  Biso   1.000  C
  C450     1.0000 0.97840  0.80450  0.14210  Biso   1.000  C
  C451     1.0000 0.60100  0.43850  0.89180  Biso   1.000  C
  C452     1.0000 0.20970  0.70590  0.17180  Biso   1.000  C
  C453     1.0000 0.02220  0.82610  0.23530  Biso   1.000  C
  C454     1.0000 0.49320  0.69720  0.05650  Biso   1.000  C
  C455     1.0000 0.72640  0.46210  0.05450  Biso   1.000  C
  C456     1.0000 0.39670  0.66480  0.95880  Biso   1.000  C
  C457     1.0000 0.12890  0.50020  0.01150  Biso   1.000  C
  C458     1.0000 0.62700  0.58830  0.97370  Biso   1.000  C
  C459     1.0000 0.16820  0.54150  0.00480  Biso   1.000  C
  C460     1.0000 0.63170  0.51350  0.94540  Biso   1.000  C
  C461     1.0000 0.82000  0.58690  0.04450  Biso   1.000  C
  C462     1.0000 0.16770  0.70510  0.17510  Biso   1.000  C
  C463     1.0000 0.46950  0.65100  0.96450  Biso   1.000  C
  C464     1.0000 0.04580  0.41860  0.02320  Biso   1.000  C
  C465     1.0000 0.84430  0.31190  0.97570  Biso   1.000  C
  C466     1.0000 0.88010  0.54950  0.14740  Biso   1.000  C
  C467     1.0000 0.66360  0.66880  0.01780  Biso   1.000  C
  C468     1.0000 0.08660  0.71120  0.18740  Biso   1.000  C
  C469     1.0000 0.96040  0.16940  0.02540  Biso   1.000  C
  C470     1.0000 0.56620  0.48820  0.88220  Biso   1.000  C
  C471     1.0000 0.11540  0.46290  0.98050  Biso   1.000  C
  C472     1.0000 0.23810  0.76310  0.24790  Biso   1.000  C
  C473     1.0000 0.10290  0.53240  0.08810  Biso   1.000  C
  C474     1.0000 0.53240  0.69450  0.06480  Biso   1.000  C
  C475     1.0000 0.03660  0.89240  0.28420  Biso   1.000  C
  C476     1.0000 0.43770  0.63360  0.91690  Biso   1.000  C
  C477     1.0000 0.21810  0.62240  0.03260  Biso   1.000  C
  C478     1.0000 0.07850  0.42430  0.98400  Biso   1.000  C
  C479     1.0000 0.87140  0.36880  0.05670  Biso   1.000  C
  C480     1.0000 0.56610  0.44410  0.86690  Biso   1.000  C
  C481     1.0000 0.76740  0.29120  0.92700  Biso   1.000  C
  C482     1.0000 0.84860  0.54750  0.10900  Biso   1.000  C
  C483     1.0000 0.19870  0.76250  0.25450  Biso   1.000  C
  C484     1.0000 0.40130  0.64030  0.91050  Biso   1.000  C
  C485     1.0000 0.77900  0.54670  0.03410  Biso   1.000  C
  C486     1.0000 0.28930  0.74090  0.19740  Biso   1.000  C
  C487     1.0000 0.59770  0.39440  0.88770  Biso   1.000  C
  C488     1.0000 0.35600  0.67250  0.95420  Biso   1.000  C
  C489     1.0000 0.69030  0.33850  0.95750  Biso   1.000  C
  H232     1.0000 0.13407  0.66063  0.11256  Biso   1.000  H
  H233     1.0000 0.06830  0.66045  0.12201  Biso   1.000  H
  H234     1.0000 0.83379  0.39479  0.07340  Biso   1.000  H
  H235     1.0000 0.55457  0.42783  0.03757  Biso   1.000  H
  H236     1.0000 0.63067  0.53203  0.14838  Biso   1.000  H
  H237     1.0000 0.65324  0.51475  0.09924  Biso   1.000  H
  H238     1.0000 0.62847  0.48467  0.15803  Biso   1.000  H
  H239     1.0000 0.59687  0.53938  0.13703  Biso   1.000  H
  H240     1.0000 0.54574  0.49925  0.14168  Biso   1.000  H
  H241     1.0000 0.56405  0.52698  0.07930  Biso   1.000  H
  H242     1.0000 0.85501  0.86478  0.09927  Biso   1.000  H
  H243     1.0000 0.67967  0.77189  0.11991  Biso   1.000  H
  H244     1.0000 0.93758  0.71369  0.15647  Biso   1.000  H
  H245     1.0000 0.91210  0.21715  0.95516  Biso   1.000  H
  H246     1.0000 0.97603  0.12149  0.05202  Biso   1.000  H
  H247     1.0000 0.74959  0.72938  0.01182  Biso   1.000  H
  H248     1.0000 0.55638  0.60682  0.98540  Biso   1.000  H
  H249     1.0000 0.96933  0.91595  0.17138  Biso   1.000  H
  H250     1.0000 0.06642  0.77734  0.20054  Biso   1.000  H
  H251     1.0000 0.81670  0.79525  0.03972  Biso   1.000  H
  H252     1.0000 0.96008  0.40224  0.02176  Biso   1.000  H
  H253     1.0000 0.88821  0.26703  0.00463  Biso   1.000  H
  H254     1.0000 0.88298  0.06945  0.92623  Biso   1.000  H
  H255     1.0000 0.62197  0.73140  0.05667  Biso   1.000  H
  H256     1.0000 0.00585  0.64490  0.16379  Biso   1.000  H
  H257     1.0000 0.76431  0.37799  0.02666  Biso   1.000  H
  H258     1.0000 0.52185  0.63603  0.94389  Biso   1.000  H
  H259     1.0000 0.78948  0.90774  0.19396  Biso   1.000  H
  H260     1.0000 0.96018  0.84780  0.10295  Biso   1.000  H
  H261     1.0000 0.88971  0.13912  0.90939  Biso   1.000  H
  H262     1.0000 0.12036  0.76040  0.24872  Biso   1.000  H
  H263     1.0000 0.01148  0.27131  0.08542  Biso   1.000  H
  H264     1.0000 0.57262  0.56429  0.92005  Biso   1.000  H
  H265     1.0000 0.14671  0.59878  0.10525  Biso   1.000  H
  H266     1.0000 0.02835  0.45281  0.07783  Biso   1.000  H
  H267     1.0000 0.42062  0.69963  0.03480  Biso   1.000  H
  H268     1.0000 0.79792  0.47754  0.11286  Biso   1.000  H
  H269     1.0000 0.70835  0.28334  0.89372  Biso   1.000  H
  H270     1.0000 0.72325  0.84595  0.18377  Biso   1.000  H
  H271     1.0000 0.02558  0.33059  0.03300  Biso   1.000  H
  H272     1.0000 0.00724  0.20412  0.09044  Biso   1.000  H
  H273     1.0000 0.67988  0.60210  0.02741  Biso   1.000  H
  H274     1.0000 0.68720  0.54197  0.99531  Biso   1.000  H
  H275     1.0000 0.93999  0.58894  0.18751  Biso   1.000  H
  H276     1.0000 0.89687  0.65537  0.08322  Biso   1.000  H
  H277     1.0000 0.65642  0.46699  0.94679  Biso   1.000  H
  H278     1.0000 0.04719  0.95085  0.32352  Biso   1.000  H
  H279     1.0000 0.96466  0.78285  0.11044  Biso   1.000  H
  H280     1.0000 0.21319  0.68532  0.14668  Biso   1.000  H
  H281     1.0000 0.03959  0.82157  0.26531  Biso   1.000  H
  H282     1.0000 0.48674  0.71336  0.08614  Biso   1.000  H
  H283     1.0000 0.19056  0.54467  0.97634  Biso   1.000  H
  H284     1.0000 0.82436  0.61438  0.02774  Biso   1.000  H
  H285     1.0000 0.84850  0.29256  0.94867  Biso   1.000  H
  H286     1.0000 0.87575  0.52240  0.16552  Biso   1.000  H
  H287     1.0000 0.69147  0.66913  0.01720  Biso   1.000  H
  H288     1.0000 0.54425  0.49399  0.86483  Biso   1.000  H
  H289     1.0000 0.13608  0.46434  0.95038  Biso   1.000  H
  H290     1.0000 0.26230  0.78246  0.27388  Biso   1.000  H
  H291     1.0000 0.08054  0.52926  0.11657  Biso   1.000  H
  H292     1.0000 0.55230  0.70830  0.09833  Biso   1.000  H
  H293     1.0000 0.05372  0.88640  0.31296  Biso   1.000  H
  H294     1.0000 0.44146  0.61585  0.88664  Biso   1.000  H
  H295     1.0000 0.07461  0.39995  0.95896  Biso   1.000  H
  H296     1.0000 0.89398  0.38640  0.08600  Biso   1.000  H
  H297     1.0000 0.54336  0.42168  0.84168  Biso   1.000  H
  H298     1.0000 0.76823  0.26914  0.90165  Biso   1.000  H
  H299     1.0000 0.19632  0.78084  0.28524  Biso   1.000  H
  H300     1.0000 0.38130  0.62947  0.87657  Biso   1.000  H
  H301     1.0000 0.75550  0.54699  0.01153  Biso   1.000  H
  N8       1.0000 0.53310  0.42490  0.02960  Biso   1.000  N
  C490     1.0000 0.57040  0.41610  0.03690  Biso   1.000  C
  C491     1.0000 0.49880  0.38780  0.99370  Biso   1.000  C
  C492     1.0000 0.50620  0.44700  0.03430  Biso   1.000  C
  H302     1.0000 0.56243  0.38869  0.01649  Biso   1.000  H
  H303     1.0000 0.47332  0.39277  0.98688  Biso   1.000  H
  H304     1.0000 0.48841  0.35945  0.01579  Biso   1.000  H
  H305     1.0000 0.51156  0.38639  0.95423  Biso   1.000  H
  H306     1.0000 0.47768  0.42914  0.01236  Biso   1.000  H
  H307     1.0000 0.52280  0.47715  0.01636  Biso   1.000  H
  H308     1.0000 0.49991  0.44939  0.07749  Biso   1.000  H
  La13     1.0000 0.96919  0.92403  0.83035  Biso   1.000  La
  La14     1.0000 0.69778  0.28825  0.54148  Biso   1.000  La
  La15     1.0000 0.62098  0.25680  0.70766  Biso   1.000  La
  O77      1.0000 0.03850  0.90840  0.85947  Biso   1.000  O
  O78      1.0000 0.98520  0.88440  0.64027  Biso   1.000  O
  O79      1.0000 0.99330  0.01830  0.95287  Biso   1.000  O
  O80      1.0000 0.96350  0.90610  0.71847  Biso   1.000  O
  O81      1.0000 0.04950  0.94580  0.77267  Biso   1.000  O
  O82      1.0000 0.02440  0.98870  0.89297  Biso   1.000  O
  O83      1.0000 0.56990  0.28510  0.76147  Biso   1.000  O
  O84      1.0000 0.30250  0.65510  0.65107  Biso   1.000  O
  O85      1.0000 0.69130  0.34820  0.59247  Biso   1.000  O
  O86      1.0000 0.34560  0.56570  0.73327  Biso   1.000  O
  O87      1.0000 0.29800  0.58570  0.82717  Biso   1.000  O
  O88      1.0000 0.63470  0.32280  0.65097  Biso   1.000  O
  O89      1.0000 0.35820  0.68170  0.59157  Biso   1.000  O
  O90      1.0000 0.56960  0.17760  0.72577  Biso   1.000  O
  O91      1.0000 0.61720  0.23560  0.59337  Biso   1.000  O
  O92      1.0000 0.54080  0.23910  0.68207  Biso   1.000  O
  O93      1.0000 0.23130  0.55500  0.89687  Biso   1.000  O
  O94      1.0000 0.63550  0.20750  0.51937  Biso   1.000  O
  O95      1.0000 0.37710  0.62950  0.65937  Biso   1.000  O
  N9       1.0000 0.51710  0.10270  0.76047  Biso   1.000  N
  C493     1.0000 0.90930  0.83890  0.65897  Biso   1.000  C
  C494     1.0000 0.42170  0.59660  0.70637  Biso   1.000  C
  C495     1.0000 0.31980  0.45220  0.80847  Biso   1.000  C
  C496     1.0000 0.26190  0.50730  0.87347  Biso   1.000  C
  C497     1.0000 0.10420  0.93350  0.80987  Biso   1.000  C
  C498     1.0000 0.31910  0.41210  0.81317  Biso   1.000  C
  C499     1.0000 0.06240  0.92930  0.81757  Biso   1.000  C
  C500     1.0000 0.62680  0.46300  0.71567  Biso   1.000  C
  C501     1.0000 0.01780  0.02190  0.91857  Biso   1.000  C
  C502     1.0000 0.55560  0.13700  0.72747  Biso   1.000  C
  C503     1.0000 0.49460  0.12260  0.79427  Biso   1.000  C
  C504     1.0000 0.48530  0.05730  0.78137  Biso   1.000  C
  C505     1.0000 0.33140  0.87180  0.68447  Biso   1.000  C
  C506     1.0000 0.13830  0.96560  0.77937  Biso   1.000  C
  C507     1.0000 0.22310  0.93050  0.76987  Biso   1.000  C
  C508     1.0000 0.28700  0.25160  0.83017  Biso   1.000  C
  C509     1.0000 0.78740  0.71860  0.64867  Biso   1.000  C
  C510     1.0000 0.87460  0.83110  0.69177  Biso   1.000  C
  C511     1.0000 0.82760  0.75870  0.64687  Biso   1.000  C
  C512     1.0000 0.18480  0.93010  0.78777  Biso   1.000  C
  C513     1.0000 0.24960  0.99760  0.70517  Biso   1.000  C
  C514     1.0000 0.20540  0.20510  0.85027  Biso   1.000  C
  C515     1.0000 0.36790  0.95160  0.66557  Biso   1.000  C
  C516     1.0000 0.09000  0.07650  0.86677  Biso   1.000  C
  C517     1.0000 0.33280  0.91560  0.68607  Biso   1.000  C
  C518     1.0000 0.25020  0.29070  0.85597  Biso   1.000  C
  C519     1.0000 0.21000  0.99880  0.72287  Biso   1.000  C
  C520     1.0000 0.62570  0.58540  0.68747  Biso   1.000  C
  C521     1.0000 0.70600  0.62210  0.67717  Biso   1.000  C
  C522     1.0000 0.25080  0.25260  0.84587  Biso   1.000  C
  C523     1.0000 0.65250  0.45320  0.67267  Biso   1.000  C
  C524     1.0000 0.90530  0.80850  0.61687  Biso   1.000  C
  C525     1.0000 0.68490  0.48670  0.63557  Biso   1.000  C
  C526     1.0000 0.29400  0.91710  0.70807  Biso   1.000  C
  C527     1.0000 0.75130  0.71180  0.69137  Biso   1.000  C
  C528     1.0000 0.29410  0.95870  0.70657  Biso   1.000  C
  C529     1.0000 0.26380  0.42550  0.88487  Biso   1.000  C
  C530     1.0000 0.95530  0.88080  0.66947  Biso   1.000  C
  C531     1.0000 0.32770  0.33320  0.83447  Biso   1.000  C
  C532     1.0000 0.66620  0.54120  0.68287  Biso   1.000  C
  C533     1.0000 0.25840  0.96320  0.72647  Biso   1.000  C
  C534     1.0000 0.64410  0.40920  0.66797  Biso   1.000  C
  C535     1.0000 0.34920  0.86310  0.64057  Biso   1.000  C
  C536     1.0000 0.12830  0.11860  0.86047  Biso   1.000  C
  C537     1.0000 0.41320  0.26800  0.74637  Biso   1.000  C
  C538     1.0000 0.70710  0.66670  0.68577  Biso   1.000  C
  C539     1.0000 0.11480  0.90360  0.83457  Biso   1.000  C
  C540     1.0000 0.15840  0.13150  0.80407  Biso   1.000  C
  C541     1.0000 0.66540  0.58360  0.67817  Biso   1.000  C
  C542     1.0000 0.86430  0.77020  0.60897  Biso   1.000  C
  C543     1.0000 0.26070  0.38260  0.88887  Biso   1.000  C
  C544     1.0000 0.48100  0.07940  0.58777  Biso   1.000  C
  C545     1.0000 0.28910  0.33290  0.85057  Biso   1.000  C
  C546     1.0000 0.75350  0.74390  0.72827  Biso   1.000  C
  C547     1.0000 0.37180  0.29440  0.80187  Biso   1.000  C
  C548     1.0000 0.44060  0.03610  0.60287  Biso   1.000  C
  C549     1.0000 0.42630  0.56850  0.74807  Biso   1.000  C
  C550     1.0000 0.50430  0.60050  0.71987  Biso   1.000  C
  C551     1.0000 0.54590  0.59820  0.72097  Biso   1.000  C
  C552     1.0000 0.66800  0.39870  0.62617  Biso   1.000  C
  C553     1.0000 0.31700  0.74280  0.67107  Biso   1.000  C
  C554     1.0000 0.49490  0.29870  0.76117  Biso   1.000  C
  C555     1.0000 0.32700  0.29290  0.82397  Biso   1.000  C
  C556     1.0000 0.70030  0.43220  0.58897  Biso   1.000  C
  C557     1.0000 0.13710  0.15250  0.90257  Biso   1.000  C
  C558     1.0000 0.15080  0.89950  0.82857  Biso   1.000  C
  C559     1.0000 0.66870  0.66720  0.69427  Biso   1.000  C
  C560     1.0000 0.79250  0.78060  0.72887  Biso   1.000  C
  C561     1.0000 0.41860  0.07800  0.66497  Biso   1.000  C
  C562     1.0000 0.32160  0.78540  0.67577  Biso   1.000  C
  C563     1.0000 0.06050  0.06810  0.91507  Biso   1.000  C
  C564     1.0000 0.36960  0.99630  0.66257  Biso   1.000  C
  C565     1.0000 0.45510  0.11770  0.64797  Biso   1.000  C
  C566     1.0000 0.41160  0.32920  0.82787  Biso   1.000  C
  C567     1.0000 0.37240  0.26540  0.76497  Biso   1.000  C
  C568     1.0000 0.62540  0.62490  0.69527  Biso   1.000  C
  C569     1.0000 0.52870  0.16190  0.59677  Biso   1.000  C
  C570     1.0000 0.06930  0.10200  0.95717  Biso   1.000  C
  C571     1.0000 0.17810  0.96660  0.76487  Biso   1.000  C
  C572     1.0000 0.49560  0.26880  0.72527  Biso   1.000  C
  C573     1.0000 0.19550  0.17390  0.80877  Biso   1.000  C
  C574     1.0000 0.56150  0.16250  0.55847  Biso   1.000  C
  C575     1.0000 0.29410  0.50380  0.83847  Biso   1.000  C
  C576     1.0000 0.17390  0.19610  0.90197  Biso   1.000  C
  C577     1.0000 0.30280  0.79600  0.72317  Biso   1.000  C
  C578     1.0000 0.53790  0.26430  0.72117  Biso   1.000  C
  C579     1.0000 0.33520  0.73190  0.62547  Biso   1.000  C
  C580     1.0000 0.49980  0.62870  0.67817  Biso   1.000  C
  C581     1.0000 0.41170  0.03870  0.64037  Biso   1.000  C
  C582     1.0000 0.45850  0.62670  0.67147  Biso   1.000  C
  C583     1.0000 0.48650  0.11820  0.61207  Biso   1.000  C
  C584     1.0000 0.41310  0.23310  0.71117  Biso   1.000  C
  C585     1.0000 0.29490  0.46260  0.84177  Biso   1.000  C
  C586     1.0000 0.34900  0.81850  0.63117  Biso   1.000  C
  C587     1.0000 0.58140  0.62720  0.68987  Biso   1.000  C
  C588     1.0000 0.68810  0.53240  0.64237  Biso   1.000  C
  C589     1.0000 0.45050  0.33060  0.81407  Biso   1.000  C
  C590     1.0000 0.33120  0.99480  0.68447  Biso   1.000  C
  C591     1.0000 0.28880  0.37540  0.85407  Biso   1.000  C
  C592     1.0000 0.83060  0.79100  0.69207  Biso   1.000  C
  C593     1.0000 0.51180  0.07800  0.54887  Biso   1.000  C
  C594     1.0000 0.53710  0.65250  0.64717  Biso   1.000  C
  C595     1.0000 0.23690  0.47500  0.91457  Biso   1.000  C
  C596     1.0000 0.46760  0.57050  0.75477  Biso   1.000  C
  C597     1.0000 0.30550  0.83790  0.73147  Biso   1.000  C
  C598     1.0000 0.10760  0.14420  0.95087  Biso   1.000  C
  C599     1.0000 0.36640  0.80410  0.58357  Biso   1.000  C
  C600     1.0000 0.37760  0.59570  0.69927  Biso   1.000  C
  C601     1.0000 0.57570  0.65420  0.65067  Biso   1.000  C
  C602     1.0000 0.63120  0.50260  0.72337  Biso   1.000  C
  C603     1.0000 0.55590  0.12200  0.53357  Biso   1.000  C
  C604     1.0000 0.70880  0.47620  0.59367  Biso   1.000  C
  C605     1.0000 0.45250  0.30110  0.77567  Biso   1.000  C
  C606     1.0000 0.23750  0.43620  0.92117  Biso   1.000  C
  C607     1.0000 0.35970  0.76100  0.57717  Biso   1.000  C
  C608     1.0000 0.45330  0.23230  0.70077  Biso   1.000  C
  C609     1.0000 0.25910  0.54840  0.86407  Biso   1.000  C
  C610     1.0000 0.60560  0.20330  0.55437  Biso   1.000  C
  C611     1.0000 0.32750  0.68350  0.62087  Biso   1.000  C
  C612     1.0000 0.66150  0.35180  0.62417  Biso   1.000  C
  H309     1.0000 0.33937  0.47344  0.77923  Biso   1.000  H
  H310     1.0000 0.33955  0.40785  0.78868  Biso   1.000  H
  H311     1.0000 0.60521  0.43900  0.74007  Biso   1.000  H
  H312     1.0000 0.57217  0.12674  0.70424  Biso   1.000  H
  H313     1.0000 0.46797  0.09864  0.81505  Biso   1.000  H
  H314     1.0000 0.48525  0.13849  0.76591  Biso   1.000  H
  H315     1.0000 0.51533  0.14380  0.82470  Biso   1.000  H
  H316     1.0000 0.46062  0.05749  0.80370  Biso   1.000  H
  H317     1.0000 0.50075  0.04649  0.80835  Biso   1.000  H
  H318     1.0000 0.47302  0.03707  0.74597  Biso   1.000  H
  H319     1.0000 0.13522  0.99023  0.76594  Biso   1.000  H
  H320     1.0000 0.22811  0.90778  0.78658  Biso   1.000  H
  H321     1.0000 0.28631  0.22389  0.82314  Biso   1.000  H
  H322     1.0000 0.78285  0.69495  0.62183  Biso   1.000  H
  H323     1.0000 0.87851  0.85454  0.71869  Biso   1.000  H
  H324     1.0000 0.27062  0.02021  0.67849  Biso   1.000  H
  H325     1.0000 0.39318  0.94956  0.65207  Biso   1.000  H
  H326     1.0000 0.08405  0.05338  0.83805  Biso   1.000  H
  H327     1.0000 0.22266  0.28908  0.86721  Biso   1.000  H
  H328     1.0000 0.20475  0.02145  0.70639  Biso   1.000  H
  H329     1.0000 0.59776  0.55784  0.68843  Biso   1.000  H
  H330     1.0000 0.73297  0.62118  0.67130  Biso   1.000  H
  H331     1.0000 0.93055  0.81353  0.59290  Biso   1.000  H
  H332     1.0000 0.26860  0.89057  0.72334  Biso   1.000  H
  H333     1.0000 0.35510  0.36095  0.83046  Biso   1.000  H
  H334     1.0000 0.62201  0.38632  0.69333  Biso   1.000  H
  H335     1.0000 0.36397  0.88582  0.61056  Biso   1.000  H
  H336     1.0000 0.09226  0.88174  0.86063  Biso   1.000  H
  H337     1.0000 0.15220  0.11238  0.76962  Biso   1.000  H
  H338     1.0000 0.86088  0.75059  0.57606  Biso   1.000  H
  H339     1.0000 0.23960  0.35996  0.91539  Biso   1.000  H
  H340     1.0000 0.72869  0.74017  0.75209  Biso   1.000  H
  H341     1.0000 0.43571  0.00833  0.58672  Biso   1.000  H
  H342     1.0000 0.40122  0.54793  0.77192  Biso   1.000  H
  H343     1.0000 0.54719  0.57554  0.74450  Biso   1.000  H
  H344     1.0000 0.30037  0.72099  0.70147  Biso   1.000  H
  H345     1.0000 0.52246  0.32038  0.77953  Biso   1.000  H
  H346     1.0000 0.71666  0.42501  0.56039  Biso   1.000  H
  H347     1.0000 0.15405  0.87730  0.85044  Biso   1.000  H
  H348     1.0000 0.66941  0.69499  0.69967  Biso   1.000  H
  H349     1.0000 0.79588  0.80312  0.75711  Biso   1.000  H
  H350     1.0000 0.39790  0.07778  0.69408  Biso   1.000  H
  H351     1.0000 0.45803  0.14523  0.66198  Biso   1.000  H
  H352     1.0000 0.41106  0.35105  0.85418  Biso   1.000  H
  H353     1.0000 0.34463  0.24150  0.74989  Biso   1.000  H
  H354     1.0000 0.53301  0.18943  0.61346  Biso   1.000  H
  H355     1.0000 0.04915  0.09634  0.99019  Biso   1.000  H
  H356     1.0000 0.21715  0.18181  0.77711  Biso   1.000  H
  H357     1.0000 0.31468  0.52787  0.81335  Biso   1.000  H
  H358     1.0000 0.17843  0.21802  0.93198  Biso   1.000  H
  H359     1.0000 0.28664  0.77338  0.75281  Biso   1.000  H
  H360     1.0000 0.45533  0.64589  0.64301  Biso   1.000  H
  H361     1.0000 0.38562  0.20998  0.69441  Biso   1.000  H
  H362     1.0000 0.70744  0.55594  0.61534  Biso   1.000  H
  H363     1.0000 0.47760  0.35335  0.83219  Biso   1.000  H
  H364     1.0000 0.33087  0.02234  0.68387  Biso   1.000  H
  H365     1.0000 0.50601  0.05026  0.53150  Biso   1.000  H
  H366     1.0000 0.53566  0.67174  0.61705  Biso   1.000  H
  H367     1.0000 0.21754  0.47984  0.94055  Biso   1.000  H
  H368     1.0000 0.47074  0.55128  0.78324  Biso   1.000  H
  H369     1.0000 0.29170  0.84400  0.76500  Biso   1.000  H
  H370     1.0000 0.11360  0.16732  0.97963  Biso   1.000  H
  H371     1.0000 0.38415  0.82561  0.55331  Biso   1.000  H
  H372     1.0000 0.60005  0.67466  0.62563  Biso   1.000  H
  H373     1.0000 0.61360  0.50758  0.75267  Biso   1.000  H
  H374     1.0000 0.57832  0.12168  0.50835  Biso   1.000  H
  H375     1.0000 0.73086  0.49909  0.56832  Biso   1.000  H
  H376     1.0000 0.21916  0.41548  0.95191  Biso   1.000  H
  H377     1.0000 0.37053  0.75183  0.54324  Biso   1.000  H
  H378     1.0000 0.45301  0.20851  0.67820  Biso   1.000  H
  N10      1.0000 0.57510  0.10820  0.69627  Biso   1.000  N
  C613     1.0000 0.58390  0.15430  0.70357  Biso   1.000  C
  C614     1.0000 0.61220  0.11100  0.66037  Biso   1.000  C
  C615     1.0000 0.55300  0.05920  0.70097  Biso   1.000  C
  H379     1.0000 0.61131  0.17374  0.68316  Biso   1.000  H
  H380     1.0000 0.60723  0.08055  0.65355  Biso   1.000  H
  H381     1.0000 0.64055  0.12896  0.68246  Biso   1.000  H
  H382     1.0000 0.61361  0.12517  0.62090  Biso   1.000  H
  H383     1.0000 0.57086  0.04854  0.67903  Biso   1.000  H
  H384     1.0000 0.52285  0.04565  0.68303  Biso   1.000  H
  H385     1.0000 0.55061  0.05052  0.74416  Biso   1.000  H
  La16     1.0000 0.07597  0.04516  0.49701  Biso   1.000  La
  La17     1.0000 0.71175  0.40953  0.20814  Biso   1.000  La
  La18     1.0000 0.74320  0.36418  0.37432  Biso   1.000  La
  O96      1.0000 0.09160  0.13010  0.52613  Biso   1.000  O
  O97      1.0000 0.11560  0.10080  0.30693  Biso   1.000  O
  O98      1.0000 0.98170  0.97500  0.61953  Biso   1.000  O
  O99      1.0000 0.09390  0.05740  0.38513  Biso   1.000  O
  O100     1.0000 0.05420  0.10370  0.43933  Biso   1.000  O
  O101     1.0000 0.01130  0.03570  0.55963  Biso   1.000  O
  O102     1.0000 0.71490  0.28480  0.42813  Biso   1.000  O
  O103     1.0000 0.34490  0.64740  0.31773  Biso   1.000  O
  O104     1.0000 0.65180  0.34310  0.25913  Biso   1.000  O
  O105     1.0000 0.43430  0.77990  0.39993  Biso   1.000  O
  O106     1.0000 0.41430  0.71230  0.49383  Biso   1.000  O
  O107     1.0000 0.67720  0.31190  0.31763  Biso   1.000  O
  O108     1.0000 0.31830  0.67650  0.25823  Biso   1.000  O
  O109     1.0000 0.82240  0.39200  0.39243  Biso   1.000  O
  O110     1.0000 0.76440  0.38160  0.26003  Biso   1.000  O
  O111     1.0000 0.76090  0.30170  0.34873  Biso   1.000  O
  O112     1.0000 0.44500  0.67630  0.56353  Biso   1.000  O
  O113     1.0000 0.79250  0.42800  0.18603  Biso   1.000  O
  O114     1.0000 0.37050  0.74760  0.32603  Biso   1.000  O
  N11      1.0000 0.89730  0.41440  0.42713  Biso   1.000  N
  C616     1.0000 0.16110  0.07040  0.32563  Biso   1.000  C
  C617     1.0000 0.40340  0.82510  0.37303  Biso   1.000  C
  C618     1.0000 0.54780  0.86760  0.47513  Biso   1.000  C
  C619     1.0000 0.49270  0.75460  0.54013  Biso   1.000  C
  C620     1.0000 0.06650  0.17070  0.47653  Biso   1.000  C
  C621     1.0000 0.58790  0.90700  0.47983  Biso   1.000  C
  C622     1.0000 0.07070  0.13310  0.48423  Biso   1.000  C
  C623     1.0000 0.53700  0.16380  0.38233  Biso   1.000  C
  C624     1.0000 0.97810  0.99590  0.58523  Biso   1.000  C
  C625     1.0000 0.86300  0.41860  0.39413  Biso   1.000  C
  C626     1.0000 0.87740  0.37200  0.46093  Biso   1.000  C
  C627     1.0000 0.94270  0.42800  0.44803  Biso   1.000  C
  C628     1.0000 0.12820  0.45960  0.35113  Biso   1.000  C
  C629     1.0000 0.03440  0.17270  0.44603  Biso   1.000  C
  C630     1.0000 0.06950  0.29260  0.43653  Biso   1.000  C
  C631     1.0000 0.74840  0.03540  0.49683  Biso   1.000  C
  C632     1.0000 0.28140  0.06880  0.31533  Biso   1.000  C
  C633     1.0000 0.16890  0.04350  0.35843  Biso   1.000  C
  C634     1.0000 0.24130  0.06890  0.31353  Biso   1.000  C
  C635     1.0000 0.06990  0.25470  0.45443  Biso   1.000  C
  C636     1.0000 0.00240  0.25200  0.37183  Biso   1.000  C
  C637     1.0000 0.79490  0.00030  0.51693  Biso   1.000  C
  C638     1.0000 0.04840  0.41630  0.33223  Biso   1.000  C
  C639     1.0000 0.92350  0.01350  0.53343  Biso   1.000  C
  C640     1.0000 0.08440  0.41720  0.35273  Biso   1.000  C
  C641     1.0000 0.70930  0.95950  0.52263  Biso   1.000  C
  C642     1.0000 0.00120  0.21120  0.38953  Biso   1.000  C
  C643     1.0000 0.41460  0.04030  0.35413  Biso   1.000  C
  C644     1.0000 0.37790  0.08390  0.34383  Biso   1.000  C
  C645     1.0000 0.74740  0.99820  0.51253  Biso   1.000  C
  C646     1.0000 0.54680  0.19930  0.33933  Biso   1.000  C
  C647     1.0000 0.19150  0.09680  0.28353  Biso   1.000  C
  C648     1.0000 0.51330  0.19820  0.30223  Biso   1.000  C
  C649     1.0000 0.08290  0.37690  0.37473  Biso   1.000  C
  C650     1.0000 0.28820  0.03950  0.35803  Biso   1.000  C
  C651     1.0000 0.04130  0.33540  0.37323  Biso   1.000  C
  C652     1.0000 0.57450  0.83830  0.55153  Biso   1.000  C
  C653     1.0000 0.11920  0.07450  0.33613  Biso   1.000  C
  C654     1.0000 0.66680  0.99450  0.50113  Biso   1.000  C
  C655     1.0000 0.45880  0.12500  0.34953  Biso   1.000  C
  C656     1.0000 0.03680  0.29520  0.39313  Biso   1.000  C
  C657     1.0000 0.59080  0.23490  0.33463  Biso   1.000  C
  C658     1.0000 0.13690  0.48610  0.30723  Biso   1.000  C
  C659     1.0000 0.88140  0.00970  0.52713  Biso   1.000  C
  C660     1.0000 0.73200  0.14520  0.41303  Biso   1.000  C
  C661     1.0000 0.33330  0.04040  0.35243  Biso   1.000  C
  C662     1.0000 0.09640  0.21120  0.50123  Biso   1.000  C
  C663     1.0000 0.86850  0.02690  0.47073  Biso   1.000  C
  C664     1.0000 0.41640  0.08180  0.34483  Biso   1.000  C
  C665     1.0000 0.22980  0.09410  0.27563  Biso   1.000  C
  C666     1.0000 0.61740  0.87810  0.55553  Biso   1.000  C
  C667     1.0000 0.92060  0.40160  0.25443  Biso   1.000  C
  C668     1.0000 0.66710  0.95620  0.51723  Biso   1.000  C
  C669     1.0000 0.25610  0.00960  0.39493  Biso   1.000  C
  C670     1.0000 0.70560  0.07740  0.46853  Biso   1.000  C
  C671     1.0000 0.96390  0.40450  0.26953  Biso   1.000  C
  C672     1.0000 0.43150  0.85780  0.41473  Biso   1.000  C
  C673     1.0000 0.39950  0.90380  0.38653  Biso   1.000  C
  C674     1.0000 0.40180  0.94770  0.38763  Biso   1.000  C
  C675     1.0000 0.60130  0.26930  0.29283  Biso   1.000  C
  C676     1.0000 0.25720  0.57420  0.33773  Biso   1.000  C
  C677     1.0000 0.70130  0.19620  0.42783  Biso   1.000  C
  C678     1.0000 0.70710  0.03410  0.49063  Biso   1.000  C
  C679     1.0000 0.56780  0.26810  0.25563  Biso   1.000  C
  C680     1.0000 0.84750  0.98460  0.56923  Biso   1.000  C
  C681     1.0000 0.10050  0.25130  0.49523  Biso   1.000  C
  C682     1.0000 0.33280  0.00150  0.36093  Biso   1.000  C
  C683     1.0000 0.21940  0.01190  0.39553  Biso   1.000  C
  C684     1.0000 0.92200  0.34060  0.33163  Biso   1.000  C
  C685     1.0000 0.21460  0.53620  0.34243  Biso   1.000  C
  C686     1.0000 0.93190  0.99240  0.58173  Biso   1.000  C
  C687     1.0000 0.00370  0.37330  0.32923  Biso   1.000  C
  C688     1.0000 0.88230  0.33740  0.31463  Biso   1.000  C
  C689     1.0000 0.67080  0.08240  0.49453  Biso   1.000  C
  C690     1.0000 0.73460  0.10700  0.43163  Biso   1.000  C
  C691     1.0000 0.37510  0.00050  0.36193  Biso   1.000  C
  C692     1.0000 0.83810  0.36680  0.26343  Biso   1.000  C
  C693     1.0000 0.89800  0.96730  0.62383  Biso   1.000  C
  C694     1.0000 0.03340  0.21150  0.43153  Biso   1.000  C
  C695     1.0000 0.73120  0.22680  0.39193  Biso   1.000  C
  C696     1.0000 0.82610  0.02160  0.47543  Biso   1.000  C
  C697     1.0000 0.83750  0.39900  0.22513  Biso   1.000  C
  C698     1.0000 0.49620  0.79030  0.50513  Biso   1.000  C
  C699     1.0000 0.80390  0.97780  0.56863  Biso   1.000  C
  C700     1.0000 0.20400  0.50680  0.38983  Biso   1.000  C
  C701     1.0000 0.73570  0.27360  0.38783  Biso   1.000  C
  C702     1.0000 0.26810  0.60330  0.29213  Biso   1.000  C
  C703     1.0000 0.37130  0.87110  0.34483  Biso   1.000  C
  C704     1.0000 0.96130  0.37300  0.30703  Biso   1.000  C
  C705     1.0000 0.37330  0.83180  0.33813  Biso   1.000  C
  C706     1.0000 0.88180  0.36830  0.27873  Biso   1.000  C
  C707     1.0000 0.76690  0.18000  0.37783  Biso   1.000  C
  C708     1.0000 0.53740  0.83230  0.50843  Biso   1.000  C
  C709     1.0000 0.18150  0.53050  0.29783  Biso   1.000  C
  C710     1.0000 0.37280  0.95420  0.35653  Biso   1.000  C
  C711     1.0000 0.46760  0.15570  0.30903  Biso   1.000  C
  C712     1.0000 0.66940  0.11990  0.48073  Biso   1.000  C
  C713     1.0000 0.00520  0.33640  0.35113  Biso   1.000  C
  C714     1.0000 0.62460  0.91340  0.52073  Biso   1.000  C
  C715     1.0000 0.20900  0.03960  0.35873  Biso   1.000  C
  C716     1.0000 0.92200  0.43380  0.21553  Biso   1.000  C
  C717     1.0000 0.34750  0.88460  0.31383  Biso   1.000  C
  C718     1.0000 0.52500  0.76190  0.58123  Biso   1.000  C
  C719     1.0000 0.42950  0.89710  0.42143  Biso   1.000  C
  C720     1.0000 0.16210  0.46760  0.39813  Biso   1.000  C
  C721     1.0000 0.85580  0.96340  0.61753  Biso   1.000  C
  C722     1.0000 0.19590  0.56230  0.25023  Biso   1.000  C
  C723     1.0000 0.40430  0.78190  0.36593  Biso   1.000  C
  C724     1.0000 0.34580  0.92150  0.31733  Biso   1.000  C
  C725     1.0000 0.49740  0.12860  0.39003  Biso   1.000  C
  C726     1.0000 0.87800  0.43390  0.20023  Biso   1.000  C
  C727     1.0000 0.52380  0.23260  0.26033  Biso   1.000  C
  C728     1.0000 0.69890  0.15140  0.44233  Biso   1.000  C
  C729     1.0000 0.56380  0.80130  0.58783  Biso   1.000  C
  C730     1.0000 0.23900  0.59870  0.24383  Biso   1.000  C
  C731     1.0000 0.76770  0.22100  0.36743  Biso   1.000  C
  C732     1.0000 0.45160  0.71070  0.53073  Biso   1.000  C
  C733     1.0000 0.79670  0.40230  0.22103  Biso   1.000  C
  C734     1.0000 0.31650  0.64400  0.28753  Biso   1.000  C
  C735     1.0000 0.64820  0.30970  0.29083  Biso   1.000  C
  H386     1.0000 0.52656  0.86593  0.44589  Biso   1.000  H
  H387     1.0000 0.59215  0.93170  0.45534  Biso   1.000  H
  H388     1.0000 0.56100  0.16621  0.40673  Biso   1.000  H
  H389     1.0000 0.87326  0.44543  0.37090  Biso   1.000  H
  H390     1.0000 0.90136  0.36933  0.48171  Biso   1.000  H
  H391     1.0000 0.86151  0.34676  0.43257  Biso   1.000  H
  H392     1.0000 0.85620  0.37153  0.49136  Biso   1.000  H
  H393     1.0000 0.94251  0.40313  0.47036  Biso   1.000  H
  H394     1.0000 0.95351  0.45426  0.47501  Biso   1.000  H
  H395     1.0000 0.96293  0.43595  0.41263  Biso   1.000  H
  H396     1.0000 0.00977  0.14499  0.43260  Biso   1.000  H
  H397     1.0000 0.09222  0.32033  0.45324  Biso   1.000  H
  H398     1.0000 0.77611  0.06242  0.48980  Biso   1.000  H
  H399     1.0000 0.30505  0.08790  0.28849  Biso   1.000  H
  H400     1.0000 0.14546  0.02397  0.38535  Biso   1.000  H
  H401     1.0000 0.97979  0.25041  0.34515  Biso   1.000  H
  H402     1.0000 0.05044  0.44362  0.31873  Biso   1.000  H
  H403     1.0000 0.94662  0.03067  0.50471  Biso   1.000  H
  H404     1.0000 0.71092  0.93358  0.53387  Biso   1.000  H
  H405     1.0000 0.97855  0.18330  0.37305  Biso   1.000  H
  H406     1.0000 0.44216  0.03992  0.35509  Biso   1.000  H
  H407     1.0000 0.37882  0.11179  0.33796  Biso   1.000  H
  H408     1.0000 0.18647  0.11702  0.25956  Biso   1.000  H
  H409     1.0000 0.10943  0.37803  0.39000  Biso   1.000  H
  H410     1.0000 0.63905  0.99415  0.49712  Biso   1.000  H
  H411     1.0000 0.61368  0.23569  0.35999  Biso   1.000  H
  H412     1.0000 0.11418  0.47815  0.27722  Biso   1.000  H
  H413     1.0000 0.11826  0.21052  0.52729  Biso   1.000  H
  H414     1.0000 0.88762  0.03982  0.43628  Biso   1.000  H
  H415     1.0000 0.24941  0.11029  0.24272  Biso   1.000  H
  H416     1.0000 0.64004  0.87964  0.58205  Biso   1.000  H
  H417     1.0000 0.25983  0.98852  0.41875  Biso   1.000  H
  H418     1.0000 0.99167  0.42738  0.25338  Biso   1.000  H
  H419     1.0000 0.45207  0.85329  0.43858  Biso   1.000  H
  H420     1.0000 0.42446  0.97165  0.41116  Biso   1.000  H
  H421     1.0000 0.27901  0.57938  0.36813  Biso   1.000  H
  H422     1.0000 0.67962  0.20208  0.44619  Biso   1.000  H
  H423     1.0000 0.57499  0.29165  0.22705  Biso   1.000  H
  H424     1.0000 0.12270  0.27675  0.51710  Biso   1.000  H
  H425     1.0000 0.30501  0.97442  0.36633  Biso   1.000  H
  H426     1.0000 0.19688  0.99276  0.42377  Biso   1.000  H
  H427     1.0000 0.92222  0.32012  0.36074  Biso   1.000  H
  H428     1.0000 0.85477  0.31280  0.32864  Biso   1.000  H
  H429     1.0000 0.64895  0.06001  0.52084  Biso   1.000  H
  H430     1.0000 0.75850  0.10313  0.41655  Biso   1.000  H
  H431     1.0000 0.81057  0.34358  0.28012  Biso   1.000  H
  H432     1.0000 0.90366  0.95281  0.65685  Biso   1.000  H
  H433     1.0000 0.81819  0.03534  0.44377  Biso   1.000  H
  H434     1.0000 0.47213  0.78681  0.48001  Biso   1.000  H
  H435     1.0000 0.78198  0.96041  0.59864  Biso   1.000  H
  H436     1.0000 0.22662  0.51326  0.41947  Biso   1.000  H
  H437     1.0000 0.35411  0.80944  0.30967  Biso   1.000  H
  H438     1.0000 0.79002  0.17564  0.36107  Biso   1.000  H
  H439     1.0000 0.44406  0.15150  0.28200  Biso   1.000  H
  H440     1.0000 0.64665  0.12425  0.49885  Biso   1.000  H
  H441     1.0000 0.97766  0.30853  0.35053  Biso   1.000  H
  H442     1.0000 0.94974  0.45575  0.19816  Biso   1.000  H
  H443     1.0000 0.32826  0.86392  0.28371  Biso   1.000  H
  H444     1.0000 0.52016  0.73770  0.60721  Biso   1.000  H
  H445     1.0000 0.44872  0.91946  0.44990  Biso   1.000  H
  H446     1.0000 0.15600  0.44770  0.43166  Biso   1.000  H
  H447     1.0000 0.83268  0.94628  0.64629  Biso   1.000  H
  H448     1.0000 0.17439  0.55854  0.21997  Biso   1.000  H
  H449     1.0000 0.32534  0.92539  0.29229  Biso   1.000  H
  H450     1.0000 0.49242  0.10602  0.41933  Biso   1.000  H
  H451     1.0000 0.87832  0.45664  0.17501  Biso   1.000  H
  H452     1.0000 0.50091  0.23177  0.23498  Biso   1.000  H
  H453     1.0000 0.58452  0.80368  0.61857  Biso   1.000  H
  H454     1.0000 0.24817  0.61870  0.20990  Biso   1.000  H
  H455     1.0000 0.79149  0.24450  0.34486  Biso   1.000  H
  N12      1.0000 0.89180  0.46690  0.36293  Biso   1.000  N
  C736     1.0000 0.84570  0.42960  0.37023  Biso   1.000  C
  C737     1.0000 0.88900  0.50120  0.32703  Biso   1.000  C
  C738     1.0000 0.94080  0.49380  0.36763  Biso   1.000  C
  H456     1.0000 0.82626  0.43757  0.34982  Biso   1.000  H
  H457     1.0000 0.91945  0.52668  0.32021  Biso   1.000  H
  H458     1.0000 0.87104  0.51159  0.34912  Biso   1.000  H
  H459     1.0000 0.87483  0.48844  0.28756  Biso   1.000  H
  H460     1.0000 0.95146  0.52232  0.34569  Biso   1.000  H
  H461     1.0000 0.95435  0.47720  0.34969  Biso   1.000  H
  H462     1.0000 0.94948  0.50009  0.41082  Biso   1.000  H
