data_image0
_cell_length_a       25.5191
_cell_length_b       25.5191
_cell_length_c       50.91
_cell_angle_alpha    90
_cell_angle_beta     90
_cell_angle_gamma    90

_symmetry_space_group_name_H-M    "P 1"
_symmetry_int_tables_number       1

loop_
  _symmetry_equiv_pos_as_xyz
  'x, y, z'

loop_
  _atom_site_label
  _atom_site_occupancy
  _atom_site_fract_x
  _atom_site_fract_y
  _atom_site_fract_z
  _atom_site_thermal_displace_type
  _atom_site_B_iso_or_equiv
  _atom_site_type_symbol
  C1       1.0000 0.23490  0.95750  0.93068  Biso   1.000  C
  C2       1.0000 0.22560  0.96170  0.90150  Biso   1.000  C
  C3       1.0000 0.25450  0.93140  0.88423  Biso   1.000  C
  C4       1.0000 0.18850  0.99700  0.89272  Biso   1.000  C
  C5       1.0000 0.35880  0.92410  0.89470  Biso   1.000  C
  H1       1.0000 0.35330  0.95310  0.88240  Biso   1.000  H
  H2       1.0000 0.38770  0.90200  0.88850  Biso   1.000  H
  H3       1.0000 0.36750  0.93810  0.91210  Biso   1.000  H
  C6       1.0000 0.09450  0.99070  0.91760  Biso   1.000  C
  H4       1.0000 0.08250  0.98360  0.89970  Biso   1.000  H
  H5       1.0000 0.06640  0.00820  0.92740  Biso   1.000  H
  H6       1.0000 0.10340  0.95760  0.92630  Biso   1.000  H
  S1       1.0000 0.40573  0.08831  0.02216  Biso   1.000  S
  S2       1.0000 0.53063  0.11944  0.02525  Biso   1.000  S
  S3       1.0000 0.41800  0.06451  0.02275  Biso   1.000  S
  S4       1.0000 0.54374  0.09549  0.02615  Biso   1.000  S
  O1       1.0000 0.36390  0.96080  0.01440  Biso   1.000  O
  O2       1.0000 0.36050  0.00180  0.97549  Biso   1.000  O
  O3       1.0000 0.37780  0.93710  0.01610  Biso   1.000  O
  O4       1.0000 0.37130  0.97860  0.97780  Biso   1.000  O
  C7       1.0000 0.38340  0.98470  0.99690  Biso   1.000  C
  C8       1.0000 0.44080  0.99880  0.99838  Biso   1.000  C
  C9       1.0000 0.45610  0.04590  0.00964  Biso   1.000  C
  C10      1.0000 0.50890  0.05894  0.01093  Biso   1.000  C
  C11      1.0000 0.45360  0.97520  0.99904  Biso   1.000  C
  C12      1.0000 0.46900  0.02240  0.01030  Biso   1.000  C
  C13      1.0000 0.52180  0.03542  0.01159  Biso   1.000  C
  C14      1.0000 0.39600  0.96130  0.99772  Biso   1.000  C
  C15      1.0000 0.39600  0.13070  0.99440  Biso   1.000  C
  H7       1.0000 0.39240  0.10960  0.97840  Biso   1.000  H
  H8       1.0000 0.42620  0.15420  0.99260  Biso   1.000  H
  H9       1.0000 0.36420  0.15150  0.99700  Biso   1.000  H
  C16      1.0000 0.52900  0.09900  0.05940  Biso   1.000  C
  H10      1.0000 0.55090  0.06780  0.06160  Biso   1.000  H
  H11      1.0000 0.49290  0.09090  0.06440  Biso   1.000  H
  H12      1.0000 0.54240  0.12740  0.07050  Biso   1.000  H
  C17      1.0000 0.41640  0.11330  0.99710  Biso   1.000  C
  H13      1.0000 0.42010  0.09620  0.97990  Biso   1.000  H
  H14      1.0000 0.38300  0.13220  0.99770  Biso   1.000  H
  H15      1.0000 0.44530  0.13810  0.99960  Biso   1.000  H
  C18      1.0000 0.53500  0.07740  0.06020  Biso   1.000  C
  H16      1.0000 0.54500  0.04070  0.06260  Biso   1.000  H
  H17      1.0000 0.55680  0.09980  0.07130  Biso   1.000  H
  H18      1.0000 0.49800  0.08190  0.06510  Biso   1.000  H
  S5       1.0000 0.28290  0.27118  0.04564  Biso   1.000  S
  S6       1.0000 0.29087  0.14312  0.04517  Biso   1.000  S
  S7       1.0000 0.32112  0.13773  0.04648  Biso   1.000  S
  S8       1.0000 0.33137  0.26070  0.04681  Biso   1.000  S
  O5       1.0000 0.19480  0.33950  0.01590  Biso   1.000  O
  O6       1.0000 0.25680  0.33940  0.98470  Biso   1.000  O
  C19      1.0000 0.22470  0.31840  0.00060  Biso   1.000  C
  C20      1.0000 0.22710  0.25928  0.99972  Biso   1.000  C
  C21      1.0000 0.25340  0.23340  0.01978  Biso   1.000  C
  C22      1.0000 0.25689  0.17900  0.01957  Biso   1.000  C
  C23      1.0000 0.23400  0.15056  0.99930  Biso   1.000  C
  C24      1.0000 0.29229  0.17650  0.02076  Biso   1.000  C
  C25      1.0000 0.29577  0.23080  0.02055  Biso   1.000  C
  C26      1.0000 0.22560  0.28460  0.06640  Biso   1.000  C
  H19      1.0000 0.23670  0.30370  0.08210  Biso   1.000  H
  H20      1.0000 0.20030  0.30580  0.05650  Biso   1.000  H
  H21      1.0000 0.20920  0.25140  0.07160  Biso   1.000  H
  C27      1.0000 0.23860  0.13270  0.06910  Biso   1.000  C
  H22      1.0000 0.20880  0.11560  0.06050  Biso   1.000  H
  H23      1.0000 0.25150  0.11030  0.08340  Biso   1.000  H
  H24      1.0000 0.22750  0.16650  0.07630  Biso   1.000  H
  C28      1.0000 0.26620  0.13970  0.06900  Biso   1.000  C
  H25      1.0000 0.23340  0.13770  0.05910  Biso   1.000  H
  H26      1.0000 0.26840  0.11000  0.08120  Biso   1.000  H
  H27      1.0000 0.26720  0.17250  0.07900  Biso   1.000  H
  C29      1.0000 0.39610  0.24850  0.03280  Biso   1.000  C
  H28      1.0000 0.40510  0.21140  0.03490  Biso   1.000  H
  H29      1.0000 0.39580  0.25730  0.01400  Biso   1.000  H
  H30      1.0000 0.42220  0.27010  0.04180  Biso   1.000  H
  O7       1.0000 0.14070  0.35650  0.02840  Biso   1.000  O
  H31      1.0000 0.11100  0.35400  0.02100  Biso   1.000  H
  H32      1.0000 0.14000  0.32800  0.03700  Biso   1.000  H
  O8       1.0000 0.28240  0.07060  0.98528  Biso   1.000  O
  O9       1.0000 0.20890  0.92470  0.94306  Biso   1.000  O
  O10      1.0000 0.26930  0.98880  0.93950  Biso   1.000  O
  S9       1.0000 0.29974  0.88529  0.89690  Biso   1.000  S
  S10      1.0000 0.15167  0.03258  0.91663  Biso   1.000  S
  Zn1      1.0000 0.28979  0.99630  0.97611  Biso   1.000  Zn
  Zn2      1.0000 0.19714  0.91168  0.98109  Biso   1.000  Zn
  C30      1.0000 0.73490  0.45750  0.43068  Biso   1.000  C
  C31      1.0000 0.72560  0.46170  0.40150  Biso   1.000  C
  C32      1.0000 0.75450  0.43140  0.38423  Biso   1.000  C
  C33      1.0000 0.68850  0.49700  0.39272  Biso   1.000  C
  C34      1.0000 0.85880  0.42410  0.39470  Biso   1.000  C
  H33      1.0000 0.85330  0.45310  0.38240  Biso   1.000  H
  H34      1.0000 0.88770  0.40200  0.38850  Biso   1.000  H
  H35      1.0000 0.86750  0.43810  0.41210  Biso   1.000  H
  C35      1.0000 0.59450  0.49070  0.41760  Biso   1.000  C
  H36      1.0000 0.58250  0.48360  0.39970  Biso   1.000  H
  H37      1.0000 0.56640  0.50820  0.42740  Biso   1.000  H
  H38      1.0000 0.60340  0.45760  0.42630  Biso   1.000  H
  S11      1.0000 0.90573  0.58831  0.52216  Biso   1.000  S
  S12      1.0000 0.03063  0.61944  0.52525  Biso   1.000  S
  S13      1.0000 0.91800  0.56451  0.52275  Biso   1.000  S
  S14      1.0000 0.04374  0.59549  0.52615  Biso   1.000  S
  O11      1.0000 0.86390  0.46080  0.51440  Biso   1.000  O
  O12      1.0000 0.86050  0.50180  0.47549  Biso   1.000  O
  O13      1.0000 0.87780  0.43710  0.51610  Biso   1.000  O
  O14      1.0000 0.87130  0.47860  0.47780  Biso   1.000  O
  C36      1.0000 0.88340  0.48470  0.49690  Biso   1.000  C
  C37      1.0000 0.94080  0.49880  0.49838  Biso   1.000  C
  C38      1.0000 0.95610  0.54590  0.50964  Biso   1.000  C
  C39      1.0000 0.00890  0.55894  0.51093  Biso   1.000  C
  C40      1.0000 0.95360  0.47520  0.49904  Biso   1.000  C
  C41      1.0000 0.96900  0.52240  0.51030  Biso   1.000  C
  C42      1.0000 0.02180  0.53542  0.51159  Biso   1.000  C
  C43      1.0000 0.89600  0.46130  0.49772  Biso   1.000  C
  C44      1.0000 0.89600  0.63070  0.49440  Biso   1.000  C
  H39      1.0000 0.89240  0.60960  0.47840  Biso   1.000  H
  H40      1.0000 0.92620  0.65420  0.49260  Biso   1.000  H
  H41      1.0000 0.86420  0.65150  0.49700  Biso   1.000  H
  C45      1.0000 0.02900  0.59900  0.55940  Biso   1.000  C
  H42      1.0000 0.05090  0.56780  0.56160  Biso   1.000  H
  H43      1.0000 0.99290  0.59090  0.56440  Biso   1.000  H
  H44      1.0000 0.04240  0.62740  0.57050  Biso   1.000  H
  C46      1.0000 0.91640  0.61330  0.49710  Biso   1.000  C
  H45      1.0000 0.92010  0.59620  0.47990  Biso   1.000  H
  H46      1.0000 0.88300  0.63220  0.49770  Biso   1.000  H
  H47      1.0000 0.94530  0.63810  0.49960  Biso   1.000  H
  C47      1.0000 0.03500  0.57740  0.56020  Biso   1.000  C
  H48      1.0000 0.04500  0.54070  0.56260  Biso   1.000  H
  H49      1.0000 0.05680  0.59980  0.57130  Biso   1.000  H
  H50      1.0000 0.99800  0.58190  0.56510  Biso   1.000  H
  S15      1.0000 0.78290  0.77118  0.54564  Biso   1.000  S
  S16      1.0000 0.79087  0.64312  0.54517  Biso   1.000  S
  S17      1.0000 0.82112  0.63773  0.54648  Biso   1.000  S
  S18      1.0000 0.83137  0.76070  0.54681  Biso   1.000  S
  O15      1.0000 0.69480  0.83950  0.51590  Biso   1.000  O
  O16      1.0000 0.75680  0.83940  0.48470  Biso   1.000  O
  C48      1.0000 0.72470  0.81840  0.50060  Biso   1.000  C
  C49      1.0000 0.72710  0.75928  0.49972  Biso   1.000  C
  C50      1.0000 0.75340  0.73340  0.51978  Biso   1.000  C
  C51      1.0000 0.75689  0.67900  0.51957  Biso   1.000  C
  C52      1.0000 0.73400  0.65056  0.49930  Biso   1.000  C
  C53      1.0000 0.79229  0.67650  0.52076  Biso   1.000  C
  C54      1.0000 0.79577  0.73080  0.52055  Biso   1.000  C
  C55      1.0000 0.72560  0.78460  0.56640  Biso   1.000  C
  H51      1.0000 0.73670  0.80370  0.58210  Biso   1.000  H
  H52      1.0000 0.70030  0.80580  0.55650  Biso   1.000  H
  H53      1.0000 0.70920  0.75140  0.57160  Biso   1.000  H
  C56      1.0000 0.73860  0.63270  0.56910  Biso   1.000  C
  H54      1.0000 0.70880  0.61560  0.56050  Biso   1.000  H
  H55      1.0000 0.75150  0.61030  0.58340  Biso   1.000  H
  H56      1.0000 0.72750  0.66650  0.57630  Biso   1.000  H
  C57      1.0000 0.76620  0.63970  0.56900  Biso   1.000  C
  H57      1.0000 0.73340  0.63770  0.55910  Biso   1.000  H
  H58      1.0000 0.76840  0.61000  0.58120  Biso   1.000  H
  H59      1.0000 0.76720  0.67250  0.57900  Biso   1.000  H
  C58      1.0000 0.89610  0.74850  0.53280  Biso   1.000  C
  H60      1.0000 0.90510  0.71140  0.53490  Biso   1.000  H
  H61      1.0000 0.89580  0.75730  0.51400  Biso   1.000  H
  H62      1.0000 0.92220  0.77010  0.54180  Biso   1.000  H
  O17      1.0000 0.64070  0.85650  0.52840  Biso   1.000  O
  H63      1.0000 0.61100  0.85400  0.52100  Biso   1.000  H
  H64      1.0000 0.64000  0.82800  0.53700  Biso   1.000  H
  O18      1.0000 0.78240  0.57060  0.48528  Biso   1.000  O
  O19      1.0000 0.70890  0.42470  0.44306  Biso   1.000  O
  O20      1.0000 0.76930  0.48880  0.43950  Biso   1.000  O
  S19      1.0000 0.79974  0.38529  0.39690  Biso   1.000  S
  S20      1.0000 0.65167  0.53258  0.41663  Biso   1.000  S
  Zn3      1.0000 0.78979  0.49630  0.47611  Biso   1.000  Zn
  Zn4      1.0000 0.69714  0.41168  0.48109  Biso   1.000  Zn
  C59      1.0000 0.26510  0.04250  0.43068  Biso   1.000  C
  C60      1.0000 0.27440  0.03830  0.40150  Biso   1.000  C
  C61      1.0000 0.24550  0.06860  0.38423  Biso   1.000  C
  C62      1.0000 0.31150  0.00300  0.39272  Biso   1.000  C
  C63      1.0000 0.14120  0.07590  0.39470  Biso   1.000  C
  H65      1.0000 0.14670  0.04690  0.38240  Biso   1.000  H
  H66      1.0000 0.11230  0.09800  0.38850  Biso   1.000  H
  H67      1.0000 0.13250  0.06190  0.41210  Biso   1.000  H
  C64      1.0000 0.40550  0.00930  0.41760  Biso   1.000  C
  H68      1.0000 0.41750  0.01640  0.39970  Biso   1.000  H
  H69      1.0000 0.43360  0.99180  0.42740  Biso   1.000  H
  H70      1.0000 0.39660  0.04240  0.42630  Biso   1.000  H
  S21      1.0000 0.09427  0.91169  0.52216  Biso   1.000  S
  S22      1.0000 0.96937  0.88056  0.52525  Biso   1.000  S
  S23      1.0000 0.08200  0.93549  0.52275  Biso   1.000  S
  S24      1.0000 0.95626  0.90451  0.52615  Biso   1.000  S
  O21      1.0000 0.13610  0.03920  0.51440  Biso   1.000  O
  O22      1.0000 0.13950  0.99820  0.47549  Biso   1.000  O
  O23      1.0000 0.12220  0.06290  0.51610  Biso   1.000  O
  O24      1.0000 0.12870  0.02140  0.47780  Biso   1.000  O
  C65      1.0000 0.11660  0.01530  0.49690  Biso   1.000  C
  C66      1.0000 0.05920  0.00120  0.49838  Biso   1.000  C
  C67      1.0000 0.04390  0.95410  0.50964  Biso   1.000  C
  C68      1.0000 0.99110  0.94106  0.51093  Biso   1.000  C
  C69      1.0000 0.04640  0.02480  0.49904  Biso   1.000  C
  C70      1.0000 0.03100  0.97760  0.51030  Biso   1.000  C
  C71      1.0000 0.97820  0.96458  0.51159  Biso   1.000  C
  C72      1.0000 0.10400  0.03870  0.49772  Biso   1.000  C
  C73      1.0000 0.10400  0.86930  0.49440  Biso   1.000  C
  H71      1.0000 0.10760  0.89040  0.47840  Biso   1.000  H
  H72      1.0000 0.07380  0.84580  0.49260  Biso   1.000  H
  H73      1.0000 0.13580  0.84850  0.49700  Biso   1.000  H
  C74      1.0000 0.97100  0.90100  0.55940  Biso   1.000  C
  H74      1.0000 0.94910  0.93220  0.56160  Biso   1.000  H
  H75      1.0000 0.00710  0.90910  0.56440  Biso   1.000  H
  H76      1.0000 0.95760  0.87260  0.57050  Biso   1.000  H
  C75      1.0000 0.08360  0.88670  0.49710  Biso   1.000  C
  H77      1.0000 0.07990  0.90380  0.47990  Biso   1.000  H
  H78      1.0000 0.11700  0.86780  0.49770  Biso   1.000  H
  H79      1.0000 0.05470  0.86190  0.49960  Biso   1.000  H
  C76      1.0000 0.96500  0.92260  0.56020  Biso   1.000  C
  H80      1.0000 0.95500  0.95930  0.56260  Biso   1.000  H
  H81      1.0000 0.94320  0.90020  0.57130  Biso   1.000  H
  H82      1.0000 0.00200  0.91810  0.56510  Biso   1.000  H
  S25      1.0000 0.21710  0.72882  0.54564  Biso   1.000  S
  S26      1.0000 0.20913  0.85688  0.54517  Biso   1.000  S
  S27      1.0000 0.17888  0.86227  0.54648  Biso   1.000  S
  S28      1.0000 0.16863  0.73930  0.54681  Biso   1.000  S
  O25      1.0000 0.30520  0.66050  0.51590  Biso   1.000  O
  O26      1.0000 0.24320  0.66060  0.48470  Biso   1.000  O
  C77      1.0000 0.27530  0.68160  0.50060  Biso   1.000  C
  C78      1.0000 0.27290  0.74072  0.49972  Biso   1.000  C
  C79      1.0000 0.24660  0.76660  0.51978  Biso   1.000  C
  C80      1.0000 0.24311  0.82100  0.51957  Biso   1.000  C
  C81      1.0000 0.26600  0.84944  0.49930  Biso   1.000  C
  C82      1.0000 0.20771  0.82350  0.52076  Biso   1.000  C
  C83      1.0000 0.20423  0.76920  0.52055  Biso   1.000  C
  C84      1.0000 0.27440  0.71540  0.56640  Biso   1.000  C
  H83      1.0000 0.26330  0.69630  0.58210  Biso   1.000  H
  H84      1.0000 0.29970  0.69420  0.55650  Biso   1.000  H
  H85      1.0000 0.29080  0.74860  0.57160  Biso   1.000  H
  C85      1.0000 0.26140  0.86730  0.56910  Biso   1.000  C
  H86      1.0000 0.29120  0.88440  0.56050  Biso   1.000  H
  H87      1.0000 0.24850  0.88970  0.58340  Biso   1.000  H
  H88      1.0000 0.27250  0.83350  0.57630  Biso   1.000  H
  C86      1.0000 0.23380  0.86030  0.56900  Biso   1.000  C
  H89      1.0000 0.26660  0.86230  0.55910  Biso   1.000  H
  H90      1.0000 0.23160  0.89000  0.58120  Biso   1.000  H
  H91      1.0000 0.23280  0.82750  0.57900  Biso   1.000  H
  C87      1.0000 0.10390  0.75150  0.53280  Biso   1.000  C
  H92      1.0000 0.09490  0.78860  0.53490  Biso   1.000  H
  H93      1.0000 0.10420  0.74270  0.51400  Biso   1.000  H
  H94      1.0000 0.07780  0.72990  0.54180  Biso   1.000  H
  O27      1.0000 0.35930  0.64350  0.52840  Biso   1.000  O
  H95      1.0000 0.38900  0.64600  0.52100  Biso   1.000  H
  H96      1.0000 0.36000  0.67200  0.53700  Biso   1.000  H
  O28      1.0000 0.21760  0.92940  0.48528  Biso   1.000  O
  O29      1.0000 0.29110  0.07530  0.44306  Biso   1.000  O
  O30      1.0000 0.23070  0.01120  0.43950  Biso   1.000  O
  S29      1.0000 0.20026  0.11471  0.39690  Biso   1.000  S
  S30      1.0000 0.34833  0.96742  0.41663  Biso   1.000  S
  Zn5      1.0000 0.21021  0.00370  0.47611  Biso   1.000  Zn
  Zn6      1.0000 0.30286  0.08832  0.48109  Biso   1.000  Zn
  C88      1.0000 0.76510  0.54250  0.93068  Biso   1.000  C
  C89      1.0000 0.77440  0.53830  0.90150  Biso   1.000  C
  C90      1.0000 0.74550  0.56860  0.88423  Biso   1.000  C
  C91      1.0000 0.81150  0.50300  0.89272  Biso   1.000  C
  C92      1.0000 0.64120  0.57590  0.89470  Biso   1.000  C
  H97      1.0000 0.64670  0.54690  0.88240  Biso   1.000  H
  H98      1.0000 0.61230  0.59800  0.88850  Biso   1.000  H
  H99      1.0000 0.63250  0.56190  0.91210  Biso   1.000  H
  C93      1.0000 0.90550  0.50930  0.91760  Biso   1.000  C
  H100     1.0000 0.91750  0.51640  0.89970  Biso   1.000  H
  H101     1.0000 0.93360  0.49180  0.92740  Biso   1.000  H
  H102     1.0000 0.89660  0.54240  0.92630  Biso   1.000  H
  S31      1.0000 0.59427  0.41169  0.02216  Biso   1.000  S
  S32      1.0000 0.46937  0.38056  0.02525  Biso   1.000  S
  S33      1.0000 0.58200  0.43549  0.02275  Biso   1.000  S
  S34      1.0000 0.45626  0.40451  0.02615  Biso   1.000  S
  O31      1.0000 0.63610  0.53920  0.01440  Biso   1.000  O
  O32      1.0000 0.63950  0.49820  0.97549  Biso   1.000  O
  O33      1.0000 0.62220  0.56290  0.01610  Biso   1.000  O
  O34      1.0000 0.62870  0.52140  0.97780  Biso   1.000  O
  C94      1.0000 0.61660  0.51530  0.99690  Biso   1.000  C
  C95      1.0000 0.55920  0.50120  0.99838  Biso   1.000  C
  C96      1.0000 0.54390  0.45410  0.00964  Biso   1.000  C
  C97      1.0000 0.49110  0.44106  0.01093  Biso   1.000  C
  C98      1.0000 0.54640  0.52480  0.99904  Biso   1.000  C
  C99      1.0000 0.53100  0.47760  0.01030  Biso   1.000  C
  C100     1.0000 0.47820  0.46458  0.01159  Biso   1.000  C
  C101     1.0000 0.60400  0.53870  0.99772  Biso   1.000  C
  C102     1.0000 0.60400  0.36930  0.99440  Biso   1.000  C
  H103     1.0000 0.60760  0.39040  0.97840  Biso   1.000  H
  H104     1.0000 0.57380  0.34580  0.99260  Biso   1.000  H
  H105     1.0000 0.63580  0.34850  0.99700  Biso   1.000  H
  C103     1.0000 0.47100  0.40100  0.05940  Biso   1.000  C
  H106     1.0000 0.44910  0.43220  0.06160  Biso   1.000  H
  H107     1.0000 0.50710  0.40910  0.06440  Biso   1.000  H
  H108     1.0000 0.45760  0.37260  0.07050  Biso   1.000  H
  C104     1.0000 0.58360  0.38670  0.99710  Biso   1.000  C
  H109     1.0000 0.57990  0.40380  0.97990  Biso   1.000  H
  H110     1.0000 0.61700  0.36780  0.99770  Biso   1.000  H
  H111     1.0000 0.55470  0.36190  0.99960  Biso   1.000  H
  C105     1.0000 0.46500  0.42260  0.06020  Biso   1.000  C
  H112     1.0000 0.45500  0.45930  0.06260  Biso   1.000  H
  H113     1.0000 0.44320  0.40020  0.07130  Biso   1.000  H
  H114     1.0000 0.50200  0.41810  0.06510  Biso   1.000  H
  S35      1.0000 0.71710  0.22882  0.04564  Biso   1.000  S
  S36      1.0000 0.70913  0.35688  0.04517  Biso   1.000  S
  S37      1.0000 0.67888  0.36227  0.04648  Biso   1.000  S
  S38      1.0000 0.66863  0.23930  0.04681  Biso   1.000  S
  O35      1.0000 0.80520  0.16050  0.01590  Biso   1.000  O
  O36      1.0000 0.74320  0.16060  0.98470  Biso   1.000  O
  C106     1.0000 0.77530  0.18160  0.00060  Biso   1.000  C
  C107     1.0000 0.77290  0.24072  0.99972  Biso   1.000  C
  C108     1.0000 0.74660  0.26660  0.01978  Biso   1.000  C
  C109     1.0000 0.74311  0.32100  0.01957  Biso   1.000  C
  C110     1.0000 0.76600  0.34944  0.99930  Biso   1.000  C
  C111     1.0000 0.70771  0.32350  0.02076  Biso   1.000  C
  C112     1.0000 0.70423  0.26920  0.02055  Biso   1.000  C
  C113     1.0000 0.77440  0.21540  0.06640  Biso   1.000  C
  H115     1.0000 0.76330  0.19630  0.08210  Biso   1.000  H
  H116     1.0000 0.79970  0.19420  0.05650  Biso   1.000  H
  H117     1.0000 0.79080  0.24860  0.07160  Biso   1.000  H
  C114     1.0000 0.76140  0.36730  0.06910  Biso   1.000  C
  H118     1.0000 0.79120  0.38440  0.06050  Biso   1.000  H
  H119     1.0000 0.74850  0.38970  0.08340  Biso   1.000  H
  H120     1.0000 0.77250  0.33350  0.07630  Biso   1.000  H
  C115     1.0000 0.73380  0.36030  0.06900  Biso   1.000  C
  H121     1.0000 0.76660  0.36230  0.05910  Biso   1.000  H
  H122     1.0000 0.73160  0.39000  0.08120  Biso   1.000  H
  H123     1.0000 0.73280  0.32750  0.07900  Biso   1.000  H
  C116     1.0000 0.60390  0.25150  0.03280  Biso   1.000  C
  H124     1.0000 0.59490  0.28860  0.03490  Biso   1.000  H
  H125     1.0000 0.60420  0.24270  0.01400  Biso   1.000  H
  H126     1.0000 0.57780  0.22990  0.04180  Biso   1.000  H
  O37      1.0000 0.85930  0.14350  0.02840  Biso   1.000  O
  H127     1.0000 0.88900  0.14600  0.02100  Biso   1.000  H
  H128     1.0000 0.86000  0.17200  0.03700  Biso   1.000  H
  O38      1.0000 0.71760  0.42940  0.98528  Biso   1.000  O
  O39      1.0000 0.79110  0.57530  0.94306  Biso   1.000  O
  O40      1.0000 0.73070  0.51120  0.93950  Biso   1.000  O
  S39      1.0000 0.70026  0.61471  0.89690  Biso   1.000  S
  S40      1.0000 0.84833  0.46742  0.91663  Biso   1.000  S
  Zn7      1.0000 0.71021  0.50370  0.97611  Biso   1.000  Zn
  Zn8      1.0000 0.80286  0.58832  0.98109  Biso   1.000  Zn
  C117     1.0000 0.29250  0.98490  0.18068  Biso   1.000  C
  C118     1.0000 0.28830  0.97560  0.15150  Biso   1.000  C
  C119     1.0000 0.31860  0.00450  0.13423  Biso   1.000  C
  C120     1.0000 0.25300  0.93850  0.14272  Biso   1.000  C
  C121     1.0000 0.32590  0.10880  0.14470  Biso   1.000  C
  H129     1.0000 0.29690  0.10330  0.13240  Biso   1.000  H
  H130     1.0000 0.34800  0.13770  0.13850  Biso   1.000  H
  H131     1.0000 0.31190  0.11750  0.16210  Biso   1.000  H
  C122     1.0000 0.25930  0.84450  0.16760  Biso   1.000  C
  H132     1.0000 0.26640  0.83250  0.14970  Biso   1.000  H
  H133     1.0000 0.24180  0.81640  0.17740  Biso   1.000  H
  H134     1.0000 0.29240  0.85340  0.17630  Biso   1.000  H
  S41      1.0000 0.16169  0.15573  0.27216  Biso   1.000  S
  S42      1.0000 0.13056  0.28063  0.27525  Biso   1.000  S
  S43      1.0000 0.18549  0.16800  0.27275  Biso   1.000  S
  S44      1.0000 0.15451  0.29374  0.27615  Biso   1.000  S
  O41      1.0000 0.28920  0.11390  0.26440  Biso   1.000  O
  O42      1.0000 0.24820  0.11050  0.22549  Biso   1.000  O
  O43      1.0000 0.31290  0.12780  0.26610  Biso   1.000  O
  O44      1.0000 0.27140  0.12130  0.22780  Biso   1.000  O
  C123     1.0000 0.26530  0.13340  0.24690  Biso   1.000  C
  C124     1.0000 0.25120  0.19080  0.24838  Biso   1.000  C
  C125     1.0000 0.20410  0.20610  0.25964  Biso   1.000  C
  C126     1.0000 0.19106  0.25890  0.26093  Biso   1.000  C
  C127     1.0000 0.27480  0.20360  0.24904  Biso   1.000  C
  C128     1.0000 0.22760  0.21900  0.26030  Biso   1.000  C
  C129     1.0000 0.21458  0.27180  0.26159  Biso   1.000  C
  C130     1.0000 0.28870  0.14600  0.24772  Biso   1.000  C
  C131     1.0000 0.11930  0.14600  0.24440  Biso   1.000  C
  H135     1.0000 0.14040  0.14240  0.22840  Biso   1.000  H
  H136     1.0000 0.09580  0.17620  0.24260  Biso   1.000  H
  H137     1.0000 0.09850  0.11420  0.24700  Biso   1.000  H
  C132     1.0000 0.15100  0.27900  0.30940  Biso   1.000  C
  H138     1.0000 0.18220  0.30090  0.31160  Biso   1.000  H
  H139     1.0000 0.15910  0.24290  0.31440  Biso   1.000  H
  H140     1.0000 0.12260  0.29240  0.32050  Biso   1.000  H
  C133     1.0000 0.13670  0.16640  0.24710  Biso   1.000  C
  H141     1.0000 0.15380  0.17010  0.22990  Biso   1.000  H
  H142     1.0000 0.11780  0.13300  0.24770  Biso   1.000  H
  H143     1.0000 0.11190  0.19530  0.24960  Biso   1.000  H
  C134     1.0000 0.17260  0.28500  0.31020  Biso   1.000  C
  H144     1.0000 0.20930  0.29500  0.31260  Biso   1.000  H
  H145     1.0000 0.15020  0.30680  0.32130  Biso   1.000  H
  H146     1.0000 0.16810  0.24800  0.31510  Biso   1.000  H
  S45      1.0000 0.97882  0.03290  0.29564  Biso   1.000  S
  S46      1.0000 0.10688  0.04087  0.29517  Biso   1.000  S
  S47      1.0000 0.11227  0.07112  0.29648  Biso   1.000  S
  S48      1.0000 0.98930  0.08137  0.29681  Biso   1.000  S
  O45      1.0000 0.91050  0.94480  0.26590  Biso   1.000  O
  O46      1.0000 0.91060  0.00680  0.23470  Biso   1.000  O
  C135     1.0000 0.93160  0.97470  0.25060  Biso   1.000  C
  C136     1.0000 0.99072  0.97710  0.24972  Biso   1.000  C
  C137     1.0000 0.01660  0.00340  0.26978  Biso   1.000  C
  C138     1.0000 0.07100  0.00689  0.26957  Biso   1.000  C
  C139     1.0000 0.09944  0.98400  0.24930  Biso   1.000  C
  C140     1.0000 0.07350  0.04229  0.27076  Biso   1.000  C
  C141     1.0000 0.01920  0.04577  0.27055  Biso   1.000  C
  C142     1.0000 0.96540  0.97560  0.31640  Biso   1.000  C
  H147     1.0000 0.94630  0.98670  0.33210  Biso   1.000  H
  H148     1.0000 0.94420  0.95030  0.30650  Biso   1.000  H
  H149     1.0000 0.99860  0.95920  0.32160  Biso   1.000  H
  C143     1.0000 0.11730  0.98860  0.31910  Biso   1.000  C
  H150     1.0000 0.13440  0.95880  0.31050  Biso   1.000  H
  H151     1.0000 0.13970  0.00150  0.33340  Biso   1.000  H
  H152     1.0000 0.08350  0.97750  0.32630  Biso   1.000  H
  C144     1.0000 0.11030  0.01620  0.31900  Biso   1.000  C
  H153     1.0000 0.11230  0.98340  0.30910  Biso   1.000  H
  H154     1.0000 0.14000  0.01840  0.33120  Biso   1.000  H
  H155     1.0000 0.07750  0.01720  0.32900  Biso   1.000  H
  C145     1.0000 0.00150  0.14610  0.28280  Biso   1.000  C
  H156     1.0000 0.03860  0.15510  0.28490  Biso   1.000  H
  H157     1.0000 0.99270  0.14580  0.26400  Biso   1.000  H
  H158     1.0000 0.97990  0.17220  0.29180  Biso   1.000  H
  O47      1.0000 0.89350  0.89070  0.27840  Biso   1.000  O
  H159     1.0000 0.89600  0.86100  0.27100  Biso   1.000  H
  H160     1.0000 0.92200  0.89000  0.28700  Biso   1.000  H
  O48      1.0000 0.17940  0.03240  0.23528  Biso   1.000  O
  O49      1.0000 0.32530  0.95890  0.19306  Biso   1.000  O
  O50      1.0000 0.26120  0.01930  0.18950  Biso   1.000  O
  S49      1.0000 0.36471  0.04974  0.14690  Biso   1.000  S
  S50      1.0000 0.21742  0.90167  0.16663  Biso   1.000  S
  Zn9      1.0000 0.25370  0.03979  0.22611  Biso   1.000  Zn
  Zn10     1.0000 0.33832  0.94714  0.23109  Biso   1.000  Zn
  C146     1.0000 0.79250  0.48490  0.68068  Biso   1.000  C
  C147     1.0000 0.78830  0.47560  0.65150  Biso   1.000  C
  C148     1.0000 0.81860  0.50450  0.63423  Biso   1.000  C
  C149     1.0000 0.75300  0.43850  0.64272  Biso   1.000  C
  C150     1.0000 0.82590  0.60880  0.64470  Biso   1.000  C
  H161     1.0000 0.79690  0.60330  0.63240  Biso   1.000  H
  H162     1.0000 0.84800  0.63770  0.63850  Biso   1.000  H
  H163     1.0000 0.81190  0.61750  0.66210  Biso   1.000  H
  C151     1.0000 0.75930  0.34450  0.66760  Biso   1.000  C
  H164     1.0000 0.76640  0.33250  0.64970  Biso   1.000  H
  H165     1.0000 0.74180  0.31640  0.67740  Biso   1.000  H
  H166     1.0000 0.79240  0.35340  0.67630  Biso   1.000  H
  S51      1.0000 0.66169  0.65573  0.77216  Biso   1.000  S
  S52      1.0000 0.63056  0.78063  0.77525  Biso   1.000  S
  S53      1.0000 0.68549  0.66800  0.77275  Biso   1.000  S
  S54      1.0000 0.65451  0.79374  0.77615  Biso   1.000  S
  O51      1.0000 0.78920  0.61390  0.76440  Biso   1.000  O
  O52      1.0000 0.74820  0.61050  0.72549  Biso   1.000  O
  O53      1.0000 0.81290  0.62780  0.76610  Biso   1.000  O
  O54      1.0000 0.77140  0.62130  0.72780  Biso   1.000  O
  C152     1.0000 0.76530  0.63340  0.74690  Biso   1.000  C
  C153     1.0000 0.75120  0.69080  0.74838  Biso   1.000  C
  C154     1.0000 0.70410  0.70610  0.75964  Biso   1.000  C
  C155     1.0000 0.69106  0.75890  0.76093  Biso   1.000  C
  C156     1.0000 0.77480  0.70360  0.74904  Biso   1.000  C
  C157     1.0000 0.72760  0.71900  0.76030  Biso   1.000  C
  C158     1.0000 0.71458  0.77180  0.76159  Biso   1.000  C
  C159     1.0000 0.78870  0.64600  0.74772  Biso   1.000  C
  C160     1.0000 0.61930  0.64600  0.74440  Biso   1.000  C
  H167     1.0000 0.64040  0.64240  0.72840  Biso   1.000  H
  H168     1.0000 0.59580  0.67620  0.74260  Biso   1.000  H
  H169     1.0000 0.59850  0.61420  0.74700  Biso   1.000  H
  C161     1.0000 0.65100  0.77900  0.80940  Biso   1.000  C
  H170     1.0000 0.68220  0.80090  0.81160  Biso   1.000  H
  H171     1.0000 0.65910  0.74290  0.81440  Biso   1.000  H
  H172     1.0000 0.62260  0.79240  0.82050  Biso   1.000  H
  C162     1.0000 0.63670  0.66640  0.74710  Biso   1.000  C
  H173     1.0000 0.65380  0.67010  0.72990  Biso   1.000  H
  H174     1.0000 0.61780  0.63300  0.74770  Biso   1.000  H
  H175     1.0000 0.61190  0.69530  0.74960  Biso   1.000  H
  C163     1.0000 0.67260  0.78500  0.81020  Biso   1.000  C
  H176     1.0000 0.70930  0.79500  0.81260  Biso   1.000  H
  H177     1.0000 0.65020  0.80680  0.82130  Biso   1.000  H
  H178     1.0000 0.66810  0.74800  0.81510  Biso   1.000  H
  S55      1.0000 0.47882  0.53290  0.79564  Biso   1.000  S
  S56      1.0000 0.60688  0.54087  0.79517  Biso   1.000  S
  S57      1.0000 0.61227  0.57112  0.79648  Biso   1.000  S
  S58      1.0000 0.48930  0.58137  0.79681  Biso   1.000  S
  O55      1.0000 0.41050  0.44480  0.76590  Biso   1.000  O
  O56      1.0000 0.41060  0.50680  0.73470  Biso   1.000  O
  C164     1.0000 0.43160  0.47470  0.75060  Biso   1.000  C
  C165     1.0000 0.49072  0.47710  0.74972  Biso   1.000  C
  C166     1.0000 0.51660  0.50340  0.76978  Biso   1.000  C
  C167     1.0000 0.57100  0.50689  0.76957  Biso   1.000  C
  C168     1.0000 0.59944  0.48400  0.74930  Biso   1.000  C
  C169     1.0000 0.57350  0.54229  0.77076  Biso   1.000  C
  C170     1.0000 0.51920  0.54577  0.77055  Biso   1.000  C
  C171     1.0000 0.46540  0.47560  0.81640  Biso   1.000  C
  H179     1.0000 0.44630  0.48670  0.83210  Biso   1.000  H
  H180     1.0000 0.44420  0.45030  0.80650  Biso   1.000  H
  H181     1.0000 0.49860  0.45920  0.82160  Biso   1.000  H
  C172     1.0000 0.61730  0.48860  0.81910  Biso   1.000  C
  H182     1.0000 0.63440  0.45880  0.81050  Biso   1.000  H
  H183     1.0000 0.63970  0.50150  0.83340  Biso   1.000  H
  H184     1.0000 0.58350  0.47750  0.82630  Biso   1.000  H
  C173     1.0000 0.61030  0.51620  0.81900  Biso   1.000  C
  H185     1.0000 0.61230  0.48340  0.80910  Biso   1.000  H
  H186     1.0000 0.64000  0.51840  0.83120  Biso   1.000  H
  H187     1.0000 0.57750  0.51720  0.82900  Biso   1.000  H
  C174     1.0000 0.50150  0.64610  0.78280  Biso   1.000  C
  H188     1.0000 0.53860  0.65510  0.78490  Biso   1.000  H
  H189     1.0000 0.49270  0.64580  0.76400  Biso   1.000  H
  H190     1.0000 0.47990  0.67220  0.79180  Biso   1.000  H
  O57      1.0000 0.39350  0.39070  0.77840  Biso   1.000  O
  H191     1.0000 0.39600  0.36100  0.77100  Biso   1.000  H
  H192     1.0000 0.42200  0.39000  0.78700  Biso   1.000  H
  O58      1.0000 0.67940  0.53240  0.73528  Biso   1.000  O
  O59      1.0000 0.82530  0.45890  0.69306  Biso   1.000  O
  O60      1.0000 0.76120  0.51930  0.68950  Biso   1.000  O
  S59      1.0000 0.86471  0.54974  0.64690  Biso   1.000  S
  S60      1.0000 0.71742  0.40167  0.66663  Biso   1.000  S
  Zn11     1.0000 0.75370  0.53979  0.72611  Biso   1.000  Zn
  Zn12     1.0000 0.83832  0.44714  0.73109  Biso   1.000  Zn
  C175     1.0000 0.20750  0.01510  0.68068  Biso   1.000  C
  C176     1.0000 0.21170  0.02440  0.65150  Biso   1.000  C
  C177     1.0000 0.18140  0.99550  0.63423  Biso   1.000  C
  C178     1.0000 0.24700  0.06150  0.64272  Biso   1.000  C
  C179     1.0000 0.17410  0.89120  0.64470  Biso   1.000  C
  H193     1.0000 0.20310  0.89670  0.63240  Biso   1.000  H
  H194     1.0000 0.15200  0.86230  0.63850  Biso   1.000  H
  H195     1.0000 0.18810  0.88250  0.66210  Biso   1.000  H
  C180     1.0000 0.24070  0.15550  0.66760  Biso   1.000  C
  H196     1.0000 0.23360  0.16750  0.64970  Biso   1.000  H
  H197     1.0000 0.25820  0.18360  0.67740  Biso   1.000  H
  H198     1.0000 0.20760  0.14660  0.67630  Biso   1.000  H
  S61      1.0000 0.33831  0.84427  0.77216  Biso   1.000  S
  S62      1.0000 0.36944  0.71937  0.77525  Biso   1.000  S
  S63      1.0000 0.31451  0.83200  0.77275  Biso   1.000  S
  S64      1.0000 0.34549  0.70626  0.77615  Biso   1.000  S
  O61      1.0000 0.21080  0.88610  0.76440  Biso   1.000  O
  O62      1.0000 0.25180  0.88950  0.72549  Biso   1.000  O
  O63      1.0000 0.18710  0.87220  0.76610  Biso   1.000  O
  O64      1.0000 0.22860  0.87870  0.72780  Biso   1.000  O
  C181     1.0000 0.23470  0.86660  0.74690  Biso   1.000  C
  C182     1.0000 0.24880  0.80920  0.74838  Biso   1.000  C
  C183     1.0000 0.29590  0.79390  0.75964  Biso   1.000  C
  C184     1.0000 0.30894  0.74110  0.76093  Biso   1.000  C
  C185     1.0000 0.22520  0.79640  0.74904  Biso   1.000  C
  C186     1.0000 0.27240  0.78100  0.76030  Biso   1.000  C
  C187     1.0000 0.28542  0.72820  0.76159  Biso   1.000  C
  C188     1.0000 0.21130  0.85400  0.74772  Biso   1.000  C
  C189     1.0000 0.38070  0.85400  0.74440  Biso   1.000  C
  H199     1.0000 0.35960  0.85760  0.72840  Biso   1.000  H
  H200     1.0000 0.40420  0.82380  0.74260  Biso   1.000  H
  H201     1.0000 0.40150  0.88580  0.74700  Biso   1.000  H
  C190     1.0000 0.34900  0.72100  0.80940  Biso   1.000  C
  H202     1.0000 0.31780  0.69910  0.81160  Biso   1.000  H
  H203     1.0000 0.34090  0.75710  0.81440  Biso   1.000  H
  H204     1.0000 0.37740  0.70760  0.82050  Biso   1.000  H
  C191     1.0000 0.36330  0.83360  0.74710  Biso   1.000  C
  H205     1.0000 0.34620  0.82990  0.72990  Biso   1.000  H
  H206     1.0000 0.38220  0.86700  0.74770  Biso   1.000  H
  H207     1.0000 0.38810  0.80470  0.74960  Biso   1.000  H
  C192     1.0000 0.32740  0.71500  0.81020  Biso   1.000  C
  H208     1.0000 0.29070  0.70500  0.81260  Biso   1.000  H
  H209     1.0000 0.34980  0.69320  0.82130  Biso   1.000  H
  H210     1.0000 0.33190  0.75200  0.81510  Biso   1.000  H
  S65      1.0000 0.52118  0.96710  0.79564  Biso   1.000  S
  S66      1.0000 0.39312  0.95913  0.79517  Biso   1.000  S
  S67      1.0000 0.38773  0.92888  0.79648  Biso   1.000  S
  S68      1.0000 0.51070  0.91863  0.79681  Biso   1.000  S
  O65      1.0000 0.58950  0.05520  0.76590  Biso   1.000  O
  O66      1.0000 0.58940  0.99320  0.73470  Biso   1.000  O
  C193     1.0000 0.56840  0.02530  0.75060  Biso   1.000  C
  C194     1.0000 0.50928  0.02290  0.74972  Biso   1.000  C
  C195     1.0000 0.48340  0.99660  0.76978  Biso   1.000  C
  C196     1.0000 0.42900  0.99311  0.76957  Biso   1.000  C
  C197     1.0000 0.40056  0.01600  0.74930  Biso   1.000  C
  C198     1.0000 0.42650  0.95771  0.77076  Biso   1.000  C
  C199     1.0000 0.48080  0.95423  0.77055  Biso   1.000  C
  C200     1.0000 0.53460  0.02440  0.81640  Biso   1.000  C
  H211     1.0000 0.55370  0.01330  0.83210  Biso   1.000  H
  H212     1.0000 0.55580  0.04970  0.80650  Biso   1.000  H
  H213     1.0000 0.50140  0.04080  0.82160  Biso   1.000  H
  C201     1.0000 0.38270  0.01140  0.81910  Biso   1.000  C
  H214     1.0000 0.36560  0.04120  0.81050  Biso   1.000  H
  H215     1.0000 0.36030  0.99850  0.83340  Biso   1.000  H
  H216     1.0000 0.41650  0.02250  0.82630  Biso   1.000  H
  C202     1.0000 0.38970  0.98380  0.81900  Biso   1.000  C
  H217     1.0000 0.38770  0.01660  0.80910  Biso   1.000  H
  H218     1.0000 0.36000  0.98160  0.83120  Biso   1.000  H
  H219     1.0000 0.42250  0.98280  0.82900  Biso   1.000  H
  C203     1.0000 0.49850  0.85390  0.78280  Biso   1.000  C
  H220     1.0000 0.46140  0.84490  0.78490  Biso   1.000  H
  H221     1.0000 0.50730  0.85420  0.76400  Biso   1.000  H
  H222     1.0000 0.52010  0.82780  0.79180  Biso   1.000  H
  O67      1.0000 0.60650  0.10930  0.77840  Biso   1.000  O
  H223     1.0000 0.60400  0.13900  0.77100  Biso   1.000  H
  H224     1.0000 0.57800  0.11000  0.78700  Biso   1.000  H
  O68      1.0000 0.32060  0.96760  0.73528  Biso   1.000  O
  O69      1.0000 0.17470  0.04110  0.69306  Biso   1.000  O
  O70      1.0000 0.23880  0.98070  0.68950  Biso   1.000  O
  S69      1.0000 0.13529  0.95026  0.64690  Biso   1.000  S
  S70      1.0000 0.28258  0.09833  0.66663  Biso   1.000  S
  Zn13     1.0000 0.24630  0.96021  0.72611  Biso   1.000  Zn
  Zn14     1.0000 0.16168  0.05286  0.73109  Biso   1.000  Zn
  C204     1.0000 0.70750  0.51510  0.18068  Biso   1.000  C
  C205     1.0000 0.71170  0.52440  0.15150  Biso   1.000  C
  C206     1.0000 0.68140  0.49550  0.13423  Biso   1.000  C
  C207     1.0000 0.74700  0.56150  0.14272  Biso   1.000  C
  C208     1.0000 0.67410  0.39120  0.14470  Biso   1.000  C
  H225     1.0000 0.70310  0.39670  0.13240  Biso   1.000  H
  H226     1.0000 0.65200  0.36230  0.13850  Biso   1.000  H
  H227     1.0000 0.68810  0.38250  0.16210  Biso   1.000  H
  C209     1.0000 0.74070  0.65550  0.16760  Biso   1.000  C
  H228     1.0000 0.73360  0.66750  0.14970  Biso   1.000  H
  H229     1.0000 0.75820  0.68360  0.17740  Biso   1.000  H
  H230     1.0000 0.70760  0.64660  0.17630  Biso   1.000  H
  S71      1.0000 0.83831  0.34427  0.27216  Biso   1.000  S
  S72      1.0000 0.86944  0.21937  0.27525  Biso   1.000  S
  S73      1.0000 0.81451  0.33200  0.27275  Biso   1.000  S
  S74      1.0000 0.84549  0.20626  0.27615  Biso   1.000  S
  O71      1.0000 0.71080  0.38610  0.26440  Biso   1.000  O
  O72      1.0000 0.75180  0.38950  0.22549  Biso   1.000  O
  O73      1.0000 0.68710  0.37220  0.26610  Biso   1.000  O
  O74      1.0000 0.72860  0.37870  0.22780  Biso   1.000  O
  C210     1.0000 0.73470  0.36660  0.24690  Biso   1.000  C
  C211     1.0000 0.74880  0.30920  0.24838  Biso   1.000  C
  C212     1.0000 0.79590  0.29390  0.25964  Biso   1.000  C
  C213     1.0000 0.80894  0.24110  0.26093  Biso   1.000  C
  C214     1.0000 0.72520  0.29640  0.24904  Biso   1.000  C
  C215     1.0000 0.77240  0.28100  0.26030  Biso   1.000  C
  C216     1.0000 0.78542  0.22820  0.26159  Biso   1.000  C
  C217     1.0000 0.71130  0.35400  0.24772  Biso   1.000  C
  C218     1.0000 0.88070  0.35400  0.24440  Biso   1.000  C
  H231     1.0000 0.85960  0.35760  0.22840  Biso   1.000  H
  H232     1.0000 0.90420  0.32380  0.24260  Biso   1.000  H
  H233     1.0000 0.90150  0.38580  0.24700  Biso   1.000  H
  C219     1.0000 0.84900  0.22100  0.30940  Biso   1.000  C
  H234     1.0000 0.81780  0.19910  0.31160  Biso   1.000  H
  H235     1.0000 0.84090  0.25710  0.31440  Biso   1.000  H
  H236     1.0000 0.87740  0.20760  0.32050  Biso   1.000  H
  C220     1.0000 0.86330  0.33360  0.24710  Biso   1.000  C
  H237     1.0000 0.84620  0.32990  0.22990  Biso   1.000  H
  H238     1.0000 0.88220  0.36700  0.24770  Biso   1.000  H
  H239     1.0000 0.88810  0.30470  0.24960  Biso   1.000  H
  C221     1.0000 0.82740  0.21500  0.31020  Biso   1.000  C
  H240     1.0000 0.79070  0.20500  0.31260  Biso   1.000  H
  H241     1.0000 0.84980  0.19320  0.32130  Biso   1.000  H
  H242     1.0000 0.83190  0.25200  0.31510  Biso   1.000  H
  S75      1.0000 0.02118  0.46710  0.29564  Biso   1.000  S
  S76      1.0000 0.89312  0.45913  0.29517  Biso   1.000  S
  S77      1.0000 0.88773  0.42888  0.29648  Biso   1.000  S
  S78      1.0000 0.01070  0.41863  0.29681  Biso   1.000  S
  O75      1.0000 0.08950  0.55520  0.26590  Biso   1.000  O
  O76      1.0000 0.08940  0.49320  0.23470  Biso   1.000  O
  C222     1.0000 0.06840  0.52530  0.25060  Biso   1.000  C
  C223     1.0000 0.00928  0.52290  0.24972  Biso   1.000  C
  C224     1.0000 0.98340  0.49660  0.26978  Biso   1.000  C
  C225     1.0000 0.92900  0.49311  0.26957  Biso   1.000  C
  C226     1.0000 0.90056  0.51600  0.24930  Biso   1.000  C
  C227     1.0000 0.92650  0.45771  0.27076  Biso   1.000  C
  C228     1.0000 0.98080  0.45423  0.27055  Biso   1.000  C
  C229     1.0000 0.03460  0.52440  0.31640  Biso   1.000  C
  H243     1.0000 0.05370  0.51330  0.33210  Biso   1.000  H
  H244     1.0000 0.05580  0.54970  0.30650  Biso   1.000  H
  H245     1.0000 0.00140  0.54080  0.32160  Biso   1.000  H
  C230     1.0000 0.88270  0.51140  0.31910  Biso   1.000  C
  H246     1.0000 0.86560  0.54120  0.31050  Biso   1.000  H
  H247     1.0000 0.86030  0.49850  0.33340  Biso   1.000  H
  H248     1.0000 0.91650  0.52250  0.32630  Biso   1.000  H
  C231     1.0000 0.88970  0.48380  0.31900  Biso   1.000  C
  H249     1.0000 0.88770  0.51660  0.30910  Biso   1.000  H
  H250     1.0000 0.86000  0.48160  0.33120  Biso   1.000  H
  H251     1.0000 0.92250  0.48280  0.32900  Biso   1.000  H
  C232     1.0000 0.99850  0.35390  0.28280  Biso   1.000  C
  H252     1.0000 0.96140  0.34490  0.28490  Biso   1.000  H
  H253     1.0000 0.00730  0.35420  0.26400  Biso   1.000  H
  H254     1.0000 0.02010  0.32780  0.29180  Biso   1.000  H
  O77      1.0000 0.10650  0.60930  0.27840  Biso   1.000  O
  H255     1.0000 0.10400  0.63900  0.27100  Biso   1.000  H
  H256     1.0000 0.07800  0.61000  0.28700  Biso   1.000  H
  O78      1.0000 0.82060  0.46760  0.23528  Biso   1.000  O
  O79      1.0000 0.67470  0.54110  0.19306  Biso   1.000  O
  O80      1.0000 0.73880  0.48070  0.18950  Biso   1.000  O
  S79      1.0000 0.63529  0.45026  0.14690  Biso   1.000  S
  S80      1.0000 0.78258  0.59833  0.16663  Biso   1.000  S
  Zn15     1.0000 0.74630  0.46021  0.22611  Biso   1.000  Zn
  Zn16     1.0000 0.66168  0.55286  0.23109  Biso   1.000  Zn
  C233     1.0000 0.26510  0.95750  0.06932  Biso   1.000  C
  C234     1.0000 0.27440  0.96170  0.09850  Biso   1.000  C
  C235     1.0000 0.24550  0.93140  0.11577  Biso   1.000  C
  C236     1.0000 0.31150  0.99700  0.10728  Biso   1.000  C
  C237     1.0000 0.14120  0.92410  0.10530  Biso   1.000  C
  H257     1.0000 0.14670  0.95310  0.11760  Biso   1.000  H
  H258     1.0000 0.11230  0.90200  0.11150  Biso   1.000  H
  H259     1.0000 0.13250  0.93810  0.08790  Biso   1.000  H
  C238     1.0000 0.40550  0.99070  0.08240  Biso   1.000  C
  H260     1.0000 0.41750  0.98360  0.10030  Biso   1.000  H
  H261     1.0000 0.43360  0.00820  0.07260  Biso   1.000  H
  H262     1.0000 0.39660  0.95760  0.07370  Biso   1.000  H
  S81      1.0000 0.09427  0.08831  0.97784  Biso   1.000  S
  S82      1.0000 0.96937  0.11944  0.97475  Biso   1.000  S
  S83      1.0000 0.08200  0.06451  0.97725  Biso   1.000  S
  S84      1.0000 0.95626  0.09549  0.97385  Biso   1.000  S
  O81      1.0000 0.13610  0.96080  0.98560  Biso   1.000  O
  O82      1.0000 0.13950  0.00180  0.02451  Biso   1.000  O
  O83      1.0000 0.12220  0.93710  0.98390  Biso   1.000  O
  O84      1.0000 0.12870  0.97860  0.02220  Biso   1.000  O
  C239     1.0000 0.11660  0.98470  0.00310  Biso   1.000  C
  C240     1.0000 0.05920  0.99880  0.00162  Biso   1.000  C
  C241     1.0000 0.04390  0.04590  0.99036  Biso   1.000  C
  C242     1.0000 0.99110  0.05894  0.98907  Biso   1.000  C
  C243     1.0000 0.04640  0.97520  0.00096  Biso   1.000  C
  C244     1.0000 0.03100  0.02240  0.98970  Biso   1.000  C
  C245     1.0000 0.97820  0.03542  0.98841  Biso   1.000  C
  C246     1.0000 0.10400  0.96130  0.00228  Biso   1.000  C
  C247     1.0000 0.10400  0.13070  0.00560  Biso   1.000  C
  H263     1.0000 0.10760  0.10960  0.02160  Biso   1.000  H
  H264     1.0000 0.07380  0.15420  0.00740  Biso   1.000  H
  H265     1.0000 0.13580  0.15150  0.00300  Biso   1.000  H
  C248     1.0000 0.97100  0.09900  0.94060  Biso   1.000  C
  H266     1.0000 0.94910  0.06780  0.93840  Biso   1.000  H
  H267     1.0000 0.00710  0.09090  0.93560  Biso   1.000  H
  H268     1.0000 0.95760  0.12740  0.92950  Biso   1.000  H
  C249     1.0000 0.08360  0.11330  0.00290  Biso   1.000  C
  H269     1.0000 0.07990  0.09620  0.02010  Biso   1.000  H
  H270     1.0000 0.11700  0.13220  0.00230  Biso   1.000  H
  H271     1.0000 0.05470  0.13810  0.00040  Biso   1.000  H
  C250     1.0000 0.96500  0.07740  0.93980  Biso   1.000  C
  H272     1.0000 0.95500  0.04070  0.93740  Biso   1.000  H
  H273     1.0000 0.94320  0.09980  0.92870  Biso   1.000  H
  H274     1.0000 0.00200  0.08190  0.93490  Biso   1.000  H
  S85      1.0000 0.21710  0.27118  0.95436  Biso   1.000  S
  S86      1.0000 0.20913  0.14312  0.95483  Biso   1.000  S
  S87      1.0000 0.17888  0.13773  0.95352  Biso   1.000  S
  S88      1.0000 0.16863  0.26070  0.95319  Biso   1.000  S
  O85      1.0000 0.30520  0.33950  0.98410  Biso   1.000  O
  O86      1.0000 0.24320  0.33940  0.01530  Biso   1.000  O
  C251     1.0000 0.27530  0.31840  0.99940  Biso   1.000  C
  C252     1.0000 0.27290  0.25928  0.00028  Biso   1.000  C
  C253     1.0000 0.24660  0.23340  0.98022  Biso   1.000  C
  C254     1.0000 0.24311  0.17900  0.98043  Biso   1.000  C
  C255     1.0000 0.26600  0.15056  0.00070  Biso   1.000  C
  C256     1.0000 0.20771  0.17650  0.97924  Biso   1.000  C
  C257     1.0000 0.20423  0.23080  0.97945  Biso   1.000  C
  C258     1.0000 0.27440  0.28460  0.93360  Biso   1.000  C
  H275     1.0000 0.26330  0.30370  0.91790  Biso   1.000  H
  H276     1.0000 0.29970  0.30580  0.94350  Biso   1.000  H
  H277     1.0000 0.29080  0.25140  0.92840  Biso   1.000  H
  C259     1.0000 0.26140  0.13270  0.93090  Biso   1.000  C
  H278     1.0000 0.29120  0.11560  0.93950  Biso   1.000  H
  H279     1.0000 0.24850  0.11030  0.91660  Biso   1.000  H
  H280     1.0000 0.27250  0.16650  0.92370  Biso   1.000  H
  C260     1.0000 0.23380  0.13970  0.93100  Biso   1.000  C
  H281     1.0000 0.26660  0.13770  0.94090  Biso   1.000  H
  H282     1.0000 0.23160  0.11000  0.91880  Biso   1.000  H
  H283     1.0000 0.23280  0.17250  0.92100  Biso   1.000  H
  C261     1.0000 0.10390  0.24850  0.96720  Biso   1.000  C
  H284     1.0000 0.09490  0.21140  0.96510  Biso   1.000  H
  H285     1.0000 0.10420  0.25730  0.98600  Biso   1.000  H
  H286     1.0000 0.07780  0.27010  0.95820  Biso   1.000  H
  O87      1.0000 0.35930  0.35650  0.97160  Biso   1.000  O
  H287     1.0000 0.38900  0.35400  0.97900  Biso   1.000  H
  H288     1.0000 0.36000  0.32800  0.96300  Biso   1.000  H
  O88      1.0000 0.21760  0.07060  0.01472  Biso   1.000  O
  O89      1.0000 0.29110  0.92470  0.05694  Biso   1.000  O
  O90      1.0000 0.23070  0.98880  0.06050  Biso   1.000  O
  S89      1.0000 0.20026  0.88529  0.10310  Biso   1.000  S
  S90      1.0000 0.34833  0.03258  0.08337  Biso   1.000  S
  Zn17     1.0000 0.21021  0.99630  0.02389  Biso   1.000  Zn
  Zn18     1.0000 0.30286  0.91168  0.01891  Biso   1.000  Zn
  C262     1.0000 0.76510  0.45750  0.56932  Biso   1.000  C
  C263     1.0000 0.77440  0.46170  0.59850  Biso   1.000  C
  C264     1.0000 0.74550  0.43140  0.61577  Biso   1.000  C
  C265     1.0000 0.81150  0.49700  0.60728  Biso   1.000  C
  C266     1.0000 0.64120  0.42410  0.60530  Biso   1.000  C
  H289     1.0000 0.64670  0.45310  0.61760  Biso   1.000  H
  H290     1.0000 0.61230  0.40200  0.61150  Biso   1.000  H
  H291     1.0000 0.63250  0.43810  0.58790  Biso   1.000  H
  C267     1.0000 0.90550  0.49070  0.58240  Biso   1.000  C
  H292     1.0000 0.91750  0.48360  0.60030  Biso   1.000  H
  H293     1.0000 0.93360  0.50820  0.57260  Biso   1.000  H
  H294     1.0000 0.89660  0.45760  0.57370  Biso   1.000  H
  S91      1.0000 0.59427  0.58831  0.47784  Biso   1.000  S
  S92      1.0000 0.46937  0.61944  0.47475  Biso   1.000  S
  S93      1.0000 0.58200  0.56451  0.47725  Biso   1.000  S
  S94      1.0000 0.45626  0.59549  0.47385  Biso   1.000  S
  O91      1.0000 0.63610  0.46080  0.48560  Biso   1.000  O
  O92      1.0000 0.63950  0.50180  0.52451  Biso   1.000  O
  O93      1.0000 0.62220  0.43710  0.48390  Biso   1.000  O
  O94      1.0000 0.62870  0.47860  0.52220  Biso   1.000  O
  C268     1.0000 0.61660  0.48470  0.50310  Biso   1.000  C
  C269     1.0000 0.55920  0.49880  0.50162  Biso   1.000  C
  C270     1.0000 0.54390  0.54590  0.49036  Biso   1.000  C
  C271     1.0000 0.49110  0.55894  0.48907  Biso   1.000  C
  C272     1.0000 0.54640  0.47520  0.50096  Biso   1.000  C
  C273     1.0000 0.53100  0.52240  0.48970  Biso   1.000  C
  C274     1.0000 0.47820  0.53542  0.48841  Biso   1.000  C
  C275     1.0000 0.60400  0.46130  0.50228  Biso   1.000  C
  C276     1.0000 0.60400  0.63070  0.50560  Biso   1.000  C
  H295     1.0000 0.60760  0.60960  0.52160  Biso   1.000  H
  H296     1.0000 0.57380  0.65420  0.50740  Biso   1.000  H
  H297     1.0000 0.63580  0.65150  0.50300  Biso   1.000  H
  C277     1.0000 0.47100  0.59900  0.44060  Biso   1.000  C
  H298     1.0000 0.44910  0.56780  0.43840  Biso   1.000  H
  H299     1.0000 0.50710  0.59090  0.43560  Biso   1.000  H
  H300     1.0000 0.45760  0.62740  0.42950  Biso   1.000  H
  C278     1.0000 0.58360  0.61330  0.50290  Biso   1.000  C
  H301     1.0000 0.57990  0.59620  0.52010  Biso   1.000  H
  H302     1.0000 0.61700  0.63220  0.50230  Biso   1.000  H
  H303     1.0000 0.55470  0.63810  0.50040  Biso   1.000  H
  C279     1.0000 0.46500  0.57740  0.43980  Biso   1.000  C
  H304     1.0000 0.45500  0.54070  0.43740  Biso   1.000  H
  H305     1.0000 0.44320  0.59980  0.42870  Biso   1.000  H
  H306     1.0000 0.50200  0.58190  0.43490  Biso   1.000  H
  S95      1.0000 0.71710  0.77118  0.45436  Biso   1.000  S
  S96      1.0000 0.70913  0.64312  0.45483  Biso   1.000  S
  S97      1.0000 0.67888  0.63773  0.45352  Biso   1.000  S
  S98      1.0000 0.66863  0.76070  0.45319  Biso   1.000  S
  O95      1.0000 0.80520  0.83950  0.48410  Biso   1.000  O
  O96      1.0000 0.74320  0.83940  0.51530  Biso   1.000  O
  C280     1.0000 0.77530  0.81840  0.49940  Biso   1.000  C
  C281     1.0000 0.77290  0.75928  0.50028  Biso   1.000  C
  C282     1.0000 0.74660  0.73340  0.48022  Biso   1.000  C
  C283     1.0000 0.74311  0.67900  0.48043  Biso   1.000  C
  C284     1.0000 0.76600  0.65056  0.50070  Biso   1.000  C
  C285     1.0000 0.70771  0.67650  0.47924  Biso   1.000  C
  C286     1.0000 0.70423  0.73080  0.47945  Biso   1.000  C
  C287     1.0000 0.77440  0.78460  0.43360  Biso   1.000  C
  H307     1.0000 0.76330  0.80370  0.41790  Biso   1.000  H
  H308     1.0000 0.79970  0.80580  0.44350  Biso   1.000  H
  H309     1.0000 0.79080  0.75140  0.42840  Biso   1.000  H
  C288     1.0000 0.76140  0.63270  0.43090  Biso   1.000  C
  H310     1.0000 0.79120  0.61560  0.43950  Biso   1.000  H
  H311     1.0000 0.74850  0.61030  0.41660  Biso   1.000  H
  H312     1.0000 0.77250  0.66650  0.42370  Biso   1.000  H
  C289     1.0000 0.73380  0.63970  0.43100  Biso   1.000  C
  H313     1.0000 0.76660  0.63770  0.44090  Biso   1.000  H
  H314     1.0000 0.73160  0.61000  0.41880  Biso   1.000  H
  H315     1.0000 0.73280  0.67250  0.42100  Biso   1.000  H
  C290     1.0000 0.60390  0.74850  0.46720  Biso   1.000  C
  H316     1.0000 0.59490  0.71140  0.46510  Biso   1.000  H
  H317     1.0000 0.60420  0.75730  0.48600  Biso   1.000  H
  H318     1.0000 0.57780  0.77010  0.45820  Biso   1.000  H
  O97      1.0000 0.85930  0.85650  0.47160  Biso   1.000  O
  H319     1.0000 0.88900  0.85400  0.47900  Biso   1.000  H
  H320     1.0000 0.86000  0.82800  0.46300  Biso   1.000  H
  O98      1.0000 0.71760  0.57060  0.51472  Biso   1.000  O
  O99      1.0000 0.79110  0.42470  0.55694  Biso   1.000  O
  O100     1.0000 0.73070  0.48880  0.56050  Biso   1.000  O
  S99      1.0000 0.70026  0.38529  0.60310  Biso   1.000  S
  S100     1.0000 0.84833  0.53258  0.58337  Biso   1.000  S
  Zn19     1.0000 0.71021  0.49630  0.52389  Biso   1.000  Zn
  Zn20     1.0000 0.80286  0.41168  0.51891  Biso   1.000  Zn
  C291     1.0000 0.23490  0.04250  0.56932  Biso   1.000  C
  C292     1.0000 0.22560  0.03830  0.59850  Biso   1.000  C
  C293     1.0000 0.25450  0.06860  0.61577  Biso   1.000  C
  C294     1.0000 0.18850  0.00300  0.60728  Biso   1.000  C
  C295     1.0000 0.35880  0.07590  0.60530  Biso   1.000  C
  H321     1.0000 0.35330  0.04690  0.61760  Biso   1.000  H
  H322     1.0000 0.38770  0.09800  0.61150  Biso   1.000  H
  H323     1.0000 0.36750  0.06190  0.58790  Biso   1.000  H
  C296     1.0000 0.09450  0.00930  0.58240  Biso   1.000  C
  H324     1.0000 0.08250  0.01640  0.60030  Biso   1.000  H
  H325     1.0000 0.06640  0.99180  0.57260  Biso   1.000  H
  H326     1.0000 0.10340  0.04240  0.57370  Biso   1.000  H
  S101     1.0000 0.40573  0.91169  0.47784  Biso   1.000  S
  S102     1.0000 0.53063  0.88056  0.47475  Biso   1.000  S
  S103     1.0000 0.41800  0.93549  0.47725  Biso   1.000  S
  S104     1.0000 0.54374  0.90451  0.47385  Biso   1.000  S
  O101     1.0000 0.36390  0.03920  0.48560  Biso   1.000  O
  O102     1.0000 0.36050  0.99820  0.52451  Biso   1.000  O
  O103     1.0000 0.37780  0.06290  0.48390  Biso   1.000  O
  O104     1.0000 0.37130  0.02140  0.52220  Biso   1.000  O
  C297     1.0000 0.38340  0.01530  0.50310  Biso   1.000  C
  C298     1.0000 0.44080  0.00120  0.50162  Biso   1.000  C
  C299     1.0000 0.45610  0.95410  0.49036  Biso   1.000  C
  C300     1.0000 0.50890  0.94106  0.48907  Biso   1.000  C
  C301     1.0000 0.45360  0.02480  0.50096  Biso   1.000  C
  C302     1.0000 0.46900  0.97760  0.48970  Biso   1.000  C
  C303     1.0000 0.52180  0.96458  0.48841  Biso   1.000  C
  C304     1.0000 0.39600  0.03870  0.50228  Biso   1.000  C
  C305     1.0000 0.39600  0.86930  0.50560  Biso   1.000  C
  H327     1.0000 0.39240  0.89040  0.52160  Biso   1.000  H
  H328     1.0000 0.42620  0.84580  0.50740  Biso   1.000  H
  H329     1.0000 0.36420  0.84850  0.50300  Biso   1.000  H
  C306     1.0000 0.52900  0.90100  0.44060  Biso   1.000  C
  H330     1.0000 0.55090  0.93220  0.43840  Biso   1.000  H
  H331     1.0000 0.49290  0.90910  0.43560  Biso   1.000  H
  H332     1.0000 0.54240  0.87260  0.42950  Biso   1.000  H
  C307     1.0000 0.41640  0.88670  0.50290  Biso   1.000  C
  H333     1.0000 0.42010  0.90380  0.52010  Biso   1.000  H
  H334     1.0000 0.38300  0.86780  0.50230  Biso   1.000  H
  H335     1.0000 0.44530  0.86190  0.50040  Biso   1.000  H
  C308     1.0000 0.53500  0.92260  0.43980  Biso   1.000  C
  H336     1.0000 0.54500  0.95930  0.43740  Biso   1.000  H
  H337     1.0000 0.55680  0.90020  0.42870  Biso   1.000  H
  H338     1.0000 0.49800  0.91810  0.43490  Biso   1.000  H
  S105     1.0000 0.28290  0.72882  0.45436  Biso   1.000  S
  S106     1.0000 0.29087  0.85688  0.45483  Biso   1.000  S
  S107     1.0000 0.32112  0.86227  0.45352  Biso   1.000  S
  S108     1.0000 0.33137  0.73930  0.45319  Biso   1.000  S
  O105     1.0000 0.19480  0.66050  0.48410  Biso   1.000  O
  O106     1.0000 0.25680  0.66060  0.51530  Biso   1.000  O
  C309     1.0000 0.22470  0.68160  0.49940  Biso   1.000  C
  C310     1.0000 0.22710  0.74072  0.50028  Biso   1.000  C
  C311     1.0000 0.25340  0.76660  0.48022  Biso   1.000  C
  C312     1.0000 0.25689  0.82100  0.48043  Biso   1.000  C
  C313     1.0000 0.23400  0.84944  0.50070  Biso   1.000  C
  C314     1.0000 0.29229  0.82350  0.47924  Biso   1.000  C
  C315     1.0000 0.29577  0.76920  0.47945  Biso   1.000  C
  C316     1.0000 0.22560  0.71540  0.43360  Biso   1.000  C
  H339     1.0000 0.23670  0.69630  0.41790  Biso   1.000  H
  H340     1.0000 0.20030  0.69420  0.44350  Biso   1.000  H
  H341     1.0000 0.20920  0.74860  0.42840  Biso   1.000  H
  C317     1.0000 0.23860  0.86730  0.43090  Biso   1.000  C
  H342     1.0000 0.20880  0.88440  0.43950  Biso   1.000  H
  H343     1.0000 0.25150  0.88970  0.41660  Biso   1.000  H
  H344     1.0000 0.22750  0.83350  0.42370  Biso   1.000  H
  C318     1.0000 0.26620  0.86030  0.43100  Biso   1.000  C
  H345     1.0000 0.23340  0.86230  0.44090  Biso   1.000  H
  H346     1.0000 0.26840  0.89000  0.41880  Biso   1.000  H
  H347     1.0000 0.26720  0.82750  0.42100  Biso   1.000  H
  C319     1.0000 0.39610  0.75150  0.46720  Biso   1.000  C
  H348     1.0000 0.40510  0.78860  0.46510  Biso   1.000  H
  H349     1.0000 0.39580  0.74270  0.48600  Biso   1.000  H
  H350     1.0000 0.42220  0.72990  0.45820  Biso   1.000  H
  O107     1.0000 0.14070  0.64350  0.47160  Biso   1.000  O
  H351     1.0000 0.11100  0.64600  0.47900  Biso   1.000  H
  H352     1.0000 0.14000  0.67200  0.46300  Biso   1.000  H
  O108     1.0000 0.28240  0.92940  0.51472  Biso   1.000  O
  O109     1.0000 0.20890  0.07530  0.55694  Biso   1.000  O
  O110     1.0000 0.26930  0.01120  0.56050  Biso   1.000  O
  S109     1.0000 0.29974  0.11471  0.60310  Biso   1.000  S
  S110     1.0000 0.15167  0.96742  0.58337  Biso   1.000  S
  Zn21     1.0000 0.28979  0.00370  0.52389  Biso   1.000  Zn
  Zn22     1.0000 0.19714  0.08832  0.51891  Biso   1.000  Zn
  C320     1.0000 0.73490  0.54250  0.06932  Biso   1.000  C
  C321     1.0000 0.72560  0.53830  0.09850  Biso   1.000  C
  C322     1.0000 0.75450  0.56860  0.11577  Biso   1.000  C
  C323     1.0000 0.68850  0.50300  0.10728  Biso   1.000  C
  C324     1.0000 0.85880  0.57590  0.10530  Biso   1.000  C
  H353     1.0000 0.85330  0.54690  0.11760  Biso   1.000  H
  H354     1.0000 0.88770  0.59800  0.11150  Biso   1.000  H
  H355     1.0000 0.86750  0.56190  0.08790  Biso   1.000  H
  C325     1.0000 0.59450  0.50930  0.08240  Biso   1.000  C
  H356     1.0000 0.58250  0.51640  0.10030  Biso   1.000  H
  H357     1.0000 0.56640  0.49180  0.07260  Biso   1.000  H
  H358     1.0000 0.60340  0.54240  0.07370  Biso   1.000  H
  S111     1.0000 0.90573  0.41169  0.97784  Biso   1.000  S
  S112     1.0000 0.03063  0.38056  0.97475  Biso   1.000  S
  S113     1.0000 0.91800  0.43549  0.97725  Biso   1.000  S
  S114     1.0000 0.04374  0.40451  0.97385  Biso   1.000  S
  O111     1.0000 0.86390  0.53920  0.98560  Biso   1.000  O
  O112     1.0000 0.86050  0.49820  0.02451  Biso   1.000  O
  O113     1.0000 0.87780  0.56290  0.98390  Biso   1.000  O
  O114     1.0000 0.87130  0.52140  0.02220  Biso   1.000  O
  C326     1.0000 0.88340  0.51530  0.00310  Biso   1.000  C
  C327     1.0000 0.94080  0.50120  0.00162  Biso   1.000  C
  C328     1.0000 0.95610  0.45410  0.99036  Biso   1.000  C
  C329     1.0000 0.00890  0.44106  0.98907  Biso   1.000  C
  C330     1.0000 0.95360  0.52480  0.00096  Biso   1.000  C
  C331     1.0000 0.96900  0.47760  0.98970  Biso   1.000  C
  C332     1.0000 0.02180  0.46458  0.98841  Biso   1.000  C
  C333     1.0000 0.89600  0.53870  0.00228  Biso   1.000  C
  C334     1.0000 0.89600  0.36930  0.00560  Biso   1.000  C
  H359     1.0000 0.89240  0.39040  0.02160  Biso   1.000  H
  H360     1.0000 0.92620  0.34580  0.00740  Biso   1.000  H
  H361     1.0000 0.86420  0.34850  0.00300  Biso   1.000  H
  C335     1.0000 0.02900  0.40100  0.94060  Biso   1.000  C
  H362     1.0000 0.05090  0.43220  0.93840  Biso   1.000  H
  H363     1.0000 0.99290  0.40910  0.93560  Biso   1.000  H
  H364     1.0000 0.04240  0.37260  0.92950  Biso   1.000  H
  C336     1.0000 0.91640  0.38670  0.00290  Biso   1.000  C
  H365     1.0000 0.92010  0.40380  0.02010  Biso   1.000  H
  H366     1.0000 0.88300  0.36780  0.00230  Biso   1.000  H
  H367     1.0000 0.94530  0.36190  0.00040  Biso   1.000  H
  C337     1.0000 0.03500  0.42260  0.93980  Biso   1.000  C
  H368     1.0000 0.04500  0.45930  0.93740  Biso   1.000  H
  H369     1.0000 0.05680  0.40020  0.92870  Biso   1.000  H
  H370     1.0000 0.99800  0.41810  0.93490  Biso   1.000  H
  S115     1.0000 0.78290  0.22882  0.95436  Biso   1.000  S
  S116     1.0000 0.79087  0.35688  0.95483  Biso   1.000  S
  S117     1.0000 0.82112  0.36227  0.95352  Biso   1.000  S
  S118     1.0000 0.83137  0.23930  0.95319  Biso   1.000  S
  O115     1.0000 0.69480  0.16050  0.98410  Biso   1.000  O
  O116     1.0000 0.75680  0.16060  0.01530  Biso   1.000  O
  C338     1.0000 0.72470  0.18160  0.99940  Biso   1.000  C
  C339     1.0000 0.72710  0.24072  0.00028  Biso   1.000  C
  C340     1.0000 0.75340  0.26660  0.98022  Biso   1.000  C
  C341     1.0000 0.75689  0.32100  0.98043  Biso   1.000  C
  C342     1.0000 0.73400  0.34944  0.00070  Biso   1.000  C
  C343     1.0000 0.79229  0.32350  0.97924  Biso   1.000  C
  C344     1.0000 0.79577  0.26920  0.97945  Biso   1.000  C
  C345     1.0000 0.72560  0.21540  0.93360  Biso   1.000  C
  H371     1.0000 0.73670  0.19630  0.91790  Biso   1.000  H
  H372     1.0000 0.70030  0.19420  0.94350  Biso   1.000  H
  H373     1.0000 0.70920  0.24860  0.92840  Biso   1.000  H
  C346     1.0000 0.73860  0.36730  0.93090  Biso   1.000  C
  H374     1.0000 0.70880  0.38440  0.93950  Biso   1.000  H
  H375     1.0000 0.75150  0.38970  0.91660  Biso   1.000  H
  H376     1.0000 0.72750  0.33350  0.92370  Biso   1.000  H
  C347     1.0000 0.76620  0.36030  0.93100  Biso   1.000  C
  H377     1.0000 0.73340  0.36230  0.94090  Biso   1.000  H
  H378     1.0000 0.76840  0.39000  0.91880  Biso   1.000  H
  H379     1.0000 0.76720  0.32750  0.92100  Biso   1.000  H
  C348     1.0000 0.89610  0.25150  0.96720  Biso   1.000  C
  H380     1.0000 0.90510  0.28860  0.96510  Biso   1.000  H
  H381     1.0000 0.89580  0.24270  0.98600  Biso   1.000  H
  H382     1.0000 0.92220  0.22990  0.95820  Biso   1.000  H
  O117     1.0000 0.64070  0.14350  0.97160  Biso   1.000  O
  H383     1.0000 0.61100  0.14600  0.97900  Biso   1.000  H
  H384     1.0000 0.64000  0.17200  0.96300  Biso   1.000  H
  O118     1.0000 0.78240  0.42940  0.01472  Biso   1.000  O
  O119     1.0000 0.70890  0.57530  0.05694  Biso   1.000  O
  O120     1.0000 0.76930  0.51120  0.06050  Biso   1.000  O
  S119     1.0000 0.79974  0.61471  0.10310  Biso   1.000  S
  S120     1.0000 0.65167  0.46742  0.08337  Biso   1.000  S
  Zn23     1.0000 0.78979  0.50370  0.02389  Biso   1.000  Zn
  Zn24     1.0000 0.69714  0.58832  0.01891  Biso   1.000  Zn
  C349     1.0000 0.20750  0.98490  0.81932  Biso   1.000  C
  C350     1.0000 0.21170  0.97560  0.84850  Biso   1.000  C
  C351     1.0000 0.18140  0.00450  0.86577  Biso   1.000  C
  C352     1.0000 0.24700  0.93850  0.85728  Biso   1.000  C
  C353     1.0000 0.17410  0.10880  0.85530  Biso   1.000  C
  H385     1.0000 0.20310  0.10330  0.86760  Biso   1.000  H
  H386     1.0000 0.15200  0.13770  0.86150  Biso   1.000  H
  H387     1.0000 0.18810  0.11750  0.83790  Biso   1.000  H
  C354     1.0000 0.24070  0.84450  0.83240  Biso   1.000  C
  H388     1.0000 0.23360  0.83250  0.85030  Biso   1.000  H
  H389     1.0000 0.25820  0.81640  0.82260  Biso   1.000  H
  H390     1.0000 0.20760  0.85340  0.82370  Biso   1.000  H
  S121     1.0000 0.33831  0.15573  0.72784  Biso   1.000  S
  S122     1.0000 0.36944  0.28063  0.72475  Biso   1.000  S
  S123     1.0000 0.31451  0.16800  0.72725  Biso   1.000  S
  S124     1.0000 0.34549  0.29374  0.72385  Biso   1.000  S
  O121     1.0000 0.21080  0.11390  0.73560  Biso   1.000  O
  O122     1.0000 0.25180  0.11050  0.77451  Biso   1.000  O
  O123     1.0000 0.18710  0.12780  0.73390  Biso   1.000  O
  O124     1.0000 0.22860  0.12130  0.77220  Biso   1.000  O
  C355     1.0000 0.23470  0.13340  0.75310  Biso   1.000  C
  C356     1.0000 0.24880  0.19080  0.75162  Biso   1.000  C
  C357     1.0000 0.29590  0.20610  0.74036  Biso   1.000  C
  C358     1.0000 0.30894  0.25890  0.73907  Biso   1.000  C
  C359     1.0000 0.22520  0.20360  0.75096  Biso   1.000  C
  C360     1.0000 0.27240  0.21900  0.73970  Biso   1.000  C
  C361     1.0000 0.28542  0.27180  0.73841  Biso   1.000  C
  C362     1.0000 0.21130  0.14600  0.75228  Biso   1.000  C
  C363     1.0000 0.38070  0.14600  0.75560  Biso   1.000  C
  H391     1.0000 0.35960  0.14240  0.77160  Biso   1.000  H
  H392     1.0000 0.40420  0.17620  0.75740  Biso   1.000  H
  H393     1.0000 0.40150  0.11420  0.75300  Biso   1.000  H
  C364     1.0000 0.34900  0.27900  0.69060  Biso   1.000  C
  H394     1.0000 0.31780  0.30090  0.68840  Biso   1.000  H
  H395     1.0000 0.34090  0.24290  0.68560  Biso   1.000  H
  H396     1.0000 0.37740  0.29240  0.67950  Biso   1.000  H
  C365     1.0000 0.36330  0.16640  0.75290  Biso   1.000  C
  H397     1.0000 0.34620  0.17010  0.77010  Biso   1.000  H
  H398     1.0000 0.38220  0.13300  0.75230  Biso   1.000  H
  H399     1.0000 0.38810  0.19530  0.75040  Biso   1.000  H
  C366     1.0000 0.32740  0.28500  0.68980  Biso   1.000  C
  H400     1.0000 0.29070  0.29500  0.68740  Biso   1.000  H
  H401     1.0000 0.34980  0.30680  0.67870  Biso   1.000  H
  H402     1.0000 0.33190  0.24800  0.68490  Biso   1.000  H
  S125     1.0000 0.52118  0.03290  0.70436  Biso   1.000  S
  S126     1.0000 0.39312  0.04087  0.70483  Biso   1.000  S
  S127     1.0000 0.38773  0.07112  0.70352  Biso   1.000  S
  S128     1.0000 0.51070  0.08137  0.70319  Biso   1.000  S
  O125     1.0000 0.58950  0.94480  0.73410  Biso   1.000  O
  O126     1.0000 0.58940  0.00680  0.76530  Biso   1.000  O
  C367     1.0000 0.56840  0.97470  0.74940  Biso   1.000  C
  C368     1.0000 0.50928  0.97710  0.75028  Biso   1.000  C
  C369     1.0000 0.48340  0.00340  0.73022  Biso   1.000  C
  C370     1.0000 0.42900  0.00689  0.73043  Biso   1.000  C
  C371     1.0000 0.40056  0.98400  0.75070  Biso   1.000  C
  C372     1.0000 0.42650  0.04229  0.72924  Biso   1.000  C
  C373     1.0000 0.48080  0.04577  0.72945  Biso   1.000  C
  C374     1.0000 0.53460  0.97560  0.68360  Biso   1.000  C
  H403     1.0000 0.55370  0.98670  0.66790  Biso   1.000  H
  H404     1.0000 0.55580  0.95030  0.69350  Biso   1.000  H
  H405     1.0000 0.50140  0.95920  0.67840  Biso   1.000  H
  C375     1.0000 0.38270  0.98860  0.68090  Biso   1.000  C
  H406     1.0000 0.36560  0.95880  0.68950  Biso   1.000  H
  H407     1.0000 0.36030  0.00150  0.66660  Biso   1.000  H
  H408     1.0000 0.41650  0.97750  0.67370  Biso   1.000  H
  C376     1.0000 0.38970  0.01620  0.68100  Biso   1.000  C
  H409     1.0000 0.38770  0.98340  0.69090  Biso   1.000  H
  H410     1.0000 0.36000  0.01840  0.66880  Biso   1.000  H
  H411     1.0000 0.42250  0.01720  0.67100  Biso   1.000  H
  C377     1.0000 0.49850  0.14610  0.71720  Biso   1.000  C
  H412     1.0000 0.46140  0.15510  0.71510  Biso   1.000  H
  H413     1.0000 0.50730  0.14580  0.73600  Biso   1.000  H
  H414     1.0000 0.52010  0.17220  0.70820  Biso   1.000  H
  O127     1.0000 0.60650  0.89070  0.72160  Biso   1.000  O
  H415     1.0000 0.60400  0.86100  0.72900  Biso   1.000  H
  H416     1.0000 0.57800  0.89000  0.71300  Biso   1.000  H
  O128     1.0000 0.32060  0.03240  0.76472  Biso   1.000  O
  O129     1.0000 0.17470  0.95890  0.80694  Biso   1.000  O
  O130     1.0000 0.23880  0.01930  0.81050  Biso   1.000  O
  S129     1.0000 0.13529  0.04974  0.85310  Biso   1.000  S
  S130     1.0000 0.28258  0.90167  0.83337  Biso   1.000  S
  Zn25     1.0000 0.24630  0.03979  0.77389  Biso   1.000  Zn
  Zn26     1.0000 0.16168  0.94714  0.76891  Biso   1.000  Zn
  C378     1.0000 0.70750  0.48490  0.31932  Biso   1.000  C
  C379     1.0000 0.71170  0.47560  0.34850  Biso   1.000  C
  C380     1.0000 0.68140  0.50450  0.36577  Biso   1.000  C
  C381     1.0000 0.74700  0.43850  0.35728  Biso   1.000  C
  C382     1.0000 0.67410  0.60880  0.35530  Biso   1.000  C
  H417     1.0000 0.70310  0.60330  0.36760  Biso   1.000  H
  H418     1.0000 0.65200  0.63770  0.36150  Biso   1.000  H
  H419     1.0000 0.68810  0.61750  0.33790  Biso   1.000  H
  C383     1.0000 0.74070  0.34450  0.33240  Biso   1.000  C
  H420     1.0000 0.73360  0.33250  0.35030  Biso   1.000  H
  H421     1.0000 0.75820  0.31640  0.32260  Biso   1.000  H
  H422     1.0000 0.70760  0.35340  0.32370  Biso   1.000  H
  S131     1.0000 0.83831  0.65573  0.22784  Biso   1.000  S
  S132     1.0000 0.86944  0.78063  0.22475  Biso   1.000  S
  S133     1.0000 0.81451  0.66800  0.22725  Biso   1.000  S
  S134     1.0000 0.84549  0.79374  0.22385  Biso   1.000  S
  O131     1.0000 0.71080  0.61390  0.23560  Biso   1.000  O
  O132     1.0000 0.75180  0.61050  0.27451  Biso   1.000  O
  O133     1.0000 0.68710  0.62780  0.23390  Biso   1.000  O
  O134     1.0000 0.72860  0.62130  0.27220  Biso   1.000  O
  C384     1.0000 0.73470  0.63340  0.25310  Biso   1.000  C
  C385     1.0000 0.74880  0.69080  0.25162  Biso   1.000  C
  C386     1.0000 0.79590  0.70610  0.24036  Biso   1.000  C
  C387     1.0000 0.80894  0.75890  0.23907  Biso   1.000  C
  C388     1.0000 0.72520  0.70360  0.25096  Biso   1.000  C
  C389     1.0000 0.77240  0.71900  0.23970  Biso   1.000  C
  C390     1.0000 0.78542  0.77180  0.23841  Biso   1.000  C
  C391     1.0000 0.71130  0.64600  0.25228  Biso   1.000  C
  C392     1.0000 0.88070  0.64600  0.25560  Biso   1.000  C
  H423     1.0000 0.85960  0.64240  0.27160  Biso   1.000  H
  H424     1.0000 0.90420  0.67620  0.25740  Biso   1.000  H
  H425     1.0000 0.90150  0.61420  0.25300  Biso   1.000  H
  C393     1.0000 0.84900  0.77900  0.19060  Biso   1.000  C
  H426     1.0000 0.81780  0.80090  0.18840  Biso   1.000  H
  H427     1.0000 0.84090  0.74290  0.18560  Biso   1.000  H
  H428     1.0000 0.87740  0.79240  0.17950  Biso   1.000  H
  C394     1.0000 0.86330  0.66640  0.25290  Biso   1.000  C
  H429     1.0000 0.84620  0.67010  0.27010  Biso   1.000  H
  H430     1.0000 0.88220  0.63300  0.25230  Biso   1.000  H
  H431     1.0000 0.88810  0.69530  0.25040  Biso   1.000  H
  C395     1.0000 0.82740  0.78500  0.18980  Biso   1.000  C
  H432     1.0000 0.79070  0.79500  0.18740  Biso   1.000  H
  H433     1.0000 0.84980  0.80680  0.17870  Biso   1.000  H
  H434     1.0000 0.83190  0.74800  0.18490  Biso   1.000  H
  S135     1.0000 0.02118  0.53290  0.20436  Biso   1.000  S
  S136     1.0000 0.89312  0.54087  0.20483  Biso   1.000  S
  S137     1.0000 0.88773  0.57112  0.20352  Biso   1.000  S
  S138     1.0000 0.01070  0.58137  0.20319  Biso   1.000  S
  O135     1.0000 0.08950  0.44480  0.23410  Biso   1.000  O
  O136     1.0000 0.08940  0.50680  0.26530  Biso   1.000  O
  C396     1.0000 0.06840  0.47470  0.24940  Biso   1.000  C
  C397     1.0000 0.00928  0.47710  0.25028  Biso   1.000  C
  C398     1.0000 0.98340  0.50340  0.23022  Biso   1.000  C
  C399     1.0000 0.92900  0.50689  0.23043  Biso   1.000  C
  C400     1.0000 0.90056  0.48400  0.25070  Biso   1.000  C
  C401     1.0000 0.92650  0.54229  0.22924  Biso   1.000  C
  C402     1.0000 0.98080  0.54577  0.22945  Biso   1.000  C
  C403     1.0000 0.03460  0.47560  0.18360  Biso   1.000  C
  H435     1.0000 0.05370  0.48670  0.16790  Biso   1.000  H
  H436     1.0000 0.05580  0.45030  0.19350  Biso   1.000  H
  H437     1.0000 0.00140  0.45920  0.17840  Biso   1.000  H
  C404     1.0000 0.88270  0.48860  0.18090  Biso   1.000  C
  H438     1.0000 0.86560  0.45880  0.18950  Biso   1.000  H
  H439     1.0000 0.86030  0.50150  0.16660  Biso   1.000  H
  H440     1.0000 0.91650  0.47750  0.17370  Biso   1.000  H
  C405     1.0000 0.88970  0.51620  0.18100  Biso   1.000  C
  H441     1.0000 0.88770  0.48340  0.19090  Biso   1.000  H
  H442     1.0000 0.86000  0.51840  0.16880  Biso   1.000  H
  H443     1.0000 0.92250  0.51720  0.17100  Biso   1.000  H
  C406     1.0000 0.99850  0.64610  0.21720  Biso   1.000  C
  H444     1.0000 0.96140  0.65510  0.21510  Biso   1.000  H
  H445     1.0000 0.00730  0.64580  0.23600  Biso   1.000  H
  H446     1.0000 0.02010  0.67220  0.20820  Biso   1.000  H
  O137     1.0000 0.10650  0.39070  0.22160  Biso   1.000  O
  H447     1.0000 0.10400  0.36100  0.22900  Biso   1.000  H
  H448     1.0000 0.07800  0.39000  0.21300  Biso   1.000  H
  O138     1.0000 0.82060  0.53240  0.26472  Biso   1.000  O
  O139     1.0000 0.67470  0.45890  0.30694  Biso   1.000  O
  O140     1.0000 0.73880  0.51930  0.31050  Biso   1.000  O
  S139     1.0000 0.63529  0.54974  0.35310  Biso   1.000  S
  S140     1.0000 0.78258  0.40167  0.33337  Biso   1.000  S
  Zn27     1.0000 0.74630  0.53979  0.27389  Biso   1.000  Zn
  Zn28     1.0000 0.66168  0.44714  0.26891  Biso   1.000  Zn
  C407     1.0000 0.29250  0.01510  0.31932  Biso   1.000  C
  C408     1.0000 0.28830  0.02440  0.34850  Biso   1.000  C
  C409     1.0000 0.31860  0.99550  0.36577  Biso   1.000  C
  C410     1.0000 0.25300  0.06150  0.35728  Biso   1.000  C
  C411     1.0000 0.32590  0.89120  0.35530  Biso   1.000  C
  H449     1.0000 0.29690  0.89670  0.36760  Biso   1.000  H
  H450     1.0000 0.34800  0.86230  0.36150  Biso   1.000  H
  H451     1.0000 0.31190  0.88250  0.33790  Biso   1.000  H
  C412     1.0000 0.25930  0.15550  0.33240  Biso   1.000  C
  H452     1.0000 0.26640  0.16750  0.35030  Biso   1.000  H
  H453     1.0000 0.24180  0.18360  0.32260  Biso   1.000  H
  H454     1.0000 0.29240  0.14660  0.32370  Biso   1.000  H
  S141     1.0000 0.16169  0.84427  0.22784  Biso   1.000  S
  S142     1.0000 0.13056  0.71937  0.22475  Biso   1.000  S
  S143     1.0000 0.18549  0.83200  0.22725  Biso   1.000  S
  S144     1.0000 0.15451  0.70626  0.22385  Biso   1.000  S
  O141     1.0000 0.28920  0.88610  0.23560  Biso   1.000  O
  O142     1.0000 0.24820  0.88950  0.27451  Biso   1.000  O
  O143     1.0000 0.31290  0.87220  0.23390  Biso   1.000  O
  O144     1.0000 0.27140  0.87870  0.27220  Biso   1.000  O
  C413     1.0000 0.26530  0.86660  0.25310  Biso   1.000  C
  C414     1.0000 0.25120  0.80920  0.25162  Biso   1.000  C
  C415     1.0000 0.20410  0.79390  0.24036  Biso   1.000  C
  C416     1.0000 0.19106  0.74110  0.23907  Biso   1.000  C
  C417     1.0000 0.27480  0.79640  0.25096  Biso   1.000  C
  C418     1.0000 0.22760  0.78100  0.23970  Biso   1.000  C
  C419     1.0000 0.21458  0.72820  0.23841  Biso   1.000  C
  C420     1.0000 0.28870  0.85400  0.25228  Biso   1.000  C
  C421     1.0000 0.11930  0.85400  0.25560  Biso   1.000  C
  H455     1.0000 0.14040  0.85760  0.27160  Biso   1.000  H
  H456     1.0000 0.09580  0.82380  0.25740  Biso   1.000  H
  H457     1.0000 0.09850  0.88580  0.25300  Biso   1.000  H
  C422     1.0000 0.15100  0.72100  0.19060  Biso   1.000  C
  H458     1.0000 0.18220  0.69910  0.18840  Biso   1.000  H
  H459     1.0000 0.15910  0.75710  0.18560  Biso   1.000  H
  H460     1.0000 0.12260  0.70760  0.17950  Biso   1.000  H
  C423     1.0000 0.13670  0.83360  0.25290  Biso   1.000  C
  H461     1.0000 0.15380  0.82990  0.27010  Biso   1.000  H
  H462     1.0000 0.11780  0.86700  0.25230  Biso   1.000  H
  H463     1.0000 0.11190  0.80470  0.25040  Biso   1.000  H
  C424     1.0000 0.17260  0.71500  0.18980  Biso   1.000  C
  H464     1.0000 0.20930  0.70500  0.18740  Biso   1.000  H
  H465     1.0000 0.15020  0.69320  0.17870  Biso   1.000  H
  H466     1.0000 0.16810  0.75200  0.18490  Biso   1.000  H
  S145     1.0000 0.97882  0.96710  0.20436  Biso   1.000  S
  S146     1.0000 0.10688  0.95913  0.20483  Biso   1.000  S
  S147     1.0000 0.11227  0.92888  0.20352  Biso   1.000  S
  S148     1.0000 0.98930  0.91863  0.20319  Biso   1.000  S
  O145     1.0000 0.91050  0.05520  0.23410  Biso   1.000  O
  O146     1.0000 0.91060  0.99320  0.26530  Biso   1.000  O
  C425     1.0000 0.93160  0.02530  0.24940  Biso   1.000  C
  C426     1.0000 0.99072  0.02290  0.25028  Biso   1.000  C
  C427     1.0000 0.01660  0.99660  0.23022  Biso   1.000  C
  C428     1.0000 0.07100  0.99311  0.23043  Biso   1.000  C
  C429     1.0000 0.09944  0.01600  0.25070  Biso   1.000  C
  C430     1.0000 0.07350  0.95771  0.22924  Biso   1.000  C
  C431     1.0000 0.01920  0.95423  0.22945  Biso   1.000  C
  C432     1.0000 0.96540  0.02440  0.18360  Biso   1.000  C
  H467     1.0000 0.94630  0.01330  0.16790  Biso   1.000  H
  H468     1.0000 0.94420  0.04970  0.19350  Biso   1.000  H
  H469     1.0000 0.99860  0.04080  0.17840  Biso   1.000  H
  C433     1.0000 0.11730  0.01140  0.18090  Biso   1.000  C
  H470     1.0000 0.13440  0.04120  0.18950  Biso   1.000  H
  H471     1.0000 0.13970  0.99850  0.16660  Biso   1.000  H
  H472     1.0000 0.08350  0.02250  0.17370  Biso   1.000  H
  C434     1.0000 0.11030  0.98380  0.18100  Biso   1.000  C
  H473     1.0000 0.11230  0.01660  0.19090  Biso   1.000  H
  H474     1.0000 0.14000  0.98160  0.16880  Biso   1.000  H
  H475     1.0000 0.07750  0.98280  0.17100  Biso   1.000  H
  C435     1.0000 0.00150  0.85390  0.21720  Biso   1.000  C
  H476     1.0000 0.03860  0.84490  0.21510  Biso   1.000  H
  H477     1.0000 0.99270  0.85420  0.23600  Biso   1.000  H
  H478     1.0000 0.97990  0.82780  0.20820  Biso   1.000  H
  O147     1.0000 0.89350  0.10930  0.22160  Biso   1.000  O
  H479     1.0000 0.89600  0.13900  0.22900  Biso   1.000  H
  H480     1.0000 0.92200  0.11000  0.21300  Biso   1.000  H
  O148     1.0000 0.17940  0.96760  0.26472  Biso   1.000  O
  O149     1.0000 0.32530  0.04110  0.30694  Biso   1.000  O
  O150     1.0000 0.26120  0.98070  0.31050  Biso   1.000  O
  S149     1.0000 0.36471  0.95026  0.35310  Biso   1.000  S
  S150     1.0000 0.21742  0.09833  0.33337  Biso   1.000  S
  Zn29     1.0000 0.25370  0.96021  0.27389  Biso   1.000  Zn
  Zn30     1.0000 0.33832  0.05286  0.26891  Biso   1.000  Zn
  C436     1.0000 0.79250  0.51510  0.81932  Biso   1.000  C
  C437     1.0000 0.78830  0.52440  0.84850  Biso   1.000  C
  C438     1.0000 0.81860  0.49550  0.86577  Biso   1.000  C
  C439     1.0000 0.75300  0.56150  0.85728  Biso   1.000  C
  C440     1.0000 0.82590  0.39120  0.85530  Biso   1.000  C
  H481     1.0000 0.79690  0.39670  0.86760  Biso   1.000  H
  H482     1.0000 0.84800  0.36230  0.86150  Biso   1.000  H
  H483     1.0000 0.81190  0.38250  0.83790  Biso   1.000  H
  C441     1.0000 0.75930  0.65550  0.83240  Biso   1.000  C
  H484     1.0000 0.76640  0.66750  0.85030  Biso   1.000  H
  H485     1.0000 0.74180  0.68360  0.82260  Biso   1.000  H
  H486     1.0000 0.79240  0.64660  0.82370  Biso   1.000  H
  S151     1.0000 0.66169  0.34427  0.72784  Biso   1.000  S
  S152     1.0000 0.63056  0.21937  0.72475  Biso   1.000  S
  S153     1.0000 0.68549  0.33200  0.72725  Biso   1.000  S
  S154     1.0000 0.65451  0.20626  0.72385  Biso   1.000  S
  O151     1.0000 0.78920  0.38610  0.73560  Biso   1.000  O
  O152     1.0000 0.74820  0.38950  0.77451  Biso   1.000  O
  O153     1.0000 0.81290  0.37220  0.73390  Biso   1.000  O
  O154     1.0000 0.77140  0.37870  0.77220  Biso   1.000  O
  C442     1.0000 0.76530  0.36660  0.75310  Biso   1.000  C
  C443     1.0000 0.75120  0.30920  0.75162  Biso   1.000  C
  C444     1.0000 0.70410  0.29390  0.74036  Biso   1.000  C
  C445     1.0000 0.69106  0.24110  0.73907  Biso   1.000  C
  C446     1.0000 0.77480  0.29640  0.75096  Biso   1.000  C
  C447     1.0000 0.72760  0.28100  0.73970  Biso   1.000  C
  C448     1.0000 0.71458  0.22820  0.73841  Biso   1.000  C
  C449     1.0000 0.78870  0.35400  0.75228  Biso   1.000  C
  C450     1.0000 0.61930  0.35400  0.75560  Biso   1.000  C
  H487     1.0000 0.64040  0.35760  0.77160  Biso   1.000  H
  H488     1.0000 0.59580  0.32380  0.75740  Biso   1.000  H
  H489     1.0000 0.59850  0.38580  0.75300  Biso   1.000  H
  C451     1.0000 0.65100  0.22100  0.69060  Biso   1.000  C
  H490     1.0000 0.68220  0.19910  0.68840  Biso   1.000  H
  H491     1.0000 0.65910  0.25710  0.68560  Biso   1.000  H
  H492     1.0000 0.62260  0.20760  0.67950  Biso   1.000  H
  C452     1.0000 0.63670  0.33360  0.75290  Biso   1.000  C
  H493     1.0000 0.65380  0.32990  0.77010  Biso   1.000  H
  H494     1.0000 0.61780  0.36700  0.75230  Biso   1.000  H
  H495     1.0000 0.61190  0.30470  0.75040  Biso   1.000  H
  C453     1.0000 0.67260  0.21500  0.68980  Biso   1.000  C
  H496     1.0000 0.70930  0.20500  0.68740  Biso   1.000  H
  H497     1.0000 0.65020  0.19320  0.67870  Biso   1.000  H
  H498     1.0000 0.66810  0.25200  0.68490  Biso   1.000  H
  S155     1.0000 0.47882  0.46710  0.70436  Biso   1.000  S
  S156     1.0000 0.60688  0.45913  0.70483  Biso   1.000  S
  S157     1.0000 0.61227  0.42888  0.70352  Biso   1.000  S
  S158     1.0000 0.48930  0.41863  0.70319  Biso   1.000  S
  O155     1.0000 0.41050  0.55520  0.73410  Biso   1.000  O
  O156     1.0000 0.41060  0.49320  0.76530  Biso   1.000  O
  C454     1.0000 0.43160  0.52530  0.74940  Biso   1.000  C
  C455     1.0000 0.49072  0.52290  0.75028  Biso   1.000  C
  C456     1.0000 0.51660  0.49660  0.73022  Biso   1.000  C
  C457     1.0000 0.57100  0.49311  0.73043  Biso   1.000  C
  C458     1.0000 0.59944  0.51600  0.75070  Biso   1.000  C
  C459     1.0000 0.57350  0.45771  0.72924  Biso   1.000  C
  C460     1.0000 0.51920  0.45423  0.72945  Biso   1.000  C
  C461     1.0000 0.46540  0.52440  0.68360  Biso   1.000  C
  H499     1.0000 0.44630  0.51330  0.66790  Biso   1.000  H
  H500     1.0000 0.44420  0.54970  0.69350  Biso   1.000  H
  H501     1.0000 0.49860  0.54080  0.67840  Biso   1.000  H
  C462     1.0000 0.61730  0.51140  0.68090  Biso   1.000  C
  H502     1.0000 0.63440  0.54120  0.68950  Biso   1.000  H
  H503     1.0000 0.63970  0.49850  0.66660  Biso   1.000  H
  H504     1.0000 0.58350  0.52250  0.67370  Biso   1.000  H
  C463     1.0000 0.61030  0.48380  0.68100  Biso   1.000  C
  H505     1.0000 0.61230  0.51660  0.69090  Biso   1.000  H
  H506     1.0000 0.64000  0.48160  0.66880  Biso   1.000  H
  H507     1.0000 0.57750  0.48280  0.67100  Biso   1.000  H
  C464     1.0000 0.50150  0.35390  0.71720  Biso   1.000  C
  H508     1.0000 0.53860  0.34490  0.71510  Biso   1.000  H
  H509     1.0000 0.49270  0.35420  0.73600  Biso   1.000  H
  H510     1.0000 0.47990  0.32780  0.70820  Biso   1.000  H
  O157     1.0000 0.39350  0.60930  0.72160  Biso   1.000  O
  H511     1.0000 0.39600  0.63900  0.72900  Biso   1.000  H
  H512     1.0000 0.42200  0.61000  0.71300  Biso   1.000  H
  O158     1.0000 0.67940  0.46760  0.76472  Biso   1.000  O
  O159     1.0000 0.82530  0.54110  0.80694  Biso   1.000  O
  O160     1.0000 0.76120  0.48070  0.81050  Biso   1.000  O
  S159     1.0000 0.86471  0.45026  0.85310  Biso   1.000  S
  S160     1.0000 0.71742  0.59833  0.83337  Biso   1.000  S
  Zn31     1.0000 0.75370  0.46021  0.77389  Biso   1.000  Zn
  Zn32     1.0000 0.83832  0.55286  0.76891  Biso   1.000  Zn
  C465     1.0000 0.76510  0.04250  0.06932  Biso   1.000  C
  C466     1.0000 0.77440  0.03830  0.09850  Biso   1.000  C
  C467     1.0000 0.74550  0.06860  0.11577  Biso   1.000  C
  C468     1.0000 0.81150  0.00300  0.10728  Biso   1.000  C
  C469     1.0000 0.64120  0.07590  0.10530  Biso   1.000  C
  H513     1.0000 0.64670  0.04690  0.11760  Biso   1.000  H
  H514     1.0000 0.61230  0.09800  0.11150  Biso   1.000  H
  H515     1.0000 0.63250  0.06190  0.08790  Biso   1.000  H
  C470     1.0000 0.90550  0.00930  0.08240  Biso   1.000  C
  H516     1.0000 0.91750  0.01640  0.10030  Biso   1.000  H
  H517     1.0000 0.93360  0.99180  0.07260  Biso   1.000  H
  H518     1.0000 0.89660  0.04240  0.07370  Biso   1.000  H
  S161     1.0000 0.59427  0.91169  0.97784  Biso   1.000  S
  S162     1.0000 0.46937  0.88056  0.97475  Biso   1.000  S
  S163     1.0000 0.58200  0.93549  0.97725  Biso   1.000  S
  S164     1.0000 0.45626  0.90451  0.97385  Biso   1.000  S
  O161     1.0000 0.63610  0.03920  0.98560  Biso   1.000  O
  O162     1.0000 0.63950  0.99820  0.02451  Biso   1.000  O
  O163     1.0000 0.62220  0.06290  0.98390  Biso   1.000  O
  O164     1.0000 0.62870  0.02140  0.02220  Biso   1.000  O
  C471     1.0000 0.61660  0.01530  0.00310  Biso   1.000  C
  C472     1.0000 0.55920  0.00120  0.00162  Biso   1.000  C
  C473     1.0000 0.54390  0.95410  0.99036  Biso   1.000  C
  C474     1.0000 0.49110  0.94106  0.98907  Biso   1.000  C
  C475     1.0000 0.54640  0.02480  0.00096  Biso   1.000  C
  C476     1.0000 0.53100  0.97760  0.98970  Biso   1.000  C
  C477     1.0000 0.47820  0.96458  0.98841  Biso   1.000  C
  C478     1.0000 0.60400  0.03870  0.00228  Biso   1.000  C
  C479     1.0000 0.60400  0.86930  0.00560  Biso   1.000  C
  H519     1.0000 0.60760  0.89040  0.02160  Biso   1.000  H
  H520     1.0000 0.57380  0.84580  0.00740  Biso   1.000  H
  H521     1.0000 0.63580  0.84850  0.00300  Biso   1.000  H
  C480     1.0000 0.47100  0.90100  0.94060  Biso   1.000  C
  H522     1.0000 0.44910  0.93220  0.93840  Biso   1.000  H
  H523     1.0000 0.50710  0.90910  0.93560  Biso   1.000  H
  H524     1.0000 0.45760  0.87260  0.92950  Biso   1.000  H
  C481     1.0000 0.58360  0.88670  0.00290  Biso   1.000  C
  H525     1.0000 0.57990  0.90380  0.02010  Biso   1.000  H
  H526     1.0000 0.61700  0.86780  0.00230  Biso   1.000  H
  H527     1.0000 0.55470  0.86190  0.00040  Biso   1.000  H
  C482     1.0000 0.46500  0.92260  0.93980  Biso   1.000  C
  H528     1.0000 0.45500  0.95930  0.93740  Biso   1.000  H
  H529     1.0000 0.44320  0.90020  0.92870  Biso   1.000  H
  H530     1.0000 0.50200  0.91810  0.93490  Biso   1.000  H
  S165     1.0000 0.71710  0.72882  0.95436  Biso   1.000  S
  S166     1.0000 0.70913  0.85688  0.95483  Biso   1.000  S
  S167     1.0000 0.67888  0.86227  0.95352  Biso   1.000  S
  S168     1.0000 0.66863  0.73930  0.95319  Biso   1.000  S
  O165     1.0000 0.80520  0.66050  0.98410  Biso   1.000  O
  O166     1.0000 0.74320  0.66060  0.01530  Biso   1.000  O
  C483     1.0000 0.77530  0.68160  0.99940  Biso   1.000  C
  C484     1.0000 0.77290  0.74072  0.00028  Biso   1.000  C
  C485     1.0000 0.74660  0.76660  0.98022  Biso   1.000  C
  C486     1.0000 0.74311  0.82100  0.98043  Biso   1.000  C
  C487     1.0000 0.76600  0.84944  0.00070  Biso   1.000  C
  C488     1.0000 0.70771  0.82350  0.97924  Biso   1.000  C
  C489     1.0000 0.70423  0.76920  0.97945  Biso   1.000  C
  C490     1.0000 0.77440  0.71540  0.93360  Biso   1.000  C
  H531     1.0000 0.76330  0.69630  0.91790  Biso   1.000  H
  H532     1.0000 0.79970  0.69420  0.94350  Biso   1.000  H
  H533     1.0000 0.79080  0.74860  0.92840  Biso   1.000  H
  C491     1.0000 0.76140  0.86730  0.93090  Biso   1.000  C
  H534     1.0000 0.79120  0.88440  0.93950  Biso   1.000  H
  H535     1.0000 0.74850  0.88970  0.91660  Biso   1.000  H
  H536     1.0000 0.77250  0.83350  0.92370  Biso   1.000  H
  C492     1.0000 0.73380  0.86030  0.93100  Biso   1.000  C
  H537     1.0000 0.76660  0.86230  0.94090  Biso   1.000  H
  H538     1.0000 0.73160  0.89000  0.91880  Biso   1.000  H
  H539     1.0000 0.73280  0.82750  0.92100  Biso   1.000  H
  C493     1.0000 0.60390  0.75150  0.96720  Biso   1.000  C
  H540     1.0000 0.59490  0.78860  0.96510  Biso   1.000  H
  H541     1.0000 0.60420  0.74270  0.98600  Biso   1.000  H
  H542     1.0000 0.57780  0.72990  0.95820  Biso   1.000  H
  O167     1.0000 0.85930  0.64350  0.97160  Biso   1.000  O
  H543     1.0000 0.88900  0.64600  0.97900  Biso   1.000  H
  H544     1.0000 0.86000  0.67200  0.96300  Biso   1.000  H
  O168     1.0000 0.71760  0.92940  0.01472  Biso   1.000  O
  O169     1.0000 0.79110  0.07530  0.05694  Biso   1.000  O
  O170     1.0000 0.73070  0.01120  0.06050  Biso   1.000  O
  S169     1.0000 0.70026  0.11471  0.10310  Biso   1.000  S
  S170     1.0000 0.84833  0.96742  0.08337  Biso   1.000  S
  Zn33     1.0000 0.71021  0.00370  0.02389  Biso   1.000  Zn
  Zn34     1.0000 0.80286  0.08832  0.01891  Biso   1.000  Zn
  C494     1.0000 0.26510  0.54250  0.56932  Biso   1.000  C
  C495     1.0000 0.27440  0.53830  0.59850  Biso   1.000  C
  C496     1.0000 0.24550  0.56860  0.61577  Biso   1.000  C
  C497     1.0000 0.31150  0.50300  0.60728  Biso   1.000  C
  C498     1.0000 0.14120  0.57590  0.60530  Biso   1.000  C
  H545     1.0000 0.14670  0.54690  0.61760  Biso   1.000  H
  H546     1.0000 0.11230  0.59800  0.61150  Biso   1.000  H
  H547     1.0000 0.13250  0.56190  0.58790  Biso   1.000  H
  C499     1.0000 0.40550  0.50930  0.58240  Biso   1.000  C
  H548     1.0000 0.41750  0.51640  0.60030  Biso   1.000  H
  H549     1.0000 0.43360  0.49180  0.57260  Biso   1.000  H
  H550     1.0000 0.39660  0.54240  0.57370  Biso   1.000  H
  S171     1.0000 0.09427  0.41169  0.47784  Biso   1.000  S
  S172     1.0000 0.96937  0.38056  0.47475  Biso   1.000  S
  S173     1.0000 0.08200  0.43549  0.47725  Biso   1.000  S
  S174     1.0000 0.95626  0.40451  0.47385  Biso   1.000  S
  O171     1.0000 0.13610  0.53920  0.48560  Biso   1.000  O
  O172     1.0000 0.13950  0.49820  0.52451  Biso   1.000  O
  O173     1.0000 0.12220  0.56290  0.48390  Biso   1.000  O
  O174     1.0000 0.12870  0.52140  0.52220  Biso   1.000  O
  C500     1.0000 0.11660  0.51530  0.50310  Biso   1.000  C
  C501     1.0000 0.05920  0.50120  0.50162  Biso   1.000  C
  C502     1.0000 0.04390  0.45410  0.49036  Biso   1.000  C
  C503     1.0000 0.99110  0.44106  0.48907  Biso   1.000  C
  C504     1.0000 0.04640  0.52480  0.50096  Biso   1.000  C
  C505     1.0000 0.03100  0.47760  0.48970  Biso   1.000  C
  C506     1.0000 0.97820  0.46458  0.48841  Biso   1.000  C
  C507     1.0000 0.10400  0.53870  0.50228  Biso   1.000  C
  C508     1.0000 0.10400  0.36930  0.50560  Biso   1.000  C
  H551     1.0000 0.10760  0.39040  0.52160  Biso   1.000  H
  H552     1.0000 0.07380  0.34580  0.50740  Biso   1.000  H
  H553     1.0000 0.13580  0.34850  0.50300  Biso   1.000  H
  C509     1.0000 0.97100  0.40100  0.44060  Biso   1.000  C
  H554     1.0000 0.94910  0.43220  0.43840  Biso   1.000  H
  H555     1.0000 0.00710  0.40910  0.43560  Biso   1.000  H
  H556     1.0000 0.95760  0.37260  0.42950  Biso   1.000  H
  C510     1.0000 0.08360  0.38670  0.50290  Biso   1.000  C
  H557     1.0000 0.07990  0.40380  0.52010  Biso   1.000  H
  H558     1.0000 0.11700  0.36780  0.50230  Biso   1.000  H
  H559     1.0000 0.05470  0.36190  0.50040  Biso   1.000  H
  C511     1.0000 0.96500  0.42260  0.43980  Biso   1.000  C
  H560     1.0000 0.95500  0.45930  0.43740  Biso   1.000  H
  H561     1.0000 0.94320  0.40020  0.42870  Biso   1.000  H
  H562     1.0000 0.00200  0.41810  0.43490  Biso   1.000  H
  S175     1.0000 0.21710  0.22882  0.45436  Biso   1.000  S
  S176     1.0000 0.20913  0.35688  0.45483  Biso   1.000  S
  S177     1.0000 0.17888  0.36227  0.45352  Biso   1.000  S
  S178     1.0000 0.16863  0.23930  0.45319  Biso   1.000  S
  O175     1.0000 0.30520  0.16050  0.48410  Biso   1.000  O
  O176     1.0000 0.24320  0.16060  0.51530  Biso   1.000  O
  C512     1.0000 0.27530  0.18160  0.49940  Biso   1.000  C
  C513     1.0000 0.27290  0.24072  0.50028  Biso   1.000  C
  C514     1.0000 0.24660  0.26660  0.48022  Biso   1.000  C
  C515     1.0000 0.24311  0.32100  0.48043  Biso   1.000  C
  C516     1.0000 0.26600  0.34944  0.50070  Biso   1.000  C
  C517     1.0000 0.20771  0.32350  0.47924  Biso   1.000  C
  C518     1.0000 0.20423  0.26920  0.47945  Biso   1.000  C
  C519     1.0000 0.27440  0.21540  0.43360  Biso   1.000  C
  H563     1.0000 0.26330  0.19630  0.41790  Biso   1.000  H
  H564     1.0000 0.29970  0.19420  0.44350  Biso   1.000  H
  H565     1.0000 0.29080  0.24860  0.42840  Biso   1.000  H
  C520     1.0000 0.26140  0.36730  0.43090  Biso   1.000  C
  H566     1.0000 0.29120  0.38440  0.43950  Biso   1.000  H
  H567     1.0000 0.24850  0.38970  0.41660  Biso   1.000  H
  H568     1.0000 0.27250  0.33350  0.42370  Biso   1.000  H
  C521     1.0000 0.23380  0.36030  0.43100  Biso   1.000  C
  H569     1.0000 0.26660  0.36230  0.44090  Biso   1.000  H
  H570     1.0000 0.23160  0.39000  0.41880  Biso   1.000  H
  H571     1.0000 0.23280  0.32750  0.42100  Biso   1.000  H
  C522     1.0000 0.10390  0.25150  0.46720  Biso   1.000  C
  H572     1.0000 0.09490  0.28860  0.46510  Biso   1.000  H
  H573     1.0000 0.10420  0.24270  0.48600  Biso   1.000  H
  H574     1.0000 0.07780  0.22990  0.45820  Biso   1.000  H
  O177     1.0000 0.35930  0.14350  0.47160  Biso   1.000  O
  H575     1.0000 0.38900  0.14600  0.47900  Biso   1.000  H
  H576     1.0000 0.36000  0.17200  0.46300  Biso   1.000  H
  O178     1.0000 0.21760  0.42940  0.51472  Biso   1.000  O
  O179     1.0000 0.29110  0.57530  0.55694  Biso   1.000  O
  O180     1.0000 0.23070  0.51120  0.56050  Biso   1.000  O
  S179     1.0000 0.20026  0.61471  0.60310  Biso   1.000  S
  S180     1.0000 0.34833  0.46742  0.58337  Biso   1.000  S
  Zn35     1.0000 0.21021  0.50370  0.52389  Biso   1.000  Zn
  Zn36     1.0000 0.30286  0.58832  0.51891  Biso   1.000  Zn
  C523     1.0000 0.73490  0.95750  0.56932  Biso   1.000  C
  C524     1.0000 0.72560  0.96170  0.59850  Biso   1.000  C
  C525     1.0000 0.75450  0.93140  0.61577  Biso   1.000  C
  C526     1.0000 0.68850  0.99700  0.60728  Biso   1.000  C
  C527     1.0000 0.85880  0.92410  0.60530  Biso   1.000  C
  H577     1.0000 0.85330  0.95310  0.61760  Biso   1.000  H
  H578     1.0000 0.88770  0.90200  0.61150  Biso   1.000  H
  H579     1.0000 0.86750  0.93810  0.58790  Biso   1.000  H
  C528     1.0000 0.59450  0.99070  0.58240  Biso   1.000  C
  H580     1.0000 0.58250  0.98360  0.60030  Biso   1.000  H
  H581     1.0000 0.56640  0.00820  0.57260  Biso   1.000  H
  H582     1.0000 0.60340  0.95760  0.57370  Biso   1.000  H
  S181     1.0000 0.90573  0.08831  0.47784  Biso   1.000  S
  S182     1.0000 0.03063  0.11944  0.47475  Biso   1.000  S
  S183     1.0000 0.91800  0.06451  0.47725  Biso   1.000  S
  S184     1.0000 0.04374  0.09549  0.47385  Biso   1.000  S
  O181     1.0000 0.86390  0.96080  0.48560  Biso   1.000  O
  O182     1.0000 0.86050  0.00180  0.52451  Biso   1.000  O
  O183     1.0000 0.87780  0.93710  0.48390  Biso   1.000  O
  O184     1.0000 0.87130  0.97860  0.52220  Biso   1.000  O
  C529     1.0000 0.88340  0.98470  0.50310  Biso   1.000  C
  C530     1.0000 0.94080  0.99880  0.50162  Biso   1.000  C
  C531     1.0000 0.95610  0.04590  0.49036  Biso   1.000  C
  C532     1.0000 0.00890  0.05894  0.48907  Biso   1.000  C
  C533     1.0000 0.95360  0.97520  0.50096  Biso   1.000  C
  C534     1.0000 0.96900  0.02240  0.48970  Biso   1.000  C
  C535     1.0000 0.02180  0.03542  0.48841  Biso   1.000  C
  C536     1.0000 0.89600  0.96130  0.50228  Biso   1.000  C
  C537     1.0000 0.89600  0.13070  0.50560  Biso   1.000  C
  H583     1.0000 0.89240  0.10960  0.52160  Biso   1.000  H
  H584     1.0000 0.92620  0.15420  0.50740  Biso   1.000  H
  H585     1.0000 0.86420  0.15150  0.50300  Biso   1.000  H
  C538     1.0000 0.02900  0.09900  0.44060  Biso   1.000  C
  H586     1.0000 0.05090  0.06780  0.43840  Biso   1.000  H
  H587     1.0000 0.99290  0.09090  0.43560  Biso   1.000  H
  H588     1.0000 0.04240  0.12740  0.42950  Biso   1.000  H
  C539     1.0000 0.91640  0.11330  0.50290  Biso   1.000  C
  H589     1.0000 0.92010  0.09620  0.52010  Biso   1.000  H
  H590     1.0000 0.88300  0.13220  0.50230  Biso   1.000  H
  H591     1.0000 0.94530  0.13810  0.50040  Biso   1.000  H
  C540     1.0000 0.03500  0.07740  0.43980  Biso   1.000  C
  H592     1.0000 0.04500  0.04070  0.43740  Biso   1.000  H
  H593     1.0000 0.05680  0.09980  0.42870  Biso   1.000  H
  H594     1.0000 0.99800  0.08190  0.43490  Biso   1.000  H
  S185     1.0000 0.78290  0.27118  0.45436  Biso   1.000  S
  S186     1.0000 0.79087  0.14312  0.45483  Biso   1.000  S
  S187     1.0000 0.82112  0.13773  0.45352  Biso   1.000  S
  S188     1.0000 0.83137  0.26070  0.45319  Biso   1.000  S
  O185     1.0000 0.69480  0.33950  0.48410  Biso   1.000  O
  O186     1.0000 0.75680  0.33940  0.51530  Biso   1.000  O
  C541     1.0000 0.72470  0.31840  0.49940  Biso   1.000  C
  C542     1.0000 0.72710  0.25928  0.50028  Biso   1.000  C
  C543     1.0000 0.75340  0.23340  0.48022  Biso   1.000  C
  C544     1.0000 0.75689  0.17900  0.48043  Biso   1.000  C
  C545     1.0000 0.73400  0.15056  0.50070  Biso   1.000  C
  C546     1.0000 0.79229  0.17650  0.47924  Biso   1.000  C
  C547     1.0000 0.79577  0.23080  0.47945  Biso   1.000  C
  C548     1.0000 0.72560  0.28460  0.43360  Biso   1.000  C
  H595     1.0000 0.73670  0.30370  0.41790  Biso   1.000  H
  H596     1.0000 0.70030  0.30580  0.44350  Biso   1.000  H
  H597     1.0000 0.70920  0.25140  0.42840  Biso   1.000  H
  C549     1.0000 0.73860  0.13270  0.43090  Biso   1.000  C
  H598     1.0000 0.70880  0.11560  0.43950  Biso   1.000  H
  H599     1.0000 0.75150  0.11030  0.41660  Biso   1.000  H
  H600     1.0000 0.72750  0.16650  0.42370  Biso   1.000  H
  C550     1.0000 0.76620  0.13970  0.43100  Biso   1.000  C
  H601     1.0000 0.73340  0.13770  0.44090  Biso   1.000  H
  H602     1.0000 0.76840  0.11000  0.41880  Biso   1.000  H
  H603     1.0000 0.76720  0.17250  0.42100  Biso   1.000  H
  C551     1.0000 0.89610  0.24850  0.46720  Biso   1.000  C
  H604     1.0000 0.90510  0.21140  0.46510  Biso   1.000  H
  H605     1.0000 0.89580  0.25730  0.48600  Biso   1.000  H
  H606     1.0000 0.92220  0.27010  0.45820  Biso   1.000  H
  O187     1.0000 0.64070  0.35650  0.47160  Biso   1.000  O
  H607     1.0000 0.61100  0.35400  0.47900  Biso   1.000  H
  H608     1.0000 0.64000  0.32800  0.46300  Biso   1.000  H
  O188     1.0000 0.78240  0.07060  0.51472  Biso   1.000  O
  O189     1.0000 0.70890  0.92470  0.55694  Biso   1.000  O
  O190     1.0000 0.76930  0.98880  0.56050  Biso   1.000  O
  S189     1.0000 0.79974  0.88529  0.60310  Biso   1.000  S
  S190     1.0000 0.65167  0.03258  0.58337  Biso   1.000  S
  Zn37     1.0000 0.78979  0.99630  0.52389  Biso   1.000  Zn
  Zn38     1.0000 0.69714  0.91168  0.51891  Biso   1.000  Zn
  C552     1.0000 0.23490  0.45750  0.06932  Biso   1.000  C
  C553     1.0000 0.22560  0.46170  0.09850  Biso   1.000  C
  C554     1.0000 0.25450  0.43140  0.11577  Biso   1.000  C
  C555     1.0000 0.18850  0.49700  0.10728  Biso   1.000  C
  C556     1.0000 0.35880  0.42410  0.10530  Biso   1.000  C
  H609     1.0000 0.35330  0.45310  0.11760  Biso   1.000  H
  H610     1.0000 0.38770  0.40200  0.11150  Biso   1.000  H
  H611     1.0000 0.36750  0.43810  0.08790  Biso   1.000  H
  C557     1.0000 0.09450  0.49070  0.08240  Biso   1.000  C
  H612     1.0000 0.08250  0.48360  0.10030  Biso   1.000  H
  H613     1.0000 0.06640  0.50820  0.07260  Biso   1.000  H
  H614     1.0000 0.10340  0.45760  0.07370  Biso   1.000  H
  S191     1.0000 0.40573  0.58831  0.97784  Biso   1.000  S
  S192     1.0000 0.53063  0.61944  0.97475  Biso   1.000  S
  S193     1.0000 0.41800  0.56451  0.97725  Biso   1.000  S
  S194     1.0000 0.54374  0.59549  0.97385  Biso   1.000  S
  O191     1.0000 0.36390  0.46080  0.98560  Biso   1.000  O
  O192     1.0000 0.36050  0.50180  0.02451  Biso   1.000  O
  O193     1.0000 0.37780  0.43710  0.98390  Biso   1.000  O
  O194     1.0000 0.37130  0.47860  0.02220  Biso   1.000  O
  C558     1.0000 0.38340  0.48470  0.00310  Biso   1.000  C
  C559     1.0000 0.44080  0.49880  0.00162  Biso   1.000  C
  C560     1.0000 0.45610  0.54590  0.99036  Biso   1.000  C
  C561     1.0000 0.50890  0.55894  0.98907  Biso   1.000  C
  C562     1.0000 0.45360  0.47520  0.00096  Biso   1.000  C
  C563     1.0000 0.46900  0.52240  0.98970  Biso   1.000  C
  C564     1.0000 0.52180  0.53542  0.98841  Biso   1.000  C
  C565     1.0000 0.39600  0.46130  0.00228  Biso   1.000  C
  C566     1.0000 0.39600  0.63070  0.00560  Biso   1.000  C
  H615     1.0000 0.39240  0.60960  0.02160  Biso   1.000  H
  H616     1.0000 0.42620  0.65420  0.00740  Biso   1.000  H
  H617     1.0000 0.36420  0.65150  0.00300  Biso   1.000  H
  C567     1.0000 0.52900  0.59900  0.94060  Biso   1.000  C
  H618     1.0000 0.55090  0.56780  0.93840  Biso   1.000  H
  H619     1.0000 0.49290  0.59090  0.93560  Biso   1.000  H
  H620     1.0000 0.54240  0.62740  0.92950  Biso   1.000  H
  C568     1.0000 0.41640  0.61330  0.00290  Biso   1.000  C
  H621     1.0000 0.42010  0.59620  0.02010  Biso   1.000  H
  H622     1.0000 0.38300  0.63220  0.00230  Biso   1.000  H
  H623     1.0000 0.44530  0.63810  0.00040  Biso   1.000  H
  C569     1.0000 0.53500  0.57740  0.93980  Biso   1.000  C
  H624     1.0000 0.54500  0.54070  0.93740  Biso   1.000  H
  H625     1.0000 0.55680  0.59980  0.92870  Biso   1.000  H
  H626     1.0000 0.49800  0.58190  0.93490  Biso   1.000  H
  S195     1.0000 0.28290  0.77118  0.95436  Biso   1.000  S
  S196     1.0000 0.29087  0.64312  0.95483  Biso   1.000  S
  S197     1.0000 0.32112  0.63773  0.95352  Biso   1.000  S
  S198     1.0000 0.33137  0.76070  0.95319  Biso   1.000  S
  O195     1.0000 0.19480  0.83950  0.98410  Biso   1.000  O
  O196     1.0000 0.25680  0.83940  0.01530  Biso   1.000  O
  C570     1.0000 0.22470  0.81840  0.99940  Biso   1.000  C
  C571     1.0000 0.22710  0.75928  0.00028  Biso   1.000  C
  C572     1.0000 0.25340  0.73340  0.98022  Biso   1.000  C
  C573     1.0000 0.25689  0.67900  0.98043  Biso   1.000  C
  C574     1.0000 0.23400  0.65056  0.00070  Biso   1.000  C
  C575     1.0000 0.29229  0.67650  0.97924  Biso   1.000  C
  C576     1.0000 0.29577  0.73080  0.97945  Biso   1.000  C
  C577     1.0000 0.22560  0.78460  0.93360  Biso   1.000  C
  H627     1.0000 0.23670  0.80370  0.91790  Biso   1.000  H
  H628     1.0000 0.20030  0.80580  0.94350  Biso   1.000  H
  H629     1.0000 0.20920  0.75140  0.92840  Biso   1.000  H
  C578     1.0000 0.23860  0.63270  0.93090  Biso   1.000  C
  H630     1.0000 0.20880  0.61560  0.93950  Biso   1.000  H
  H631     1.0000 0.25150  0.61030  0.91660  Biso   1.000  H
  H632     1.0000 0.22750  0.66650  0.92370  Biso   1.000  H
  C579     1.0000 0.26620  0.63970  0.93100  Biso   1.000  C
  H633     1.0000 0.23340  0.63770  0.94090  Biso   1.000  H
  H634     1.0000 0.26840  0.61000  0.91880  Biso   1.000  H
  H635     1.0000 0.26720  0.67250  0.92100  Biso   1.000  H
  C580     1.0000 0.39610  0.74850  0.96720  Biso   1.000  C
  H636     1.0000 0.40510  0.71140  0.96510  Biso   1.000  H
  H637     1.0000 0.39580  0.75730  0.98600  Biso   1.000  H
  H638     1.0000 0.42220  0.77010  0.95820  Biso   1.000  H
  O197     1.0000 0.14070  0.85650  0.97160  Biso   1.000  O
  H639     1.0000 0.11100  0.85400  0.97900  Biso   1.000  H
  H640     1.0000 0.14000  0.82800  0.96300  Biso   1.000  H
  O198     1.0000 0.28240  0.57060  0.01472  Biso   1.000  O
  O199     1.0000 0.20890  0.42470  0.05694  Biso   1.000  O
  O200     1.0000 0.26930  0.48880  0.06050  Biso   1.000  O
  S199     1.0000 0.29974  0.38529  0.10310  Biso   1.000  S
  S200     1.0000 0.15167  0.53258  0.08337  Biso   1.000  S
  Zn39     1.0000 0.28979  0.49630  0.02389  Biso   1.000  Zn
  Zn40     1.0000 0.19714  0.41168  0.01891  Biso   1.000  Zn
  C581     1.0000 0.70750  0.01510  0.81932  Biso   1.000  C
  C582     1.0000 0.71170  0.02440  0.84850  Biso   1.000  C
  C583     1.0000 0.68140  0.99550  0.86577  Biso   1.000  C
  C584     1.0000 0.74700  0.06150  0.85728  Biso   1.000  C
  C585     1.0000 0.67410  0.89120  0.85530  Biso   1.000  C
  H641     1.0000 0.70310  0.89670  0.86760  Biso   1.000  H
  H642     1.0000 0.65200  0.86230  0.86150  Biso   1.000  H
  H643     1.0000 0.68810  0.88250  0.83790  Biso   1.000  H
  C586     1.0000 0.74070  0.15550  0.83240  Biso   1.000  C
  H644     1.0000 0.73360  0.16750  0.85030  Biso   1.000  H
  H645     1.0000 0.75820  0.18360  0.82260  Biso   1.000  H
  H646     1.0000 0.70760  0.14660  0.82370  Biso   1.000  H
  S201     1.0000 0.83831  0.84427  0.72784  Biso   1.000  S
  S202     1.0000 0.86944  0.71937  0.72475  Biso   1.000  S
  S203     1.0000 0.81451  0.83200  0.72725  Biso   1.000  S
  S204     1.0000 0.84549  0.70626  0.72385  Biso   1.000  S
  O201     1.0000 0.71080  0.88610  0.73560  Biso   1.000  O
  O202     1.0000 0.75180  0.88950  0.77451  Biso   1.000  O
  O203     1.0000 0.68710  0.87220  0.73390  Biso   1.000  O
  O204     1.0000 0.72860  0.87870  0.77220  Biso   1.000  O
  C587     1.0000 0.73470  0.86660  0.75310  Biso   1.000  C
  C588     1.0000 0.74880  0.80920  0.75162  Biso   1.000  C
  C589     1.0000 0.79590  0.79390  0.74036  Biso   1.000  C
  C590     1.0000 0.80894  0.74110  0.73907  Biso   1.000  C
  C591     1.0000 0.72520  0.79640  0.75096  Biso   1.000  C
  C592     1.0000 0.77240  0.78100  0.73970  Biso   1.000  C
  C593     1.0000 0.78542  0.72820  0.73841  Biso   1.000  C
  C594     1.0000 0.71130  0.85400  0.75228  Biso   1.000  C
  C595     1.0000 0.88070  0.85400  0.75560  Biso   1.000  C
  H647     1.0000 0.85960  0.85760  0.77160  Biso   1.000  H
  H648     1.0000 0.90420  0.82380  0.75740  Biso   1.000  H
  H649     1.0000 0.90150  0.88580  0.75300  Biso   1.000  H
  C596     1.0000 0.84900  0.72100  0.69060  Biso   1.000  C
  H650     1.0000 0.81780  0.69910  0.68840  Biso   1.000  H
  H651     1.0000 0.84090  0.75710  0.68560  Biso   1.000  H
  H652     1.0000 0.87740  0.70760  0.67950  Biso   1.000  H
  C597     1.0000 0.86330  0.83360  0.75290  Biso   1.000  C
  H653     1.0000 0.84620  0.82990  0.77010  Biso   1.000  H
  H654     1.0000 0.88220  0.86700  0.75230  Biso   1.000  H
  H655     1.0000 0.88810  0.80470  0.75040  Biso   1.000  H
  C598     1.0000 0.82740  0.71500  0.68980  Biso   1.000  C
  H656     1.0000 0.79070  0.70500  0.68740  Biso   1.000  H
  H657     1.0000 0.84980  0.69320  0.67870  Biso   1.000  H
  H658     1.0000 0.83190  0.75200  0.68490  Biso   1.000  H
  S205     1.0000 0.02118  0.96710  0.70436  Biso   1.000  S
  S206     1.0000 0.89312  0.95913  0.70483  Biso   1.000  S
  S207     1.0000 0.88773  0.92888  0.70352  Biso   1.000  S
  S208     1.0000 0.01070  0.91863  0.70319  Biso   1.000  S
  O205     1.0000 0.08950  0.05520  0.73410  Biso   1.000  O
  O206     1.0000 0.08940  0.99320  0.76530  Biso   1.000  O
  C599     1.0000 0.06840  0.02530  0.74940  Biso   1.000  C
  C600     1.0000 0.00928  0.02290  0.75028  Biso   1.000  C
  C601     1.0000 0.98340  0.99660  0.73022  Biso   1.000  C
  C602     1.0000 0.92900  0.99311  0.73043  Biso   1.000  C
  C603     1.0000 0.90056  0.01600  0.75070  Biso   1.000  C
  C604     1.0000 0.92650  0.95771  0.72924  Biso   1.000  C
  C605     1.0000 0.98080  0.95423  0.72945  Biso   1.000  C
  C606     1.0000 0.03460  0.02440  0.68360  Biso   1.000  C
  H659     1.0000 0.05370  0.01330  0.66790  Biso   1.000  H
  H660     1.0000 0.05580  0.04970  0.69350  Biso   1.000  H
  H661     1.0000 0.00140  0.04080  0.67840  Biso   1.000  H
  C607     1.0000 0.88270  0.01140  0.68090  Biso   1.000  C
  H662     1.0000 0.86560  0.04120  0.68950  Biso   1.000  H
  H663     1.0000 0.86030  0.99850  0.66660  Biso   1.000  H
  H664     1.0000 0.91650  0.02250  0.67370  Biso   1.000  H
  C608     1.0000 0.88970  0.98380  0.68100  Biso   1.000  C
  H665     1.0000 0.88770  0.01660  0.69090  Biso   1.000  H
  H666     1.0000 0.86000  0.98160  0.66880  Biso   1.000  H
  H667     1.0000 0.92250  0.98280  0.67100  Biso   1.000  H
  C609     1.0000 0.99850  0.85390  0.71720  Biso   1.000  C
  H668     1.0000 0.96140  0.84490  0.71510  Biso   1.000  H
  H669     1.0000 0.00730  0.85420  0.73600  Biso   1.000  H
  H670     1.0000 0.02010  0.82780  0.70820  Biso   1.000  H
  O207     1.0000 0.10650  0.10930  0.72160  Biso   1.000  O
  H671     1.0000 0.10400  0.13900  0.72900  Biso   1.000  H
  H672     1.0000 0.07800  0.11000  0.71300  Biso   1.000  H
  O208     1.0000 0.82060  0.96760  0.76472  Biso   1.000  O
  O209     1.0000 0.67470  0.04110  0.80694  Biso   1.000  O
  O210     1.0000 0.73880  0.98070  0.81050  Biso   1.000  O
  S209     1.0000 0.63529  0.95026  0.85310  Biso   1.000  S
  S210     1.0000 0.78258  0.09833  0.83337  Biso   1.000  S
  Zn41     1.0000 0.74630  0.96021  0.77389  Biso   1.000  Zn
  Zn42     1.0000 0.66168  0.05286  0.76891  Biso   1.000  Zn
  C610     1.0000 0.20750  0.51510  0.31932  Biso   1.000  C
  C611     1.0000 0.21170  0.52440  0.34850  Biso   1.000  C
  C612     1.0000 0.18140  0.49550  0.36577  Biso   1.000  C
  C613     1.0000 0.24700  0.56150  0.35728  Biso   1.000  C
  C614     1.0000 0.17410  0.39120  0.35530  Biso   1.000  C
  H673     1.0000 0.20310  0.39670  0.36760  Biso   1.000  H
  H674     1.0000 0.15200  0.36230  0.36150  Biso   1.000  H
  H675     1.0000 0.18810  0.38250  0.33790  Biso   1.000  H
  C615     1.0000 0.24070  0.65550  0.33240  Biso   1.000  C
  H676     1.0000 0.23360  0.66750  0.35030  Biso   1.000  H
  H677     1.0000 0.25820  0.68360  0.32260  Biso   1.000  H
  H678     1.0000 0.20760  0.64660  0.32370  Biso   1.000  H
  S211     1.0000 0.33831  0.34427  0.22784  Biso   1.000  S
  S212     1.0000 0.36944  0.21937  0.22475  Biso   1.000  S
  S213     1.0000 0.31451  0.33200  0.22725  Biso   1.000  S
  S214     1.0000 0.34549  0.20626  0.22385  Biso   1.000  S
  O211     1.0000 0.21080  0.38610  0.23560  Biso   1.000  O
  O212     1.0000 0.25180  0.38950  0.27451  Biso   1.000  O
  O213     1.0000 0.18710  0.37220  0.23390  Biso   1.000  O
  O214     1.0000 0.22860  0.37870  0.27220  Biso   1.000  O
  C616     1.0000 0.23470  0.36660  0.25310  Biso   1.000  C
  C617     1.0000 0.24880  0.30920  0.25162  Biso   1.000  C
  C618     1.0000 0.29590  0.29390  0.24036  Biso   1.000  C
  C619     1.0000 0.30894  0.24110  0.23907  Biso   1.000  C
  C620     1.0000 0.22520  0.29640  0.25096  Biso   1.000  C
  C621     1.0000 0.27240  0.28100  0.23970  Biso   1.000  C
  C622     1.0000 0.28542  0.22820  0.23841  Biso   1.000  C
  C623     1.0000 0.21130  0.35400  0.25228  Biso   1.000  C
  C624     1.0000 0.38070  0.35400  0.25560  Biso   1.000  C
  H679     1.0000 0.35960  0.35760  0.27160  Biso   1.000  H
  H680     1.0000 0.40420  0.32380  0.25740  Biso   1.000  H
  H681     1.0000 0.40150  0.38580  0.25300  Biso   1.000  H
  C625     1.0000 0.34900  0.22100  0.19060  Biso   1.000  C
  H682     1.0000 0.31780  0.19910  0.18840  Biso   1.000  H
  H683     1.0000 0.34090  0.25710  0.18560  Biso   1.000  H
  H684     1.0000 0.37740  0.20760  0.17950  Biso   1.000  H
  C626     1.0000 0.36330  0.33360  0.25290  Biso   1.000  C
  H685     1.0000 0.34620  0.32990  0.27010  Biso   1.000  H
  H686     1.0000 0.38220  0.36700  0.25230  Biso   1.000  H
  H687     1.0000 0.38810  0.30470  0.25040  Biso   1.000  H
  C627     1.0000 0.32740  0.21500  0.18980  Biso   1.000  C
  H688     1.0000 0.29070  0.20500  0.18740  Biso   1.000  H
  H689     1.0000 0.34980  0.19320  0.17870  Biso   1.000  H
  H690     1.0000 0.33190  0.25200  0.18490  Biso   1.000  H
  S215     1.0000 0.52118  0.46710  0.20436  Biso   1.000  S
  S216     1.0000 0.39312  0.45913  0.20483  Biso   1.000  S
  S217     1.0000 0.38773  0.42888  0.20352  Biso   1.000  S
  S218     1.0000 0.51070  0.41863  0.20319  Biso   1.000  S
  O215     1.0000 0.58950  0.55520  0.23410  Biso   1.000  O
  O216     1.0000 0.58940  0.49320  0.26530  Biso   1.000  O
  C628     1.0000 0.56840  0.52530  0.24940  Biso   1.000  C
  C629     1.0000 0.50928  0.52290  0.25028  Biso   1.000  C
  C630     1.0000 0.48340  0.49660  0.23022  Biso   1.000  C
  C631     1.0000 0.42900  0.49311  0.23043  Biso   1.000  C
  C632     1.0000 0.40056  0.51600  0.25070  Biso   1.000  C
  C633     1.0000 0.42650  0.45771  0.22924  Biso   1.000  C
  C634     1.0000 0.48080  0.45423  0.22945  Biso   1.000  C
  C635     1.0000 0.53460  0.52440  0.18360  Biso   1.000  C
  H691     1.0000 0.55370  0.51330  0.16790  Biso   1.000  H
  H692     1.0000 0.55580  0.54970  0.19350  Biso   1.000  H
  H693     1.0000 0.50140  0.54080  0.17840  Biso   1.000  H
  C636     1.0000 0.38270  0.51140  0.18090  Biso   1.000  C
  H694     1.0000 0.36560  0.54120  0.18950  Biso   1.000  H
  H695     1.0000 0.36030  0.49850  0.16660  Biso   1.000  H
  H696     1.0000 0.41650  0.52250  0.17370  Biso   1.000  H
  C637     1.0000 0.38970  0.48380  0.18100  Biso   1.000  C
  H697     1.0000 0.38770  0.51660  0.19090  Biso   1.000  H
  H698     1.0000 0.36000  0.48160  0.16880  Biso   1.000  H
  H699     1.0000 0.42250  0.48280  0.17100  Biso   1.000  H
  C638     1.0000 0.49850  0.35390  0.21720  Biso   1.000  C
  H700     1.0000 0.46140  0.34490  0.21510  Biso   1.000  H
  H701     1.0000 0.50730  0.35420  0.23600  Biso   1.000  H
  H702     1.0000 0.52010  0.32780  0.20820  Biso   1.000  H
  O217     1.0000 0.60650  0.60930  0.22160  Biso   1.000  O
  H703     1.0000 0.60400  0.63900  0.22900  Biso   1.000  H
  H704     1.0000 0.57800  0.61000  0.21300  Biso   1.000  H
  O218     1.0000 0.32060  0.46760  0.26472  Biso   1.000  O
  O219     1.0000 0.17470  0.54110  0.30694  Biso   1.000  O
  O220     1.0000 0.23880  0.48070  0.31050  Biso   1.000  O
  S219     1.0000 0.13529  0.45026  0.35310  Biso   1.000  S
  S220     1.0000 0.28258  0.59833  0.33337  Biso   1.000  S
  Zn43     1.0000 0.24630  0.46021  0.27389  Biso   1.000  Zn
  Zn44     1.0000 0.16168  0.55286  0.26891  Biso   1.000  Zn
  C639     1.0000 0.79250  0.98490  0.31932  Biso   1.000  C
  C640     1.0000 0.78830  0.97560  0.34850  Biso   1.000  C
  C641     1.0000 0.81860  0.00450  0.36577  Biso   1.000  C
  C642     1.0000 0.75300  0.93850  0.35728  Biso   1.000  C
  C643     1.0000 0.82590  0.10880  0.35530  Biso   1.000  C
  H705     1.0000 0.79690  0.10330  0.36760  Biso   1.000  H
  H706     1.0000 0.84800  0.13770  0.36150  Biso   1.000  H
  H707     1.0000 0.81190  0.11750  0.33790  Biso   1.000  H
  C644     1.0000 0.75930  0.84450  0.33240  Biso   1.000  C
  H708     1.0000 0.76640  0.83250  0.35030  Biso   1.000  H
  H709     1.0000 0.74180  0.81640  0.32260  Biso   1.000  H
  H710     1.0000 0.79240  0.85340  0.32370  Biso   1.000  H
  S221     1.0000 0.66169  0.15573  0.22784  Biso   1.000  S
  S222     1.0000 0.63056  0.28063  0.22475  Biso   1.000  S
  S223     1.0000 0.68549  0.16800  0.22725  Biso   1.000  S
  S224     1.0000 0.65451  0.29374  0.22385  Biso   1.000  S
  O221     1.0000 0.78920  0.11390  0.23560  Biso   1.000  O
  O222     1.0000 0.74820  0.11050  0.27451  Biso   1.000  O
  O223     1.0000 0.81290  0.12780  0.23390  Biso   1.000  O
  O224     1.0000 0.77140  0.12130  0.27220  Biso   1.000  O
  C645     1.0000 0.76530  0.13340  0.25310  Biso   1.000  C
  C646     1.0000 0.75120  0.19080  0.25162  Biso   1.000  C
  C647     1.0000 0.70410  0.20610  0.24036  Biso   1.000  C
  C648     1.0000 0.69106  0.25890  0.23907  Biso   1.000  C
  C649     1.0000 0.77480  0.20360  0.25096  Biso   1.000  C
  C650     1.0000 0.72760  0.21900  0.23970  Biso   1.000  C
  C651     1.0000 0.71458  0.27180  0.23841  Biso   1.000  C
  C652     1.0000 0.78870  0.14600  0.25228  Biso   1.000  C
  C653     1.0000 0.61930  0.14600  0.25560  Biso   1.000  C
  H711     1.0000 0.64040  0.14240  0.27160  Biso   1.000  H
  H712     1.0000 0.59580  0.17620  0.25740  Biso   1.000  H
  H713     1.0000 0.59850  0.11420  0.25300  Biso   1.000  H
  C654     1.0000 0.65100  0.27900  0.19060  Biso   1.000  C
  H714     1.0000 0.68220  0.30090  0.18840  Biso   1.000  H
  H715     1.0000 0.65910  0.24290  0.18560  Biso   1.000  H
  H716     1.0000 0.62260  0.29240  0.17950  Biso   1.000  H
  C655     1.0000 0.63670  0.16640  0.25290  Biso   1.000  C
  H717     1.0000 0.65380  0.17010  0.27010  Biso   1.000  H
  H718     1.0000 0.61780  0.13300  0.25230  Biso   1.000  H
  H719     1.0000 0.61190  0.19530  0.25040  Biso   1.000  H
  C656     1.0000 0.67260  0.28500  0.18980  Biso   1.000  C
  H720     1.0000 0.70930  0.29500  0.18740  Biso   1.000  H
  H721     1.0000 0.65020  0.30680  0.17870  Biso   1.000  H
  H722     1.0000 0.66810  0.24800  0.18490  Biso   1.000  H
  S225     1.0000 0.47882  0.03290  0.20436  Biso   1.000  S
  S226     1.0000 0.60688  0.04087  0.20483  Biso   1.000  S
  S227     1.0000 0.61227  0.07112  0.20352  Biso   1.000  S
  S228     1.0000 0.48930  0.08137  0.20319  Biso   1.000  S
  O225     1.0000 0.41050  0.94480  0.23410  Biso   1.000  O
  O226     1.0000 0.41060  0.00680  0.26530  Biso   1.000  O
  C657     1.0000 0.43160  0.97470  0.24940  Biso   1.000  C
  C658     1.0000 0.49072  0.97710  0.25028  Biso   1.000  C
  C659     1.0000 0.51660  0.00340  0.23022  Biso   1.000  C
  C660     1.0000 0.57100  0.00689  0.23043  Biso   1.000  C
  C661     1.0000 0.59944  0.98400  0.25070  Biso   1.000  C
  C662     1.0000 0.57350  0.04229  0.22924  Biso   1.000  C
  C663     1.0000 0.51920  0.04577  0.22945  Biso   1.000  C
  C664     1.0000 0.46540  0.97560  0.18360  Biso   1.000  C
  H723     1.0000 0.44630  0.98670  0.16790  Biso   1.000  H
  H724     1.0000 0.44420  0.95030  0.19350  Biso   1.000  H
  H725     1.0000 0.49860  0.95920  0.17840  Biso   1.000  H
  C665     1.0000 0.61730  0.98860  0.18090  Biso   1.000  C
  H726     1.0000 0.63440  0.95880  0.18950  Biso   1.000  H
  H727     1.0000 0.63970  0.00150  0.16660  Biso   1.000  H
  H728     1.0000 0.58350  0.97750  0.17370  Biso   1.000  H
  C666     1.0000 0.61030  0.01620  0.18100  Biso   1.000  C
  H729     1.0000 0.61230  0.98340  0.19090  Biso   1.000  H
  H730     1.0000 0.64000  0.01840  0.16880  Biso   1.000  H
  H731     1.0000 0.57750  0.01720  0.17100  Biso   1.000  H
  C667     1.0000 0.50150  0.14610  0.21720  Biso   1.000  C
  H732     1.0000 0.53860  0.15510  0.21510  Biso   1.000  H
  H733     1.0000 0.49270  0.14580  0.23600  Biso   1.000  H
  H734     1.0000 0.47990  0.17220  0.20820  Biso   1.000  H
  O227     1.0000 0.39350  0.89070  0.22160  Biso   1.000  O
  H735     1.0000 0.39600  0.86100  0.22900  Biso   1.000  H
  H736     1.0000 0.42200  0.89000  0.21300  Biso   1.000  H
  O228     1.0000 0.67940  0.03240  0.26472  Biso   1.000  O
  O229     1.0000 0.82530  0.95890  0.30694  Biso   1.000  O
  O230     1.0000 0.76120  0.01930  0.31050  Biso   1.000  O
  S229     1.0000 0.86471  0.04974  0.35310  Biso   1.000  S
  S230     1.0000 0.71742  0.90167  0.33337  Biso   1.000  S
  Zn45     1.0000 0.75370  0.03979  0.27389  Biso   1.000  Zn
  Zn46     1.0000 0.83832  0.94714  0.26891  Biso   1.000  Zn
  C668     1.0000 0.29250  0.48490  0.81932  Biso   1.000  C
  C669     1.0000 0.28830  0.47560  0.84850  Biso   1.000  C
  C670     1.0000 0.31860  0.50450  0.86577  Biso   1.000  C
  C671     1.0000 0.25300  0.43850  0.85728  Biso   1.000  C
  C672     1.0000 0.32590  0.60880  0.85530  Biso   1.000  C
  H737     1.0000 0.29690  0.60330  0.86760  Biso   1.000  H
  H738     1.0000 0.34800  0.63770  0.86150  Biso   1.000  H
  H739     1.0000 0.31190  0.61750  0.83790  Biso   1.000  H
  C673     1.0000 0.25930  0.34450  0.83240  Biso   1.000  C
  H740     1.0000 0.26640  0.33250  0.85030  Biso   1.000  H
  H741     1.0000 0.24180  0.31640  0.82260  Biso   1.000  H
  H742     1.0000 0.29240  0.35340  0.82370  Biso   1.000  H
  S231     1.0000 0.16169  0.65573  0.72784  Biso   1.000  S
  S232     1.0000 0.13056  0.78063  0.72475  Biso   1.000  S
  S233     1.0000 0.18549  0.66800  0.72725  Biso   1.000  S
  S234     1.0000 0.15451  0.79374  0.72385  Biso   1.000  S
  O231     1.0000 0.28920  0.61390  0.73560  Biso   1.000  O
  O232     1.0000 0.24820  0.61050  0.77451  Biso   1.000  O
  O233     1.0000 0.31290  0.62780  0.73390  Biso   1.000  O
  O234     1.0000 0.27140  0.62130  0.77220  Biso   1.000  O
  C674     1.0000 0.26530  0.63340  0.75310  Biso   1.000  C
  C675     1.0000 0.25120  0.69080  0.75162  Biso   1.000  C
  C676     1.0000 0.20410  0.70610  0.74036  Biso   1.000  C
  C677     1.0000 0.19106  0.75890  0.73907  Biso   1.000  C
  C678     1.0000 0.27480  0.70360  0.75096  Biso   1.000  C
  C679     1.0000 0.22760  0.71900  0.73970  Biso   1.000  C
  C680     1.0000 0.21458  0.77180  0.73841  Biso   1.000  C
  C681     1.0000 0.28870  0.64600  0.75228  Biso   1.000  C
  C682     1.0000 0.11930  0.64600  0.75560  Biso   1.000  C
  H743     1.0000 0.14040  0.64240  0.77160  Biso   1.000  H
  H744     1.0000 0.09580  0.67620  0.75740  Biso   1.000  H
  H745     1.0000 0.09850  0.61420  0.75300  Biso   1.000  H
  C683     1.0000 0.15100  0.77900  0.69060  Biso   1.000  C
  H746     1.0000 0.18220  0.80090  0.68840  Biso   1.000  H
  H747     1.0000 0.15910  0.74290  0.68560  Biso   1.000  H
  H748     1.0000 0.12260  0.79240  0.67950  Biso   1.000  H
  C684     1.0000 0.13670  0.66640  0.75290  Biso   1.000  C
  H749     1.0000 0.15380  0.67010  0.77010  Biso   1.000  H
  H750     1.0000 0.11780  0.63300  0.75230  Biso   1.000  H
  H751     1.0000 0.11190  0.69530  0.75040  Biso   1.000  H
  C685     1.0000 0.17260  0.78500  0.68980  Biso   1.000  C
  H752     1.0000 0.20930  0.79500  0.68740  Biso   1.000  H
  H753     1.0000 0.15020  0.80680  0.67870  Biso   1.000  H
  H754     1.0000 0.16810  0.74800  0.68490  Biso   1.000  H
  S235     1.0000 0.97882  0.53290  0.70436  Biso   1.000  S
  S236     1.0000 0.10688  0.54087  0.70483  Biso   1.000  S
  S237     1.0000 0.11227  0.57112  0.70352  Biso   1.000  S
  S238     1.0000 0.98930  0.58137  0.70319  Biso   1.000  S
  O235     1.0000 0.91050  0.44480  0.73410  Biso   1.000  O
  O236     1.0000 0.91060  0.50680  0.76530  Biso   1.000  O
  C686     1.0000 0.93160  0.47470  0.74940  Biso   1.000  C
  C687     1.0000 0.99072  0.47710  0.75028  Biso   1.000  C
  C688     1.0000 0.01660  0.50340  0.73022  Biso   1.000  C
  C689     1.0000 0.07100  0.50689  0.73043  Biso   1.000  C
  C690     1.0000 0.09944  0.48400  0.75070  Biso   1.000  C
  C691     1.0000 0.07350  0.54229  0.72924  Biso   1.000  C
  C692     1.0000 0.01920  0.54577  0.72945  Biso   1.000  C
  C693     1.0000 0.96540  0.47560  0.68360  Biso   1.000  C
  H755     1.0000 0.94630  0.48670  0.66790  Biso   1.000  H
  H756     1.0000 0.94420  0.45030  0.69350  Biso   1.000  H
  H757     1.0000 0.99860  0.45920  0.67840  Biso   1.000  H
  C694     1.0000 0.11730  0.48860  0.68090  Biso   1.000  C
  H758     1.0000 0.13440  0.45880  0.68950  Biso   1.000  H
  H759     1.0000 0.13970  0.50150  0.66660  Biso   1.000  H
  H760     1.0000 0.08350  0.47750  0.67370  Biso   1.000  H
  C695     1.0000 0.11030  0.51620  0.68100  Biso   1.000  C
  H761     1.0000 0.11230  0.48340  0.69090  Biso   1.000  H
  H762     1.0000 0.14000  0.51840  0.66880  Biso   1.000  H
  H763     1.0000 0.07750  0.51720  0.67100  Biso   1.000  H
  C696     1.0000 0.00150  0.64610  0.71720  Biso   1.000  C
  H764     1.0000 0.03860  0.65510  0.71510  Biso   1.000  H
  H765     1.0000 0.99270  0.64580  0.73600  Biso   1.000  H
  H766     1.0000 0.97990  0.67220  0.70820  Biso   1.000  H
  O237     1.0000 0.89350  0.39070  0.72160  Biso   1.000  O
  H767     1.0000 0.89600  0.36100  0.72900  Biso   1.000  H
  H768     1.0000 0.92200  0.39000  0.71300  Biso   1.000  H
  O238     1.0000 0.17940  0.53240  0.76472  Biso   1.000  O
  O239     1.0000 0.32530  0.45890  0.80694  Biso   1.000  O
  O240     1.0000 0.26120  0.51930  0.81050  Biso   1.000  O
  S239     1.0000 0.36471  0.54974  0.85310  Biso   1.000  S
  S240     1.0000 0.21742  0.40167  0.83337  Biso   1.000  S
  Zn47     1.0000 0.25370  0.53979  0.77389  Biso   1.000  Zn
  Zn48     1.0000 0.33832  0.44714  0.76891  Biso   1.000  Zn
  C697     1.0000 0.73490  0.04250  0.93068  Biso   1.000  C
  C698     1.0000 0.72560  0.03830  0.90150  Biso   1.000  C
  C699     1.0000 0.75450  0.06860  0.88423  Biso   1.000  C
  C700     1.0000 0.68850  0.00300  0.89272  Biso   1.000  C
  C701     1.0000 0.85880  0.07590  0.89470  Biso   1.000  C
  H769     1.0000 0.85330  0.04690  0.88240  Biso   1.000  H
  H770     1.0000 0.88770  0.09800  0.88850  Biso   1.000  H
  H771     1.0000 0.86750  0.06190  0.91210  Biso   1.000  H
  C702     1.0000 0.59450  0.00930  0.91760  Biso   1.000  C
  H772     1.0000 0.58250  0.01640  0.89970  Biso   1.000  H
  H773     1.0000 0.56640  0.99180  0.92740  Biso   1.000  H
  H774     1.0000 0.60340  0.04240  0.92630  Biso   1.000  H
  S241     1.0000 0.90573  0.91169  0.02216  Biso   1.000  S
  S242     1.0000 0.03063  0.88056  0.02525  Biso   1.000  S
  S243     1.0000 0.91800  0.93549  0.02275  Biso   1.000  S
  S244     1.0000 0.04374  0.90451  0.02615  Biso   1.000  S
  O241     1.0000 0.86390  0.03920  0.01440  Biso   1.000  O
  O242     1.0000 0.86050  0.99820  0.97549  Biso   1.000  O
  O243     1.0000 0.87780  0.06290  0.01610  Biso   1.000  O
  O244     1.0000 0.87130  0.02140  0.97780  Biso   1.000  O
  C703     1.0000 0.88340  0.01530  0.99690  Biso   1.000  C
  C704     1.0000 0.94080  0.00120  0.99838  Biso   1.000  C
  C705     1.0000 0.95610  0.95410  0.00964  Biso   1.000  C
  C706     1.0000 0.00890  0.94106  0.01093  Biso   1.000  C
  C707     1.0000 0.95360  0.02480  0.99904  Biso   1.000  C
  C708     1.0000 0.96900  0.97760  0.01030  Biso   1.000  C
  C709     1.0000 0.02180  0.96458  0.01159  Biso   1.000  C
  C710     1.0000 0.89600  0.03870  0.99772  Biso   1.000  C
  C711     1.0000 0.89600  0.86930  0.99440  Biso   1.000  C
  H775     1.0000 0.89240  0.89040  0.97840  Biso   1.000  H
  H776     1.0000 0.92620  0.84580  0.99260  Biso   1.000  H
  H777     1.0000 0.86420  0.84850  0.99700  Biso   1.000  H
  C712     1.0000 0.02900  0.90100  0.05940  Biso   1.000  C
  H778     1.0000 0.05090  0.93220  0.06160  Biso   1.000  H
  H779     1.0000 0.99290  0.90910  0.06440  Biso   1.000  H
  H780     1.0000 0.04240  0.87260  0.07050  Biso   1.000  H
  C713     1.0000 0.91640  0.88670  0.99710  Biso   1.000  C
  H781     1.0000 0.92010  0.90380  0.97990  Biso   1.000  H
  H782     1.0000 0.88300  0.86780  0.99770  Biso   1.000  H
  H783     1.0000 0.94530  0.86190  0.99960  Biso   1.000  H
  C714     1.0000 0.03500  0.92260  0.06020  Biso   1.000  C
  H784     1.0000 0.04500  0.95930  0.06260  Biso   1.000  H
  H785     1.0000 0.05680  0.90020  0.07130  Biso   1.000  H
  H786     1.0000 0.99800  0.91810  0.06510  Biso   1.000  H
  S245     1.0000 0.78290  0.72882  0.04564  Biso   1.000  S
  S246     1.0000 0.79087  0.85688  0.04517  Biso   1.000  S
  S247     1.0000 0.82112  0.86227  0.04648  Biso   1.000  S
  S248     1.0000 0.83137  0.73930  0.04681  Biso   1.000  S
  O245     1.0000 0.69480  0.66050  0.01590  Biso   1.000  O
  O246     1.0000 0.75680  0.66060  0.98470  Biso   1.000  O
  C715     1.0000 0.72470  0.68160  0.00060  Biso   1.000  C
  C716     1.0000 0.72710  0.74072  0.99972  Biso   1.000  C
  C717     1.0000 0.75340  0.76660  0.01978  Biso   1.000  C
  C718     1.0000 0.75689  0.82100  0.01957  Biso   1.000  C
  C719     1.0000 0.73400  0.84944  0.99930  Biso   1.000  C
  C720     1.0000 0.79229  0.82350  0.02076  Biso   1.000  C
  C721     1.0000 0.79577  0.76920  0.02055  Biso   1.000  C
  C722     1.0000 0.72560  0.71540  0.06640  Biso   1.000  C
  H787     1.0000 0.73670  0.69630  0.08210  Biso   1.000  H
  H788     1.0000 0.70030  0.69420  0.05650  Biso   1.000  H
  H789     1.0000 0.70920  0.74860  0.07160  Biso   1.000  H
  C723     1.0000 0.73860  0.86730  0.06910  Biso   1.000  C
  H790     1.0000 0.70880  0.88440  0.06050  Biso   1.000  H
  H791     1.0000 0.75150  0.88970  0.08340  Biso   1.000  H
  H792     1.0000 0.72750  0.83350  0.07630  Biso   1.000  H
  C724     1.0000 0.76620  0.86030  0.06900  Biso   1.000  C
  H793     1.0000 0.73340  0.86230  0.05910  Biso   1.000  H
  H794     1.0000 0.76840  0.89000  0.08120  Biso   1.000  H
  H795     1.0000 0.76720  0.82750  0.07900  Biso   1.000  H
  C725     1.0000 0.89610  0.75150  0.03280  Biso   1.000  C
  H796     1.0000 0.90510  0.78860  0.03490  Biso   1.000  H
  H797     1.0000 0.89580  0.74270  0.01400  Biso   1.000  H
  H798     1.0000 0.92220  0.72990  0.04180  Biso   1.000  H
  O247     1.0000 0.64070  0.64350  0.02840  Biso   1.000  O
  H799     1.0000 0.61100  0.64600  0.02100  Biso   1.000  H
  H800     1.0000 0.64000  0.67200  0.03700  Biso   1.000  H
  O248     1.0000 0.78240  0.92940  0.98528  Biso   1.000  O
  O249     1.0000 0.70890  0.07530  0.94306  Biso   1.000  O
  O250     1.0000 0.76930  0.01120  0.93950  Biso   1.000  O
  S249     1.0000 0.79974  0.11471  0.89690  Biso   1.000  S
  S250     1.0000 0.65167  0.96742  0.91663  Biso   1.000  S
  Zn49     1.0000 0.78979  0.00370  0.97611  Biso   1.000  Zn
  Zn50     1.0000 0.69714  0.08832  0.98109  Biso   1.000  Zn
  C726     1.0000 0.23490  0.54250  0.43068  Biso   1.000  C
  C727     1.0000 0.22560  0.53830  0.40150  Biso   1.000  C
  C728     1.0000 0.25450  0.56860  0.38423  Biso   1.000  C
  C729     1.0000 0.18850  0.50300  0.39272  Biso   1.000  C
  C730     1.0000 0.35880  0.57590  0.39470  Biso   1.000  C
  H801     1.0000 0.35330  0.54690  0.38240  Biso   1.000  H
  H802     1.0000 0.38770  0.59800  0.38850  Biso   1.000  H
  H803     1.0000 0.36750  0.56190  0.41210  Biso   1.000  H
  C731     1.0000 0.09450  0.50930  0.41760  Biso   1.000  C
  H804     1.0000 0.08250  0.51640  0.39970  Biso   1.000  H
  H805     1.0000 0.06640  0.49180  0.42740  Biso   1.000  H
  H806     1.0000 0.10340  0.54240  0.42630  Biso   1.000  H
  S251     1.0000 0.40573  0.41169  0.52216  Biso   1.000  S
  S252     1.0000 0.53063  0.38056  0.52525  Biso   1.000  S
  S253     1.0000 0.41800  0.43549  0.52275  Biso   1.000  S
  S254     1.0000 0.54374  0.40451  0.52615  Biso   1.000  S
  O251     1.0000 0.36390  0.53920  0.51440  Biso   1.000  O
  O252     1.0000 0.36050  0.49820  0.47549  Biso   1.000  O
  O253     1.0000 0.37780  0.56290  0.51610  Biso   1.000  O
  O254     1.0000 0.37130  0.52140  0.47780  Biso   1.000  O
  C732     1.0000 0.38340  0.51530  0.49690  Biso   1.000  C
  C733     1.0000 0.44080  0.50120  0.49838  Biso   1.000  C
  C734     1.0000 0.45610  0.45410  0.50964  Biso   1.000  C
  C735     1.0000 0.50890  0.44106  0.51093  Biso   1.000  C
  C736     1.0000 0.45360  0.52480  0.49904  Biso   1.000  C
  C737     1.0000 0.46900  0.47760  0.51030  Biso   1.000  C
  C738     1.0000 0.52180  0.46458  0.51159  Biso   1.000  C
  C739     1.0000 0.39600  0.53870  0.49772  Biso   1.000  C
  C740     1.0000 0.39600  0.36930  0.49440  Biso   1.000  C
  H807     1.0000 0.39240  0.39040  0.47840  Biso   1.000  H
  H808     1.0000 0.42620  0.34580  0.49260  Biso   1.000  H
  H809     1.0000 0.36420  0.34850  0.49700  Biso   1.000  H
  C741     1.0000 0.52900  0.40100  0.55940  Biso   1.000  C
  H810     1.0000 0.55090  0.43220  0.56160  Biso   1.000  H
  H811     1.0000 0.49290  0.40910  0.56440  Biso   1.000  H
  H812     1.0000 0.54240  0.37260  0.57050  Biso   1.000  H
  C742     1.0000 0.41640  0.38670  0.49710  Biso   1.000  C
  H813     1.0000 0.42010  0.40380  0.47990  Biso   1.000  H
  H814     1.0000 0.38300  0.36780  0.49770  Biso   1.000  H
  H815     1.0000 0.44530  0.36190  0.49960  Biso   1.000  H
  C743     1.0000 0.53500  0.42260  0.56020  Biso   1.000  C
  H816     1.0000 0.54500  0.45930  0.56260  Biso   1.000  H
  H817     1.0000 0.55680  0.40020  0.57130  Biso   1.000  H
  H818     1.0000 0.49800  0.41810  0.56510  Biso   1.000  H
  S255     1.0000 0.28290  0.22882  0.54564  Biso   1.000  S
  S256     1.0000 0.29087  0.35688  0.54517  Biso   1.000  S
  S257     1.0000 0.32112  0.36227  0.54648  Biso   1.000  S
  S258     1.0000 0.33137  0.23930  0.54681  Biso   1.000  S
  O255     1.0000 0.19480  0.16050  0.51590  Biso   1.000  O
  O256     1.0000 0.25680  0.16060  0.48470  Biso   1.000  O
  C744     1.0000 0.22470  0.18160  0.50060  Biso   1.000  C
  C745     1.0000 0.22710  0.24072  0.49972  Biso   1.000  C
  C746     1.0000 0.25340  0.26660  0.51978  Biso   1.000  C
  C747     1.0000 0.25689  0.32100  0.51957  Biso   1.000  C
  C748     1.0000 0.23400  0.34944  0.49930  Biso   1.000  C
  C749     1.0000 0.29229  0.32350  0.52076  Biso   1.000  C
  C750     1.0000 0.29577  0.26920  0.52055  Biso   1.000  C
  C751     1.0000 0.22560  0.21540  0.56640  Biso   1.000  C
  H819     1.0000 0.23670  0.19630  0.58210  Biso   1.000  H
  H820     1.0000 0.20030  0.19420  0.55650  Biso   1.000  H
  H821     1.0000 0.20920  0.24860  0.57160  Biso   1.000  H
  C752     1.0000 0.23860  0.36730  0.56910  Biso   1.000  C
  H822     1.0000 0.20880  0.38440  0.56050  Biso   1.000  H
  H823     1.0000 0.25150  0.38970  0.58340  Biso   1.000  H
  H824     1.0000 0.22750  0.33350  0.57630  Biso   1.000  H
  C753     1.0000 0.26620  0.36030  0.56900  Biso   1.000  C
  H825     1.0000 0.23340  0.36230  0.55910  Biso   1.000  H
  H826     1.0000 0.26840  0.39000  0.58120  Biso   1.000  H
  H827     1.0000 0.26720  0.32750  0.57900  Biso   1.000  H
  C754     1.0000 0.39610  0.25150  0.53280  Biso   1.000  C
  H828     1.0000 0.40510  0.28860  0.53490  Biso   1.000  H
  H829     1.0000 0.39580  0.24270  0.51400  Biso   1.000  H
  H830     1.0000 0.42220  0.22990  0.54180  Biso   1.000  H
  O257     1.0000 0.14070  0.14350  0.52840  Biso   1.000  O
  H831     1.0000 0.11100  0.14600  0.52100  Biso   1.000  H
  H832     1.0000 0.14000  0.17200  0.53700  Biso   1.000  H
  O258     1.0000 0.28240  0.42940  0.48528  Biso   1.000  O
  O259     1.0000 0.20890  0.57530  0.44306  Biso   1.000  O
  O260     1.0000 0.26930  0.51120  0.43950  Biso   1.000  O
  S259     1.0000 0.29974  0.61471  0.39690  Biso   1.000  S
  S260     1.0000 0.15167  0.46742  0.41663  Biso   1.000  S
  Zn51     1.0000 0.28979  0.50370  0.47611  Biso   1.000  Zn
  Zn52     1.0000 0.19714  0.58832  0.48109  Biso   1.000  Zn
  C755     1.0000 0.76510  0.95750  0.43068  Biso   1.000  C
  C756     1.0000 0.77440  0.96170  0.40150  Biso   1.000  C
  C757     1.0000 0.74550  0.93140  0.38423  Biso   1.000  C
  C758     1.0000 0.81150  0.99700  0.39272  Biso   1.000  C
  C759     1.0000 0.64120  0.92410  0.39470  Biso   1.000  C
  H833     1.0000 0.64670  0.95310  0.38240  Biso   1.000  H
  H834     1.0000 0.61230  0.90200  0.38850  Biso   1.000  H
  H835     1.0000 0.63250  0.93810  0.41210  Biso   1.000  H
  C760     1.0000 0.90550  0.99070  0.41760  Biso   1.000  C
  H836     1.0000 0.91750  0.98360  0.39970  Biso   1.000  H
  H837     1.0000 0.93360  0.00820  0.42740  Biso   1.000  H
  H838     1.0000 0.89660  0.95760  0.42630  Biso   1.000  H
  S261     1.0000 0.59427  0.08831  0.52216  Biso   1.000  S
  S262     1.0000 0.46937  0.11944  0.52525  Biso   1.000  S
  S263     1.0000 0.58200  0.06451  0.52275  Biso   1.000  S
  S264     1.0000 0.45626  0.09549  0.52615  Biso   1.000  S
  O261     1.0000 0.63610  0.96080  0.51440  Biso   1.000  O
  O262     1.0000 0.63950  0.00180  0.47549  Biso   1.000  O
  O263     1.0000 0.62220  0.93710  0.51610  Biso   1.000  O
  O264     1.0000 0.62870  0.97860  0.47780  Biso   1.000  O
  C761     1.0000 0.61660  0.98470  0.49690  Biso   1.000  C
  C762     1.0000 0.55920  0.99880  0.49838  Biso   1.000  C
  C763     1.0000 0.54390  0.04590  0.50964  Biso   1.000  C
  C764     1.0000 0.49110  0.05894  0.51093  Biso   1.000  C
  C765     1.0000 0.54640  0.97520  0.49904  Biso   1.000  C
  C766     1.0000 0.53100  0.02240  0.51030  Biso   1.000  C
  C767     1.0000 0.47820  0.03542  0.51159  Biso   1.000  C
  C768     1.0000 0.60400  0.96130  0.49772  Biso   1.000  C
  C769     1.0000 0.60400  0.13070  0.49440  Biso   1.000  C
  H839     1.0000 0.60760  0.10960  0.47840  Biso   1.000  H
  H840     1.0000 0.57380  0.15420  0.49260  Biso   1.000  H
  H841     1.0000 0.63580  0.15150  0.49700  Biso   1.000  H
  C770     1.0000 0.47100  0.09900  0.55940  Biso   1.000  C
  H842     1.0000 0.44910  0.06780  0.56160  Biso   1.000  H
  H843     1.0000 0.50710  0.09090  0.56440  Biso   1.000  H
  H844     1.0000 0.45760  0.12740  0.57050  Biso   1.000  H
  C771     1.0000 0.58360  0.11330  0.49710  Biso   1.000  C
  H845     1.0000 0.57990  0.09620  0.47990  Biso   1.000  H
  H846     1.0000 0.61700  0.13220  0.49770  Biso   1.000  H
  H847     1.0000 0.55470  0.13810  0.49960  Biso   1.000  H
  C772     1.0000 0.46500  0.07740  0.56020  Biso   1.000  C
  H848     1.0000 0.45500  0.04070  0.56260  Biso   1.000  H
  H849     1.0000 0.44320  0.09980  0.57130  Biso   1.000  H
  H850     1.0000 0.50200  0.08190  0.56510  Biso   1.000  H
  S265     1.0000 0.71710  0.27118  0.54564  Biso   1.000  S
  S266     1.0000 0.70913  0.14312  0.54517  Biso   1.000  S
  S267     1.0000 0.67888  0.13773  0.54648  Biso   1.000  S
  S268     1.0000 0.66863  0.26070  0.54681  Biso   1.000  S
  O265     1.0000 0.80520  0.33950  0.51590  Biso   1.000  O
  O266     1.0000 0.74320  0.33940  0.48470  Biso   1.000  O
  C773     1.0000 0.77530  0.31840  0.50060  Biso   1.000  C
  C774     1.0000 0.77290  0.25928  0.49972  Biso   1.000  C
  C775     1.0000 0.74660  0.23340  0.51978  Biso   1.000  C
  C776     1.0000 0.74311  0.17900  0.51957  Biso   1.000  C
  C777     1.0000 0.76600  0.15056  0.49930  Biso   1.000  C
  C778     1.0000 0.70771  0.17650  0.52076  Biso   1.000  C
  C779     1.0000 0.70423  0.23080  0.52055  Biso   1.000  C
  C780     1.0000 0.77440  0.28460  0.56640  Biso   1.000  C
  H851     1.0000 0.76330  0.30370  0.58210  Biso   1.000  H
  H852     1.0000 0.79970  0.30580  0.55650  Biso   1.000  H
  H853     1.0000 0.79080  0.25140  0.57160  Biso   1.000  H
  C781     1.0000 0.76140  0.13270  0.56910  Biso   1.000  C
  H854     1.0000 0.79120  0.11560  0.56050  Biso   1.000  H
  H855     1.0000 0.74850  0.11030  0.58340  Biso   1.000  H
  H856     1.0000 0.77250  0.16650  0.57630  Biso   1.000  H
  C782     1.0000 0.73380  0.13970  0.56900  Biso   1.000  C
  H857     1.0000 0.76660  0.13770  0.55910  Biso   1.000  H
  H858     1.0000 0.73160  0.11000  0.58120  Biso   1.000  H
  H859     1.0000 0.73280  0.17250  0.57900  Biso   1.000  H
  C783     1.0000 0.60390  0.24850  0.53280  Biso   1.000  C
  H860     1.0000 0.59490  0.21140  0.53490  Biso   1.000  H
  H861     1.0000 0.60420  0.25730  0.51400  Biso   1.000  H
  H862     1.0000 0.57780  0.27010  0.54180  Biso   1.000  H
  O267     1.0000 0.85930  0.35650  0.52840  Biso   1.000  O
  H863     1.0000 0.88900  0.35400  0.52100  Biso   1.000  H
  H864     1.0000 0.86000  0.32800  0.53700  Biso   1.000  H
  O268     1.0000 0.71760  0.07060  0.48528  Biso   1.000  O
  O269     1.0000 0.79110  0.92470  0.44306  Biso   1.000  O
  O270     1.0000 0.73070  0.98880  0.43950  Biso   1.000  O
  S269     1.0000 0.70026  0.88529  0.39690  Biso   1.000  S
  S270     1.0000 0.84833  0.03258  0.41663  Biso   1.000  S
  Zn53     1.0000 0.71021  0.99630  0.47611  Biso   1.000  Zn
  Zn54     1.0000 0.80286  0.91168  0.48109  Biso   1.000  Zn
  C784     1.0000 0.26510  0.45750  0.93068  Biso   1.000  C
  C785     1.0000 0.27440  0.46170  0.90150  Biso   1.000  C
  C786     1.0000 0.24550  0.43140  0.88423  Biso   1.000  C
  C787     1.0000 0.31150  0.49700  0.89272  Biso   1.000  C
  C788     1.0000 0.14120  0.42410  0.89470  Biso   1.000  C
  H865     1.0000 0.14670  0.45310  0.88240  Biso   1.000  H
  H866     1.0000 0.11230  0.40200  0.88850  Biso   1.000  H
  H867     1.0000 0.13250  0.43810  0.91210  Biso   1.000  H
  C789     1.0000 0.40550  0.49070  0.91760  Biso   1.000  C
  H868     1.0000 0.41750  0.48360  0.89970  Biso   1.000  H
  H869     1.0000 0.43360  0.50820  0.92740  Biso   1.000  H
  H870     1.0000 0.39660  0.45760  0.92630  Biso   1.000  H
  S271     1.0000 0.09427  0.58831  0.02216  Biso   1.000  S
  S272     1.0000 0.96937  0.61944  0.02525  Biso   1.000  S
  S273     1.0000 0.08200  0.56451  0.02275  Biso   1.000  S
  S274     1.0000 0.95626  0.59549  0.02615  Biso   1.000  S
  O271     1.0000 0.13610  0.46080  0.01440  Biso   1.000  O
  O272     1.0000 0.13950  0.50180  0.97549  Biso   1.000  O
  O273     1.0000 0.12220  0.43710  0.01610  Biso   1.000  O
  O274     1.0000 0.12870  0.47860  0.97780  Biso   1.000  O
  C790     1.0000 0.11660  0.48470  0.99690  Biso   1.000  C
  C791     1.0000 0.05920  0.49880  0.99838  Biso   1.000  C
  C792     1.0000 0.04390  0.54590  0.00964  Biso   1.000  C
  C793     1.0000 0.99110  0.55894  0.01093  Biso   1.000  C
  C794     1.0000 0.04640  0.47520  0.99904  Biso   1.000  C
  C795     1.0000 0.03100  0.52240  0.01030  Biso   1.000  C
  C796     1.0000 0.97820  0.53542  0.01159  Biso   1.000  C
  C797     1.0000 0.10400  0.46130  0.99772  Biso   1.000  C
  C798     1.0000 0.10400  0.63070  0.99440  Biso   1.000  C
  H871     1.0000 0.10760  0.60960  0.97840  Biso   1.000  H
  H872     1.0000 0.07380  0.65420  0.99260  Biso   1.000  H
  H873     1.0000 0.13580  0.65150  0.99700  Biso   1.000  H
  C799     1.0000 0.97100  0.59900  0.05940  Biso   1.000  C
  H874     1.0000 0.94910  0.56780  0.06160  Biso   1.000  H
  H875     1.0000 0.00710  0.59090  0.06440  Biso   1.000  H
  H876     1.0000 0.95760  0.62740  0.07050  Biso   1.000  H
  C800     1.0000 0.08360  0.61330  0.99710  Biso   1.000  C
  H877     1.0000 0.07990  0.59620  0.97990  Biso   1.000  H
  H878     1.0000 0.11700  0.63220  0.99770  Biso   1.000  H
  H879     1.0000 0.05470  0.63810  0.99960  Biso   1.000  H
  C801     1.0000 0.96500  0.57740  0.06020  Biso   1.000  C
  H880     1.0000 0.95500  0.54070  0.06260  Biso   1.000  H
  H881     1.0000 0.94320  0.59980  0.07130  Biso   1.000  H
  H882     1.0000 0.00200  0.58190  0.06510  Biso   1.000  H
  S275     1.0000 0.21710  0.77118  0.04564  Biso   1.000  S
  S276     1.0000 0.20913  0.64312  0.04517  Biso   1.000  S
  S277     1.0000 0.17888  0.63773  0.04648  Biso   1.000  S
  S278     1.0000 0.16863  0.76070  0.04681  Biso   1.000  S
  O275     1.0000 0.30520  0.83950  0.01590  Biso   1.000  O
  O276     1.0000 0.24320  0.83940  0.98470  Biso   1.000  O
  C802     1.0000 0.27530  0.81840  0.00060  Biso   1.000  C
  C803     1.0000 0.27290  0.75928  0.99972  Biso   1.000  C
  C804     1.0000 0.24660  0.73340  0.01978  Biso   1.000  C
  C805     1.0000 0.24311  0.67900  0.01957  Biso   1.000  C
  C806     1.0000 0.26600  0.65056  0.99930  Biso   1.000  C
  C807     1.0000 0.20771  0.67650  0.02076  Biso   1.000  C
  C808     1.0000 0.20423  0.73080  0.02055  Biso   1.000  C
  C809     1.0000 0.27440  0.78460  0.06640  Biso   1.000  C
  H883     1.0000 0.26330  0.80370  0.08210  Biso   1.000  H
  H884     1.0000 0.29970  0.80580  0.05650  Biso   1.000  H
  H885     1.0000 0.29080  0.75140  0.07160  Biso   1.000  H
  C810     1.0000 0.26140  0.63270  0.06910  Biso   1.000  C
  H886     1.0000 0.29120  0.61560  0.06050  Biso   1.000  H
  H887     1.0000 0.24850  0.61030  0.08340  Biso   1.000  H
  H888     1.0000 0.27250  0.66650  0.07630  Biso   1.000  H
  C811     1.0000 0.23380  0.63970  0.06900  Biso   1.000  C
  H889     1.0000 0.26660  0.63770  0.05910  Biso   1.000  H
  H890     1.0000 0.23160  0.61000  0.08120  Biso   1.000  H
  H891     1.0000 0.23280  0.67250  0.07900  Biso   1.000  H
  C812     1.0000 0.10390  0.74850  0.03280  Biso   1.000  C
  H892     1.0000 0.09490  0.71140  0.03490  Biso   1.000  H
  H893     1.0000 0.10420  0.75730  0.01400  Biso   1.000  H
  H894     1.0000 0.07780  0.77010  0.04180  Biso   1.000  H
  O277     1.0000 0.35930  0.85650  0.02840  Biso   1.000  O
  H895     1.0000 0.38900  0.85400  0.02100  Biso   1.000  H
  H896     1.0000 0.36000  0.82800  0.03700  Biso   1.000  H
  O278     1.0000 0.21760  0.57060  0.98528  Biso   1.000  O
  O279     1.0000 0.29110  0.42470  0.94306  Biso   1.000  O
  O280     1.0000 0.23070  0.48880  0.93950  Biso   1.000  O
  S279     1.0000 0.20026  0.38529  0.89690  Biso   1.000  S
  S280     1.0000 0.34833  0.53258  0.91663  Biso   1.000  S
  Zn55     1.0000 0.21021  0.49630  0.97611  Biso   1.000  Zn
  Zn56     1.0000 0.30286  0.41168  0.98109  Biso   1.000  Zn
  C813     1.0000 0.79250  0.01510  0.18068  Biso   1.000  C
  C814     1.0000 0.78830  0.02440  0.15150  Biso   1.000  C
  C815     1.0000 0.81860  0.99550  0.13423  Biso   1.000  C
  C816     1.0000 0.75300  0.06150  0.14272  Biso   1.000  C
  C817     1.0000 0.82590  0.89120  0.14470  Biso   1.000  C
  H897     1.0000 0.79690  0.89670  0.13240  Biso   1.000  H
  H898     1.0000 0.84800  0.86230  0.13850  Biso   1.000  H
  H899     1.0000 0.81190  0.88250  0.16210  Biso   1.000  H
  C818     1.0000 0.75930  0.15550  0.16760  Biso   1.000  C
  H900     1.0000 0.76640  0.16750  0.14970  Biso   1.000  H
  H901     1.0000 0.74180  0.18360  0.17740  Biso   1.000  H
  H902     1.0000 0.79240  0.14660  0.17630  Biso   1.000  H
  S281     1.0000 0.66169  0.84427  0.27216  Biso   1.000  S
  S282     1.0000 0.63056  0.71937  0.27525  Biso   1.000  S
  S283     1.0000 0.68549  0.83200  0.27275  Biso   1.000  S
  S284     1.0000 0.65451  0.70626  0.27615  Biso   1.000  S
  O281     1.0000 0.78920  0.88610  0.26440  Biso   1.000  O
  O282     1.0000 0.74820  0.88950  0.22549  Biso   1.000  O
  O283     1.0000 0.81290  0.87220  0.26610  Biso   1.000  O
  O284     1.0000 0.77140  0.87870  0.22780  Biso   1.000  O
  C819     1.0000 0.76530  0.86660  0.24690  Biso   1.000  C
  C820     1.0000 0.75120  0.80920  0.24838  Biso   1.000  C
  C821     1.0000 0.70410  0.79390  0.25964  Biso   1.000  C
  C822     1.0000 0.69106  0.74110  0.26093  Biso   1.000  C
  C823     1.0000 0.77480  0.79640  0.24904  Biso   1.000  C
  C824     1.0000 0.72760  0.78100  0.26030  Biso   1.000  C
  C825     1.0000 0.71458  0.72820  0.26159  Biso   1.000  C
  C826     1.0000 0.78870  0.85400  0.24772  Biso   1.000  C
  C827     1.0000 0.61930  0.85400  0.24440  Biso   1.000  C
  H903     1.0000 0.64040  0.85760  0.22840  Biso   1.000  H
  H904     1.0000 0.59580  0.82380  0.24260  Biso   1.000  H
  H905     1.0000 0.59850  0.88580  0.24700  Biso   1.000  H
  C828     1.0000 0.65100  0.72100  0.30940  Biso   1.000  C
  H906     1.0000 0.68220  0.69910  0.31160  Biso   1.000  H
  H907     1.0000 0.65910  0.75710  0.31440  Biso   1.000  H
  H908     1.0000 0.62260  0.70760  0.32050  Biso   1.000  H
  C829     1.0000 0.63670  0.83360  0.24710  Biso   1.000  C
  H909     1.0000 0.65380  0.82990  0.22990  Biso   1.000  H
  H910     1.0000 0.61780  0.86700  0.24770  Biso   1.000  H
  H911     1.0000 0.61190  0.80470  0.24960  Biso   1.000  H
  C830     1.0000 0.67260  0.71500  0.31020  Biso   1.000  C
  H912     1.0000 0.70930  0.70500  0.31260  Biso   1.000  H
  H913     1.0000 0.65020  0.69320  0.32130  Biso   1.000  H
  H914     1.0000 0.66810  0.75200  0.31510  Biso   1.000  H
  S285     1.0000 0.47882  0.96710  0.29564  Biso   1.000  S
  S286     1.0000 0.60688  0.95913  0.29517  Biso   1.000  S
  S287     1.0000 0.61227  0.92888  0.29648  Biso   1.000  S
  S288     1.0000 0.48930  0.91863  0.29681  Biso   1.000  S
  O285     1.0000 0.41050  0.05520  0.26590  Biso   1.000  O
  O286     1.0000 0.41060  0.99320  0.23470  Biso   1.000  O
  C831     1.0000 0.43160  0.02530  0.25060  Biso   1.000  C
  C832     1.0000 0.49072  0.02290  0.24972  Biso   1.000  C
  C833     1.0000 0.51660  0.99660  0.26978  Biso   1.000  C
  C834     1.0000 0.57100  0.99311  0.26957  Biso   1.000  C
  C835     1.0000 0.59944  0.01600  0.24930  Biso   1.000  C
  C836     1.0000 0.57350  0.95771  0.27076  Biso   1.000  C
  C837     1.0000 0.51920  0.95423  0.27055  Biso   1.000  C
  C838     1.0000 0.46540  0.02440  0.31640  Biso   1.000  C
  H915     1.0000 0.44630  0.01330  0.33210  Biso   1.000  H
  H916     1.0000 0.44420  0.04970  0.30650  Biso   1.000  H
  H917     1.0000 0.49860  0.04080  0.32160  Biso   1.000  H
  C839     1.0000 0.61730  0.01140  0.31910  Biso   1.000  C
  H918     1.0000 0.63440  0.04120  0.31050  Biso   1.000  H
  H919     1.0000 0.63970  0.99850  0.33340  Biso   1.000  H
  H920     1.0000 0.58350  0.02250  0.32630  Biso   1.000  H
  C840     1.0000 0.61030  0.98380  0.31900  Biso   1.000  C
  H921     1.0000 0.61230  0.01660  0.30910  Biso   1.000  H
  H922     1.0000 0.64000  0.98160  0.33120  Biso   1.000  H
  H923     1.0000 0.57750  0.98280  0.32900  Biso   1.000  H
  C841     1.0000 0.50150  0.85390  0.28280  Biso   1.000  C
  H924     1.0000 0.53860  0.84490  0.28490  Biso   1.000  H
  H925     1.0000 0.49270  0.85420  0.26400  Biso   1.000  H
  H926     1.0000 0.47990  0.82780  0.29180  Biso   1.000  H
  O287     1.0000 0.39350  0.10930  0.27840  Biso   1.000  O
  H927     1.0000 0.39600  0.13900  0.27100  Biso   1.000  H
  H928     1.0000 0.42200  0.11000  0.28700  Biso   1.000  H
  O288     1.0000 0.67940  0.96760  0.23528  Biso   1.000  O
  O289     1.0000 0.82530  0.04110  0.19306  Biso   1.000  O
  O290     1.0000 0.76120  0.98070  0.18950  Biso   1.000  O
  S289     1.0000 0.86471  0.95026  0.14690  Biso   1.000  S
  S290     1.0000 0.71742  0.09833  0.16663  Biso   1.000  S
  Zn57     1.0000 0.75370  0.96021  0.22611  Biso   1.000  Zn
  Zn58     1.0000 0.83832  0.05286  0.23109  Biso   1.000  Zn
  C842     1.0000 0.29250  0.51510  0.68068  Biso   1.000  C
  C843     1.0000 0.28830  0.52440  0.65150  Biso   1.000  C
  C844     1.0000 0.31860  0.49550  0.63423  Biso   1.000  C
  C845     1.0000 0.25300  0.56150  0.64272  Biso   1.000  C
  C846     1.0000 0.32590  0.39120  0.64470  Biso   1.000  C
  H929     1.0000 0.29690  0.39670  0.63240  Biso   1.000  H
  H930     1.0000 0.34800  0.36230  0.63850  Biso   1.000  H
  H931     1.0000 0.31190  0.38250  0.66210  Biso   1.000  H
  C847     1.0000 0.25930  0.65550  0.66760  Biso   1.000  C
  H932     1.0000 0.26640  0.66750  0.64970  Biso   1.000  H
  H933     1.0000 0.24180  0.68360  0.67740  Biso   1.000  H
  H934     1.0000 0.29240  0.64660  0.67630  Biso   1.000  H
  S291     1.0000 0.16169  0.34427  0.77216  Biso   1.000  S
  S292     1.0000 0.13056  0.21937  0.77525  Biso   1.000  S
  S293     1.0000 0.18549  0.33200  0.77275  Biso   1.000  S
  S294     1.0000 0.15451  0.20626  0.77615  Biso   1.000  S
  O291     1.0000 0.28920  0.38610  0.76440  Biso   1.000  O
  O292     1.0000 0.24820  0.38950  0.72549  Biso   1.000  O
  O293     1.0000 0.31290  0.37220  0.76610  Biso   1.000  O
  O294     1.0000 0.27140  0.37870  0.72780  Biso   1.000  O
  C848     1.0000 0.26530  0.36660  0.74690  Biso   1.000  C
  C849     1.0000 0.25120  0.30920  0.74838  Biso   1.000  C
  C850     1.0000 0.20410  0.29390  0.75964  Biso   1.000  C
  C851     1.0000 0.19106  0.24110  0.76093  Biso   1.000  C
  C852     1.0000 0.27480  0.29640  0.74904  Biso   1.000  C
  C853     1.0000 0.22760  0.28100  0.76030  Biso   1.000  C
  C854     1.0000 0.21458  0.22820  0.76159  Biso   1.000  C
  C855     1.0000 0.28870  0.35400  0.74772  Biso   1.000  C
  C856     1.0000 0.11930  0.35400  0.74440  Biso   1.000  C
  H935     1.0000 0.14040  0.35760  0.72840  Biso   1.000  H
  H936     1.0000 0.09580  0.32380  0.74260  Biso   1.000  H
  H937     1.0000 0.09850  0.38580  0.74700  Biso   1.000  H
  C857     1.0000 0.15100  0.22100  0.80940  Biso   1.000  C
  H938     1.0000 0.18220  0.19910  0.81160  Biso   1.000  H
  H939     1.0000 0.15910  0.25710  0.81440  Biso   1.000  H
  H940     1.0000 0.12260  0.20760  0.82050  Biso   1.000  H
  C858     1.0000 0.13670  0.33360  0.74710  Biso   1.000  C
  H941     1.0000 0.15380  0.32990  0.72990  Biso   1.000  H
  H942     1.0000 0.11780  0.36700  0.74770  Biso   1.000  H
  H943     1.0000 0.11190  0.30470  0.74960  Biso   1.000  H
  C859     1.0000 0.17260  0.21500  0.81020  Biso   1.000  C
  H944     1.0000 0.20930  0.20500  0.81260  Biso   1.000  H
  H945     1.0000 0.15020  0.19320  0.82130  Biso   1.000  H
  H946     1.0000 0.16810  0.25200  0.81510  Biso   1.000  H
  S295     1.0000 0.97882  0.46710  0.79564  Biso   1.000  S
  S296     1.0000 0.10688  0.45913  0.79517  Biso   1.000  S
  S297     1.0000 0.11227  0.42888  0.79648  Biso   1.000  S
  S298     1.0000 0.98930  0.41863  0.79681  Biso   1.000  S
  O295     1.0000 0.91050  0.55520  0.76590  Biso   1.000  O
  O296     1.0000 0.91060  0.49320  0.73470  Biso   1.000  O
  C860     1.0000 0.93160  0.52530  0.75060  Biso   1.000  C
  C861     1.0000 0.99072  0.52290  0.74972  Biso   1.000  C
  C862     1.0000 0.01660  0.49660  0.76978  Biso   1.000  C
  C863     1.0000 0.07100  0.49311  0.76957  Biso   1.000  C
  C864     1.0000 0.09944  0.51600  0.74930  Biso   1.000  C
  C865     1.0000 0.07350  0.45771  0.77076  Biso   1.000  C
  C866     1.0000 0.01920  0.45423  0.77055  Biso   1.000  C
  C867     1.0000 0.96540  0.52440  0.81640  Biso   1.000  C
  H947     1.0000 0.94630  0.51330  0.83210  Biso   1.000  H
  H948     1.0000 0.94420  0.54970  0.80650  Biso   1.000  H
  H949     1.0000 0.99860  0.54080  0.82160  Biso   1.000  H
  C868     1.0000 0.11730  0.51140  0.81910  Biso   1.000  C
  H950     1.0000 0.13440  0.54120  0.81050  Biso   1.000  H
  H951     1.0000 0.13970  0.49850  0.83340  Biso   1.000  H
  H952     1.0000 0.08350  0.52250  0.82630  Biso   1.000  H
  C869     1.0000 0.11030  0.48380  0.81900  Biso   1.000  C
  H953     1.0000 0.11230  0.51660  0.80910  Biso   1.000  H
  H954     1.0000 0.14000  0.48160  0.83120  Biso   1.000  H
  H955     1.0000 0.07750  0.48280  0.82900  Biso   1.000  H
  C870     1.0000 0.00150  0.35390  0.78280  Biso   1.000  C
  H956     1.0000 0.03860  0.34490  0.78490  Biso   1.000  H
  H957     1.0000 0.99270  0.35420  0.76400  Biso   1.000  H
  H958     1.0000 0.97990  0.32780  0.79180  Biso   1.000  H
  O297     1.0000 0.89350  0.60930  0.77840  Biso   1.000  O
  H959     1.0000 0.89600  0.63900  0.77100  Biso   1.000  H
  H960     1.0000 0.92200  0.61000  0.78700  Biso   1.000  H
  O298     1.0000 0.17940  0.46760  0.73528  Biso   1.000  O
  O299     1.0000 0.32530  0.54110  0.69306  Biso   1.000  O
  O300     1.0000 0.26120  0.48070  0.68950  Biso   1.000  O
  S299     1.0000 0.36471  0.45026  0.64690  Biso   1.000  S
  S300     1.0000 0.21742  0.59833  0.66663  Biso   1.000  S
  Zn59     1.0000 0.25370  0.46021  0.72611  Biso   1.000  Zn
  Zn60     1.0000 0.33832  0.55286  0.73109  Biso   1.000  Zn
  C871     1.0000 0.70750  0.98490  0.68068  Biso   1.000  C
  C872     1.0000 0.71170  0.97560  0.65150  Biso   1.000  C
  C873     1.0000 0.68140  0.00450  0.63423  Biso   1.000  C
  C874     1.0000 0.74700  0.93850  0.64272  Biso   1.000  C
  C875     1.0000 0.67410  0.10880  0.64470  Biso   1.000  C
  H961     1.0000 0.70310  0.10330  0.63240  Biso   1.000  H
  H962     1.0000 0.65200  0.13770  0.63850  Biso   1.000  H
  H963     1.0000 0.68810  0.11750  0.66210  Biso   1.000  H
  C876     1.0000 0.74070  0.84450  0.66760  Biso   1.000  C
  H964     1.0000 0.73360  0.83250  0.64970  Biso   1.000  H
  H965     1.0000 0.75820  0.81640  0.67740  Biso   1.000  H
  H966     1.0000 0.70760  0.85340  0.67630  Biso   1.000  H
  S301     1.0000 0.83831  0.15573  0.77216  Biso   1.000  S
  S302     1.0000 0.86944  0.28063  0.77525  Biso   1.000  S
  S303     1.0000 0.81451  0.16800  0.77275  Biso   1.000  S
  S304     1.0000 0.84549  0.29374  0.77615  Biso   1.000  S
  O301     1.0000 0.71080  0.11390  0.76440  Biso   1.000  O
  O302     1.0000 0.75180  0.11050  0.72549  Biso   1.000  O
  O303     1.0000 0.68710  0.12780  0.76610  Biso   1.000  O
  O304     1.0000 0.72860  0.12130  0.72780  Biso   1.000  O
  C877     1.0000 0.73470  0.13340  0.74690  Biso   1.000  C
  C878     1.0000 0.74880  0.19080  0.74838  Biso   1.000  C
  C879     1.0000 0.79590  0.20610  0.75964  Biso   1.000  C
  C880     1.0000 0.80894  0.25890  0.76093  Biso   1.000  C
  C881     1.0000 0.72520  0.20360  0.74904  Biso   1.000  C
  C882     1.0000 0.77240  0.21900  0.76030  Biso   1.000  C
  C883     1.0000 0.78542  0.27180  0.76159  Biso   1.000  C
  C884     1.0000 0.71130  0.14600  0.74772  Biso   1.000  C
  C885     1.0000 0.88070  0.14600  0.74440  Biso   1.000  C
  H967     1.0000 0.85960  0.14240  0.72840  Biso   1.000  H
  H968     1.0000 0.90420  0.17620  0.74260  Biso   1.000  H
  H969     1.0000 0.90150  0.11420  0.74700  Biso   1.000  H
  C886     1.0000 0.84900  0.27900  0.80940  Biso   1.000  C
  H970     1.0000 0.81780  0.30090  0.81160  Biso   1.000  H
  H971     1.0000 0.84090  0.24290  0.81440  Biso   1.000  H
  H972     1.0000 0.87740  0.29240  0.82050  Biso   1.000  H
  C887     1.0000 0.86330  0.16640  0.74710  Biso   1.000  C
  H973     1.0000 0.84620  0.17010  0.72990  Biso   1.000  H
  H974     1.0000 0.88220  0.13300  0.74770  Biso   1.000  H
  H975     1.0000 0.88810  0.19530  0.74960  Biso   1.000  H
  C888     1.0000 0.82740  0.28500  0.81020  Biso   1.000  C
  H976     1.0000 0.79070  0.29500  0.81260  Biso   1.000  H
  H977     1.0000 0.84980  0.30680  0.82130  Biso   1.000  H
  H978     1.0000 0.83190  0.24800  0.81510  Biso   1.000  H
  S305     1.0000 0.02118  0.03290  0.79564  Biso   1.000  S
  S306     1.0000 0.89312  0.04087  0.79517  Biso   1.000  S
  S307     1.0000 0.88773  0.07112  0.79648  Biso   1.000  S
  S308     1.0000 0.01070  0.08137  0.79681  Biso   1.000  S
  O305     1.0000 0.08950  0.94480  0.76590  Biso   1.000  O
  O306     1.0000 0.08940  0.00680  0.73470  Biso   1.000  O
  C889     1.0000 0.06840  0.97470  0.75060  Biso   1.000  C
  C890     1.0000 0.00928  0.97710  0.74972  Biso   1.000  C
  C891     1.0000 0.98340  0.00340  0.76978  Biso   1.000  C
  C892     1.0000 0.92900  0.00689  0.76957  Biso   1.000  C
  C893     1.0000 0.90056  0.98400  0.74930  Biso   1.000  C
  C894     1.0000 0.92650  0.04229  0.77076  Biso   1.000  C
  C895     1.0000 0.98080  0.04577  0.77055  Biso   1.000  C
  C896     1.0000 0.03460  0.97560  0.81640  Biso   1.000  C
  H979     1.0000 0.05370  0.98670  0.83210  Biso   1.000  H
  H980     1.0000 0.05580  0.95030  0.80650  Biso   1.000  H
  H981     1.0000 0.00140  0.95920  0.82160  Biso   1.000  H
  C897     1.0000 0.88270  0.98860  0.81910  Biso   1.000  C
  H982     1.0000 0.86560  0.95880  0.81050  Biso   1.000  H
  H983     1.0000 0.86030  0.00150  0.83340  Biso   1.000  H
  H984     1.0000 0.91650  0.97750  0.82630  Biso   1.000  H
  C898     1.0000 0.88970  0.01620  0.81900  Biso   1.000  C
  H985     1.0000 0.88770  0.98340  0.80910  Biso   1.000  H
  H986     1.0000 0.86000  0.01840  0.83120  Biso   1.000  H
  H987     1.0000 0.92250  0.01720  0.82900  Biso   1.000  H
  C899     1.0000 0.99850  0.14610  0.78280  Biso   1.000  C
  H988     1.0000 0.96140  0.15510  0.78490  Biso   1.000  H
  H989     1.0000 0.00730  0.14580  0.76400  Biso   1.000  H
  H990     1.0000 0.02010  0.17220  0.79180  Biso   1.000  H
  O307     1.0000 0.10650  0.89070  0.77840  Biso   1.000  O
  H991     1.0000 0.10400  0.86100  0.77100  Biso   1.000  H
  H992     1.0000 0.07800  0.89000  0.78700  Biso   1.000  H
  O308     1.0000 0.82060  0.03240  0.73528  Biso   1.000  O
  O309     1.0000 0.67470  0.95890  0.69306  Biso   1.000  O
  O310     1.0000 0.73880  0.01930  0.68950  Biso   1.000  O
  S309     1.0000 0.63529  0.04974  0.64690  Biso   1.000  S
  S310     1.0000 0.78258  0.90167  0.66663  Biso   1.000  S
  Zn61     1.0000 0.74630  0.03979  0.72611  Biso   1.000  Zn
  Zn62     1.0000 0.66168  0.94714  0.73109  Biso   1.000  Zn
  C900     1.0000 0.20750  0.48490  0.18068  Biso   1.000  C
  C901     1.0000 0.21170  0.47560  0.15150  Biso   1.000  C
  C902     1.0000 0.18140  0.50450  0.13423  Biso   1.000  C
  C903     1.0000 0.24700  0.43850  0.14272  Biso   1.000  C
  C904     1.0000 0.17410  0.60880  0.14470  Biso   1.000  C
  H993     1.0000 0.20310  0.60330  0.13240  Biso   1.000  H
  H994     1.0000 0.15200  0.63770  0.13850  Biso   1.000  H
  H995     1.0000 0.18810  0.61750  0.16210  Biso   1.000  H
  C905     1.0000 0.24070  0.34450  0.16760  Biso   1.000  C
  H996     1.0000 0.23360  0.33250  0.14970  Biso   1.000  H
  H997     1.0000 0.25820  0.31640  0.17740  Biso   1.000  H
  H998     1.0000 0.20760  0.35340  0.17630  Biso   1.000  H
  S311     1.0000 0.33831  0.65573  0.27216  Biso   1.000  S
  S312     1.0000 0.36944  0.78063  0.27525  Biso   1.000  S
  S313     1.0000 0.31451  0.66800  0.27275  Biso   1.000  S
  S314     1.0000 0.34549  0.79374  0.27615  Biso   1.000  S
  O311     1.0000 0.21080  0.61390  0.26440  Biso   1.000  O
  O312     1.0000 0.25180  0.61050  0.22549  Biso   1.000  O
  O313     1.0000 0.18710  0.62780  0.26610  Biso   1.000  O
  O314     1.0000 0.22860  0.62130  0.22780  Biso   1.000  O
  C906     1.0000 0.23470  0.63340  0.24690  Biso   1.000  C
  C907     1.0000 0.24880  0.69080  0.24838  Biso   1.000  C
  C908     1.0000 0.29590  0.70610  0.25964  Biso   1.000  C
  C909     1.0000 0.30894  0.75890  0.26093  Biso   1.000  C
  C910     1.0000 0.22520  0.70360  0.24904  Biso   1.000  C
  C911     1.0000 0.27240  0.71900  0.26030  Biso   1.000  C
  C912     1.0000 0.28542  0.77180  0.26159  Biso   1.000  C
  C913     1.0000 0.21130  0.64600  0.24772  Biso   1.000  C
  C914     1.0000 0.38070  0.64600  0.24440  Biso   1.000  C
  H999     1.0000 0.35960  0.64240  0.22840  Biso   1.000  H
  H1000    1.0000 0.40420  0.67620  0.24260  Biso   1.000  H
  H1001    1.0000 0.40150  0.61420  0.24700  Biso   1.000  H
  C915     1.0000 0.34900  0.77900  0.30940  Biso   1.000  C
  H1002    1.0000 0.31780  0.80090  0.31160  Biso   1.000  H
  H1003    1.0000 0.34090  0.74290  0.31440  Biso   1.000  H
  H1004    1.0000 0.37740  0.79240  0.32050  Biso   1.000  H
  C916     1.0000 0.36330  0.66640  0.24710  Biso   1.000  C
  H1005    1.0000 0.34620  0.67010  0.22990  Biso   1.000  H
  H1006    1.0000 0.38220  0.63300  0.24770  Biso   1.000  H
  H1007    1.0000 0.38810  0.69530  0.24960  Biso   1.000  H
  C917     1.0000 0.32740  0.78500  0.31020  Biso   1.000  C
  H1008    1.0000 0.29070  0.79500  0.31260  Biso   1.000  H
  H1009    1.0000 0.34980  0.80680  0.32130  Biso   1.000  H
  H1010    1.0000 0.33190  0.74800  0.31510  Biso   1.000  H
  S315     1.0000 0.52118  0.53290  0.29564  Biso   1.000  S
  S316     1.0000 0.39312  0.54087  0.29517  Biso   1.000  S
  S317     1.0000 0.38773  0.57112  0.29648  Biso   1.000  S
  S318     1.0000 0.51070  0.58137  0.29681  Biso   1.000  S
  O315     1.0000 0.58950  0.44480  0.26590  Biso   1.000  O
  O316     1.0000 0.58940  0.50680  0.23470  Biso   1.000  O
  C918     1.0000 0.56840  0.47470  0.25060  Biso   1.000  C
  C919     1.0000 0.50928  0.47710  0.24972  Biso   1.000  C
  C920     1.0000 0.48340  0.50340  0.26978  Biso   1.000  C
  C921     1.0000 0.42900  0.50689  0.26957  Biso   1.000  C
  C922     1.0000 0.40056  0.48400  0.24930  Biso   1.000  C
  C923     1.0000 0.42650  0.54229  0.27076  Biso   1.000  C
  C924     1.0000 0.48080  0.54577  0.27055  Biso   1.000  C
  C925     1.0000 0.53460  0.47560  0.31640  Biso   1.000  C
  H1011    1.0000 0.55370  0.48670  0.33210  Biso   1.000  H
  H1012    1.0000 0.55580  0.45030  0.30650  Biso   1.000  H
  H1013    1.0000 0.50140  0.45920  0.32160  Biso   1.000  H
  C926     1.0000 0.38270  0.48860  0.31910  Biso   1.000  C
  H1014    1.0000 0.36560  0.45880  0.31050  Biso   1.000  H
  H1015    1.0000 0.36030  0.50150  0.33340  Biso   1.000  H
  H1016    1.0000 0.41650  0.47750  0.32630  Biso   1.000  H
  C927     1.0000 0.38970  0.51620  0.31900  Biso   1.000  C
  H1017    1.0000 0.38770  0.48340  0.30910  Biso   1.000  H
  H1018    1.0000 0.36000  0.51840  0.33120  Biso   1.000  H
  H1019    1.0000 0.42250  0.51720  0.32900  Biso   1.000  H
  C928     1.0000 0.49850  0.64610  0.28280  Biso   1.000  C
  H1020    1.0000 0.46140  0.65510  0.28490  Biso   1.000  H
  H1021    1.0000 0.50730  0.64580  0.26400  Biso   1.000  H
  H1022    1.0000 0.52010  0.67220  0.29180  Biso   1.000  H
  O317     1.0000 0.60650  0.39070  0.27840  Biso   1.000  O
  H1023    1.0000 0.60400  0.36100  0.27100  Biso   1.000  H
  H1024    1.0000 0.57800  0.39000  0.28700  Biso   1.000  H
  O318     1.0000 0.32060  0.53240  0.23528  Biso   1.000  O
  O319     1.0000 0.17470  0.45890  0.19306  Biso   1.000  O
  O320     1.0000 0.23880  0.51930  0.18950  Biso   1.000  O
  S319     1.0000 0.13529  0.54974  0.14690  Biso   1.000  S
  S320     1.0000 0.28258  0.40167  0.16663  Biso   1.000  S
  Zn63     1.0000 0.24630  0.53979  0.22611  Biso   1.000  Zn
  Zn64     1.0000 0.16168  0.44714  0.23109  Biso   1.000  Zn
  C929     1.0000 0.25000  0.09290  0.00000  Biso   1.000  C
  O321     1.0000 0.25000  0.95380  0.00000  Biso   1.000  O
  C930     1.0000 0.75000  0.59290  0.50000  Biso   1.000  C
  O322     1.0000 0.75000  0.45380  0.50000  Biso   1.000  O
  C931     1.0000 0.25000  0.90710  0.50000  Biso   1.000  C
  O323     1.0000 0.25000  0.04620  0.50000  Biso   1.000  O
  C932     1.0000 0.75000  0.40710  0.00000  Biso   1.000  C
  O324     1.0000 0.75000  0.54620  0.00000  Biso   1.000  O
  C933     1.0000 0.15710  0.00000  0.25000  Biso   1.000  C
  O325     1.0000 0.29620  0.00000  0.25000  Biso   1.000  O
  C934     1.0000 0.65710  0.50000  0.75000  Biso   1.000  C
  O326     1.0000 0.79620  0.50000  0.75000  Biso   1.000  O
  C935     1.0000 0.34290  0.00000  0.75000  Biso   1.000  C
  O327     1.0000 0.20380  0.00000  0.75000  Biso   1.000  O
  C936     1.0000 0.84290  0.50000  0.25000  Biso   1.000  C
  O328     1.0000 0.70380  0.50000  0.25000  Biso   1.000  O
  C937     1.0000 0.75000  0.90710  0.00000  Biso   1.000  C
  O329     1.0000 0.75000  0.04620  0.00000  Biso   1.000  O
  C938     1.0000 0.25000  0.40710  0.50000  Biso   1.000  C
  O330     1.0000 0.25000  0.54620  0.50000  Biso   1.000  O
  C939     1.0000 0.75000  0.09290  0.50000  Biso   1.000  C
  O331     1.0000 0.75000  0.95380  0.50000  Biso   1.000  O
  C940     1.0000 0.25000  0.59290  0.00000  Biso   1.000  C
  O332     1.0000 0.25000  0.45380  0.00000  Biso   1.000  O
  C941     1.0000 0.84290  0.00000  0.75000  Biso   1.000  C
  O333     1.0000 0.70380  0.00000  0.75000  Biso   1.000  O
  C942     1.0000 0.34290  0.50000  0.25000  Biso   1.000  C
  O334     1.0000 0.20380  0.50000  0.25000  Biso   1.000  O
  C943     1.0000 0.65710  0.00000  0.25000  Biso   1.000  C
  O335     1.0000 0.79620  0.00000  0.25000  Biso   1.000  O
  C944     1.0000 0.15710  0.50000  0.75000  Biso   1.000  C
  O336     1.0000 0.29620  0.50000  0.75000  Biso   1.000  O
