data_image0
_cell_length_a       18.9064
_cell_length_b       20.9843
_cell_length_c       23.4284
_cell_angle_alpha    90
_cell_angle_beta     90
_cell_angle_gamma    90

_symmetry_space_group_name_H-M    "P 1"
_symmetry_int_tables_number       1

loop_
  _symmetry_equiv_pos_as_xyz
  'x, y, z'

loop_
  _atom_site_label
  _atom_site_occupancy
  _atom_site_fract_x
  _atom_site_fract_y
  _atom_site_fract_z
  _atom_site_thermal_displace_type
  _atom_site_B_iso_or_equiv
  _atom_site_type_symbol
  W1       1.0000 0.08693  0.17081  0.28994  Biso   1.000  W
  W2       1.0000 0.08723  0.27703  0.41967  Biso   1.000  W
  W3       1.0000 0.18000  0.12497  0.42060  Biso   1.000  W
  W4       1.0000 0.18043  0.04406  0.37095  Biso   1.000  W
  O1       1.0000 0.07990  0.23920  0.34540  Biso   1.000  O
  O2       1.0000 0.14700  0.20880  0.24550  Biso   1.000  O
  O3       1.0000 0.08160  0.09160  0.24720  Biso   1.000  O
  O4       1.0000 0.14810  0.13040  0.34110  Biso   1.000  O
  O5       1.0000 0.14940  0.20980  0.43890  Biso   1.000  O
  O6       1.0000 0.18190  0.08370  0.44240  Biso   1.000  O
  O7       1.0000 0.18610  0.03560  0.40690  Biso   1.000  O
  O8       1.0000 0.06580  0.03490  0.39240  Biso   1.000  O
  O9       1.0000 0.06590  0.10420  0.43420  Biso   1.000  O
  C1       1.0000 0.19690  0.43740  0.31750  Biso   1.000  C
  H1       1.0000 0.20800  0.47700  0.33600  Biso   1.000  H
  C2       1.0000 0.24600  0.39000  0.30040  Biso   1.000  C
  H2       1.0000 0.29620  0.39120  0.30640  Biso   1.000  H
  N1       1.0000 0.20790  0.34050  0.27280  Biso   1.000  N
  C3       1.0000 0.13520  0.35730  0.27290  Biso   1.000  C
  H3       1.0000 0.09720  0.33250  0.25710  Biso   1.000  H
  N2       1.0000 0.12830  0.41720  0.30060  Biso   1.000  N
  C4       1.0000 0.06630  0.44550  0.30920  Biso   1.000  C
  H4       1.0000 0.09200  0.53890  0.34250  Biso   1.000  H
  O10      1.0000 0.24000  0.27420  0.16040  Biso   1.000  O
  C5       1.0000 0.18780  0.44250  0.22510  Biso   1.000  C
  H5       1.0000 0.19570  0.48770  0.22590  Biso   1.000  H
  H6       1.0000 0.09530  0.53630  0.15350  Biso   1.000  H
  N3       1.0000 0.20010  0.33490  0.23800  Biso   1.000  N
  N4       1.0000 0.12670  0.40950  0.20560  Biso   1.000  N
  C6       1.0000 0.14040  0.34320  0.21610  Biso   1.000  C
  H7       1.0000 0.10630  0.31010  0.20960  Biso   1.000  H
  C7       1.0000 0.23250  0.39410  0.24370  Biso   1.000  C
  C8       1.0000 0.06340  0.43350  0.18810  Biso   1.000  C
  O11      1.0000 0.24620  0.23490  0.15870  Biso   1.000  O
  H8       1.0000 0.27920  0.40130  0.25860  Biso   1.000  H
  W5       1.0000 0.58693  0.67081  0.78994  Biso   1.000  W
  W6       1.0000 0.58723  0.77703  0.91967  Biso   1.000  W
  W7       1.0000 0.68000  0.62497  0.92060  Biso   1.000  W
  W8       1.0000 0.68043  0.54406  0.87095  Biso   1.000  W
  O12      1.0000 0.57990  0.73920  0.84540  Biso   1.000  O
  O13      1.0000 0.64700  0.70880  0.74550  Biso   1.000  O
  O14      1.0000 0.58160  0.59160  0.74720  Biso   1.000  O
  O15      1.0000 0.64810  0.63040  0.84110  Biso   1.000  O
  O16      1.0000 0.64940  0.70980  0.93890  Biso   1.000  O
  O17      1.0000 0.68190  0.58370  0.94240  Biso   1.000  O
  O18      1.0000 0.68610  0.53560  0.90690  Biso   1.000  O
  O19      1.0000 0.56580  0.53490  0.89240  Biso   1.000  O
  O20      1.0000 0.56590  0.60420  0.93420  Biso   1.000  O
  C9       1.0000 0.69690  0.93740  0.81750  Biso   1.000  C
  H9       1.0000 0.70800  0.97700  0.83600  Biso   1.000  H
  C10      1.0000 0.74600  0.89000  0.80040  Biso   1.000  C
  H10      1.0000 0.79620  0.89120  0.80640  Biso   1.000  H
  N5       1.0000 0.70790  0.84050  0.77280  Biso   1.000  N
  C11      1.0000 0.63520  0.85730  0.77290  Biso   1.000  C
  H11      1.0000 0.59720  0.83250  0.75710  Biso   1.000  H
  N6       1.0000 0.62830  0.91720  0.80060  Biso   1.000  N
  C12      1.0000 0.56630  0.94550  0.80920  Biso   1.000  C
  H12      1.0000 0.59200  0.03890  0.84250  Biso   1.000  H
  O21      1.0000 0.74000  0.77420  0.66040  Biso   1.000  O
  C13      1.0000 0.68780  0.94250  0.72510  Biso   1.000  C
  H13      1.0000 0.69570  0.98770  0.72590  Biso   1.000  H
  H14      1.0000 0.59530  0.03630  0.65350  Biso   1.000  H
  N7       1.0000 0.70010  0.83490  0.73800  Biso   1.000  N
  N8       1.0000 0.62670  0.90950  0.70560  Biso   1.000  N
  C14      1.0000 0.64040  0.84320  0.71610  Biso   1.000  C
  H15      1.0000 0.60630  0.81010  0.70960  Biso   1.000  H
  C15      1.0000 0.73250  0.89410  0.74370  Biso   1.000  C
  C16      1.0000 0.56340  0.93350  0.68810  Biso   1.000  C
  O22      1.0000 0.74620  0.73490  0.65870  Biso   1.000  O
  H16      1.0000 0.77920  0.90130  0.75860  Biso   1.000  H
  W9       1.0000 0.91307  0.82919  0.28994  Biso   1.000  W
  W10      1.0000 0.91277  0.72297  0.41967  Biso   1.000  W
  W11      1.0000 0.82000  0.87503  0.42060  Biso   1.000  W
  W12      1.0000 0.81957  0.95594  0.37095  Biso   1.000  W
  O23      1.0000 0.92010  0.76080  0.34540  Biso   1.000  O
  O24      1.0000 0.85300  0.79120  0.24550  Biso   1.000  O
  O25      1.0000 0.91840  0.90840  0.24720  Biso   1.000  O
  O26      1.0000 0.85190  0.86960  0.34110  Biso   1.000  O
  O27      1.0000 0.85060  0.79020  0.43890  Biso   1.000  O
  O28      1.0000 0.81810  0.91630  0.44240  Biso   1.000  O
  O29      1.0000 0.81390  0.96440  0.40690  Biso   1.000  O
  O30      1.0000 0.93420  0.96510  0.39240  Biso   1.000  O
  O31      1.0000 0.93410  0.89580  0.43420  Biso   1.000  O
  C17      1.0000 0.80310  0.56260  0.31750  Biso   1.000  C
  H17      1.0000 0.79200  0.52300  0.33600  Biso   1.000  H
  C18      1.0000 0.75400  0.61000  0.30040  Biso   1.000  C
  H18      1.0000 0.70380  0.60880  0.30640  Biso   1.000  H
  N9       1.0000 0.79210  0.65950  0.27280  Biso   1.000  N
  C19      1.0000 0.86480  0.64270  0.27290  Biso   1.000  C
  H19      1.0000 0.90280  0.66750  0.25710  Biso   1.000  H
  N10      1.0000 0.87170  0.58280  0.30060  Biso   1.000  N
  C20      1.0000 0.93370  0.55450  0.30920  Biso   1.000  C
  H20      1.0000 0.90800  0.46110  0.34250  Biso   1.000  H
  O32      1.0000 0.76000  0.72580  0.16040  Biso   1.000  O
  C21      1.0000 0.81220  0.55750  0.22510  Biso   1.000  C
  H21      1.0000 0.80430  0.51230  0.22590  Biso   1.000  H
  H22      1.0000 0.90470  0.46370  0.15350  Biso   1.000  H
  N11      1.0000 0.79990  0.66510  0.23800  Biso   1.000  N
  N12      1.0000 0.87330  0.59050  0.20560  Biso   1.000  N
  C22      1.0000 0.85960  0.65680  0.21610  Biso   1.000  C
  H23      1.0000 0.89370  0.68990  0.20960  Biso   1.000  H
  C23      1.0000 0.76750  0.60590  0.24370  Biso   1.000  C
  C24      1.0000 0.93660  0.56650  0.18810  Biso   1.000  C
  O33      1.0000 0.75380  0.76510  0.15870  Biso   1.000  O
  H24      1.0000 0.72080  0.59870  0.25860  Biso   1.000  H
  W13      1.0000 0.41307  0.32919  0.78994  Biso   1.000  W
  W14      1.0000 0.41277  0.22297  0.91967  Biso   1.000  W
  W15      1.0000 0.32000  0.37503  0.92060  Biso   1.000  W
  W16      1.0000 0.31957  0.45594  0.87095  Biso   1.000  W
  O34      1.0000 0.42010  0.26080  0.84540  Biso   1.000  O
  O35      1.0000 0.35300  0.29120  0.74550  Biso   1.000  O
  O36      1.0000 0.41840  0.40840  0.74720  Biso   1.000  O
  O37      1.0000 0.35190  0.36960  0.84110  Biso   1.000  O
  O38      1.0000 0.35060  0.29020  0.93890  Biso   1.000  O
  O39      1.0000 0.31810  0.41630  0.94240  Biso   1.000  O
  O40      1.0000 0.31390  0.46440  0.90690  Biso   1.000  O
  O41      1.0000 0.43420  0.46510  0.89240  Biso   1.000  O
  O42      1.0000 0.43410  0.39580  0.93420  Biso   1.000  O
  C25      1.0000 0.30310  0.06260  0.81750  Biso   1.000  C
  H25      1.0000 0.29200  0.02300  0.83600  Biso   1.000  H
  C26      1.0000 0.25400  0.11000  0.80040  Biso   1.000  C
  H26      1.0000 0.20380  0.10880  0.80640  Biso   1.000  H
  N13      1.0000 0.29210  0.15950  0.77280  Biso   1.000  N
  C27      1.0000 0.36480  0.14270  0.77290  Biso   1.000  C
  H27      1.0000 0.40280  0.16750  0.75710  Biso   1.000  H
  N14      1.0000 0.37170  0.08280  0.80060  Biso   1.000  N
  C28      1.0000 0.43370  0.05450  0.80920  Biso   1.000  C
  H28      1.0000 0.40800  0.96110  0.84250  Biso   1.000  H
  O43      1.0000 0.26000  0.22580  0.66040  Biso   1.000  O
  C29      1.0000 0.31220  0.05750  0.72510  Biso   1.000  C
  H29      1.0000 0.30430  0.01230  0.72590  Biso   1.000  H
  H30      1.0000 0.40470  0.96370  0.65350  Biso   1.000  H
  N15      1.0000 0.29990  0.16510  0.73800  Biso   1.000  N
  N16      1.0000 0.37330  0.09050  0.70560  Biso   1.000  N
  C30      1.0000 0.35960  0.15680  0.71610  Biso   1.000  C
  H31      1.0000 0.39370  0.18990  0.70960  Biso   1.000  H
  C31      1.0000 0.26750  0.10590  0.74370  Biso   1.000  C
  C32      1.0000 0.43660  0.06650  0.68810  Biso   1.000  C
  O44      1.0000 0.25380  0.26510  0.65870  Biso   1.000  O
  H32      1.0000 0.22080  0.09870  0.75860  Biso   1.000  H
  W17      1.0000 0.91307  0.17081  0.71006  Biso   1.000  W
  W18      1.0000 0.91277  0.27703  0.58033  Biso   1.000  W
  W19      1.0000 0.82000  0.12497  0.57940  Biso   1.000  W
  W20      1.0000 0.81957  0.04406  0.62905  Biso   1.000  W
  O45      1.0000 0.92010  0.23920  0.65460  Biso   1.000  O
  O46      1.0000 0.85300  0.20880  0.75450  Biso   1.000  O
  O47      1.0000 0.91840  0.09160  0.75280  Biso   1.000  O
  O48      1.0000 0.85190  0.13040  0.65890  Biso   1.000  O
  O49      1.0000 0.85060  0.20980  0.56110  Biso   1.000  O
  O50      1.0000 0.81810  0.08370  0.55760  Biso   1.000  O
  O51      1.0000 0.81390  0.03560  0.59310  Biso   1.000  O
  O52      1.0000 0.93420  0.03490  0.60760  Biso   1.000  O
  O53      1.0000 0.93410  0.10420  0.56580  Biso   1.000  O
  C33      1.0000 0.80310  0.43740  0.68250  Biso   1.000  C
  H33      1.0000 0.79200  0.47700  0.66400  Biso   1.000  H
  C34      1.0000 0.75400  0.39000  0.69960  Biso   1.000  C
  H34      1.0000 0.70380  0.39120  0.69360  Biso   1.000  H
  N17      1.0000 0.79210  0.34050  0.72720  Biso   1.000  N
  C35      1.0000 0.86480  0.35730  0.72710  Biso   1.000  C
  H35      1.0000 0.90280  0.33250  0.74290  Biso   1.000  H
  N18      1.0000 0.87170  0.41720  0.69940  Biso   1.000  N
  C36      1.0000 0.93370  0.44550  0.69080  Biso   1.000  C
  H36      1.0000 0.90800  0.53890  0.65750  Biso   1.000  H
  O54      1.0000 0.76000  0.27420  0.83960  Biso   1.000  O
  C37      1.0000 0.81220  0.44250  0.77490  Biso   1.000  C
  H37      1.0000 0.80430  0.48770  0.77410  Biso   1.000  H
  H38      1.0000 0.90470  0.53630  0.84650  Biso   1.000  H
  N19      1.0000 0.79990  0.33490  0.76200  Biso   1.000  N
  N20      1.0000 0.87330  0.40950  0.79440  Biso   1.000  N
  C38      1.0000 0.85960  0.34320  0.78390  Biso   1.000  C
  H39      1.0000 0.89370  0.31010  0.79040  Biso   1.000  H
  C39      1.0000 0.76750  0.39410  0.75630  Biso   1.000  C
  C40      1.0000 0.93660  0.43350  0.81190  Biso   1.000  C
  O55      1.0000 0.75380  0.23490  0.84130  Biso   1.000  O
  H40      1.0000 0.72080  0.40130  0.74140  Biso   1.000  H
  W21      1.0000 0.41307  0.67081  0.21006  Biso   1.000  W
  W22      1.0000 0.41277  0.77703  0.08033  Biso   1.000  W
  W23      1.0000 0.32000  0.62497  0.07940  Biso   1.000  W
  W24      1.0000 0.31957  0.54406  0.12905  Biso   1.000  W
  O56      1.0000 0.42010  0.73920  0.15460  Biso   1.000  O
  O57      1.0000 0.35300  0.70880  0.25450  Biso   1.000  O
  O58      1.0000 0.41840  0.59160  0.25280  Biso   1.000  O
  O59      1.0000 0.35190  0.63040  0.15890  Biso   1.000  O
  O60      1.0000 0.35060  0.70980  0.06110  Biso   1.000  O
  O61      1.0000 0.31810  0.58370  0.05760  Biso   1.000  O
  O62      1.0000 0.31390  0.53560  0.09310  Biso   1.000  O
  O63      1.0000 0.43420  0.53490  0.10760  Biso   1.000  O
  O64      1.0000 0.43410  0.60420  0.06580  Biso   1.000  O
  C41      1.0000 0.30310  0.93740  0.18250  Biso   1.000  C
  H41      1.0000 0.29200  0.97700  0.16400  Biso   1.000  H
  C42      1.0000 0.25400  0.89000  0.19960  Biso   1.000  C
  H42      1.0000 0.20380  0.89120  0.19360  Biso   1.000  H
  N21      1.0000 0.29210  0.84050  0.22720  Biso   1.000  N
  C43      1.0000 0.36480  0.85730  0.22710  Biso   1.000  C
  H43      1.0000 0.40280  0.83250  0.24290  Biso   1.000  H
  N22      1.0000 0.37170  0.91720  0.19940  Biso   1.000  N
  C44      1.0000 0.43370  0.94550  0.19080  Biso   1.000  C
  H44      1.0000 0.40800  0.03890  0.15750  Biso   1.000  H
  O65      1.0000 0.26000  0.77420  0.33960  Biso   1.000  O
  C45      1.0000 0.31220  0.94250  0.27490  Biso   1.000  C
  H45      1.0000 0.30430  0.98770  0.27410  Biso   1.000  H
  H46      1.0000 0.40470  0.03630  0.34650  Biso   1.000  H
  N23      1.0000 0.29990  0.83490  0.26200  Biso   1.000  N
  N24      1.0000 0.37330  0.90950  0.29440  Biso   1.000  N
  C46      1.0000 0.35960  0.84320  0.28390  Biso   1.000  C
  H47      1.0000 0.39370  0.81010  0.29040  Biso   1.000  H
  C47      1.0000 0.26750  0.89410  0.25630  Biso   1.000  C
  C48      1.0000 0.43660  0.93350  0.31190  Biso   1.000  C
  O66      1.0000 0.25380  0.73490  0.34130  Biso   1.000  O
  H48      1.0000 0.22080  0.90130  0.24140  Biso   1.000  H
  W25      1.0000 0.08693  0.82919  0.71006  Biso   1.000  W
  W26      1.0000 0.08723  0.72297  0.58033  Biso   1.000  W
  W27      1.0000 0.18000  0.87503  0.57940  Biso   1.000  W
  W28      1.0000 0.18043  0.95594  0.62905  Biso   1.000  W
  O67      1.0000 0.07990  0.76080  0.65460  Biso   1.000  O
  O68      1.0000 0.14700  0.79120  0.75450  Biso   1.000  O
  O69      1.0000 0.08160  0.90840  0.75280  Biso   1.000  O
  O70      1.0000 0.14810  0.86960  0.65890  Biso   1.000  O
  O71      1.0000 0.14940  0.79020  0.56110  Biso   1.000  O
  O72      1.0000 0.18190  0.91630  0.55760  Biso   1.000  O
  O73      1.0000 0.18610  0.96440  0.59310  Biso   1.000  O
  O74      1.0000 0.06580  0.96510  0.60760  Biso   1.000  O
  O75      1.0000 0.06590  0.89580  0.56580  Biso   1.000  O
  C49      1.0000 0.19690  0.56260  0.68250  Biso   1.000  C
  H49      1.0000 0.20800  0.52300  0.66400  Biso   1.000  H
  C50      1.0000 0.24600  0.61000  0.69960  Biso   1.000  C
  H50      1.0000 0.29620  0.60880  0.69360  Biso   1.000  H
  N25      1.0000 0.20790  0.65950  0.72720  Biso   1.000  N
  C51      1.0000 0.13520  0.64270  0.72710  Biso   1.000  C
  H51      1.0000 0.09720  0.66750  0.74290  Biso   1.000  H
  N26      1.0000 0.12830  0.58280  0.69940  Biso   1.000  N
  C52      1.0000 0.06630  0.55450  0.69080  Biso   1.000  C
  H52      1.0000 0.09200  0.46110  0.65750  Biso   1.000  H
  O76      1.0000 0.24000  0.72580  0.83960  Biso   1.000  O
  C53      1.0000 0.18780  0.55750  0.77490  Biso   1.000  C
  H53      1.0000 0.19570  0.51230  0.77410  Biso   1.000  H
  H54      1.0000 0.09530  0.46370  0.84650  Biso   1.000  H
  N27      1.0000 0.20010  0.66510  0.76200  Biso   1.000  N
  N28      1.0000 0.12670  0.59050  0.79440  Biso   1.000  N
  C54      1.0000 0.14040  0.65680  0.78390  Biso   1.000  C
  H55      1.0000 0.10630  0.68990  0.79040  Biso   1.000  H
  C55      1.0000 0.23250  0.60590  0.75630  Biso   1.000  C
  C56      1.0000 0.06340  0.56650  0.81190  Biso   1.000  C
  O77      1.0000 0.24620  0.76510  0.84130  Biso   1.000  O
  H56      1.0000 0.27920  0.59870  0.74140  Biso   1.000  H
  W29      1.0000 0.58693  0.32919  0.21006  Biso   1.000  W
  W30      1.0000 0.58723  0.22297  0.08033  Biso   1.000  W
  W31      1.0000 0.68000  0.37503  0.07940  Biso   1.000  W
  W32      1.0000 0.68043  0.45594  0.12905  Biso   1.000  W
  O78      1.0000 0.57990  0.26080  0.15460  Biso   1.000  O
  O79      1.0000 0.64700  0.29120  0.25450  Biso   1.000  O
  O80      1.0000 0.58160  0.40840  0.25280  Biso   1.000  O
  O81      1.0000 0.64810  0.36960  0.15890  Biso   1.000  O
  O82      1.0000 0.64940  0.29020  0.06110  Biso   1.000  O
  O83      1.0000 0.68190  0.41630  0.05760  Biso   1.000  O
  O84      1.0000 0.68610  0.46440  0.09310  Biso   1.000  O
  O85      1.0000 0.56580  0.46510  0.10760  Biso   1.000  O
  O86      1.0000 0.56590  0.39580  0.06580  Biso   1.000  O
  C57      1.0000 0.69690  0.06260  0.18250  Biso   1.000  C
  H57      1.0000 0.70800  0.02300  0.16400  Biso   1.000  H
  C58      1.0000 0.74600  0.11000  0.19960  Biso   1.000  C
  H58      1.0000 0.79620  0.10880  0.19360  Biso   1.000  H
  N29      1.0000 0.70790  0.15950  0.22720  Biso   1.000  N
  C59      1.0000 0.63520  0.14270  0.22710  Biso   1.000  C
  H59      1.0000 0.59720  0.16750  0.24290  Biso   1.000  H
  N30      1.0000 0.62830  0.08280  0.19940  Biso   1.000  N
  C60      1.0000 0.56630  0.05450  0.19080  Biso   1.000  C
  H60      1.0000 0.59200  0.96110  0.15750  Biso   1.000  H
  O87      1.0000 0.74000  0.22580  0.33960  Biso   1.000  O
  C61      1.0000 0.68780  0.05750  0.27490  Biso   1.000  C
  H61      1.0000 0.69570  0.01230  0.27410  Biso   1.000  H
  H62      1.0000 0.59530  0.96370  0.34650  Biso   1.000  H
  N31      1.0000 0.70010  0.16510  0.26200  Biso   1.000  N
  N32      1.0000 0.62670  0.09050  0.29440  Biso   1.000  N
  C62      1.0000 0.64040  0.15680  0.28390  Biso   1.000  C
  H63      1.0000 0.60630  0.18990  0.29040  Biso   1.000  H
  C63      1.0000 0.73250  0.10590  0.25630  Biso   1.000  C
  C64      1.0000 0.56340  0.06650  0.31190  Biso   1.000  C
  O88      1.0000 0.74620  0.26510  0.34130  Biso   1.000  O
  H64      1.0000 0.77920  0.09870  0.24140  Biso   1.000  H
  W33      1.0000 0.91307  0.82919  0.71006  Biso   1.000  W
  W34      1.0000 0.91277  0.72297  0.58033  Biso   1.000  W
  W35      1.0000 0.82000  0.87503  0.57940  Biso   1.000  W
  W36      1.0000 0.81957  0.95594  0.62905  Biso   1.000  W
  O89      1.0000 0.92010  0.76080  0.65460  Biso   1.000  O
  O90      1.0000 0.85300  0.79120  0.75450  Biso   1.000  O
  O91      1.0000 0.91840  0.90840  0.75280  Biso   1.000  O
  O92      1.0000 0.85190  0.86960  0.65890  Biso   1.000  O
  O93      1.0000 0.85060  0.79020  0.56110  Biso   1.000  O
  O94      1.0000 0.81810  0.91630  0.55760  Biso   1.000  O
  O95      1.0000 0.81390  0.96440  0.59310  Biso   1.000  O
  O96      1.0000 0.93420  0.96510  0.60760  Biso   1.000  O
  O97      1.0000 0.93410  0.89580  0.56580  Biso   1.000  O
  C65      1.0000 0.80310  0.56260  0.68250  Biso   1.000  C
  H65      1.0000 0.79200  0.52300  0.66400  Biso   1.000  H
  C66      1.0000 0.75400  0.61000  0.69960  Biso   1.000  C
  H66      1.0000 0.70380  0.60880  0.69360  Biso   1.000  H
  N33      1.0000 0.79210  0.65950  0.72720  Biso   1.000  N
  C67      1.0000 0.86480  0.64270  0.72710  Biso   1.000  C
  H67      1.0000 0.90280  0.66750  0.74290  Biso   1.000  H
  N34      1.0000 0.87170  0.58280  0.69940  Biso   1.000  N
  C68      1.0000 0.93370  0.55450  0.69080  Biso   1.000  C
  H68      1.0000 0.90800  0.46110  0.65750  Biso   1.000  H
  O98      1.0000 0.76000  0.72580  0.83960  Biso   1.000  O
  C69      1.0000 0.81220  0.55750  0.77490  Biso   1.000  C
  H69      1.0000 0.80430  0.51230  0.77410  Biso   1.000  H
  H70      1.0000 0.90470  0.46370  0.84650  Biso   1.000  H
  N35      1.0000 0.79990  0.66510  0.76200  Biso   1.000  N
  N36      1.0000 0.87330  0.59050  0.79440  Biso   1.000  N
  C70      1.0000 0.85960  0.65680  0.78390  Biso   1.000  C
  H71      1.0000 0.89370  0.68990  0.79040  Biso   1.000  H
  C71      1.0000 0.76750  0.60590  0.75630  Biso   1.000  C
  C72      1.0000 0.93660  0.56650  0.81190  Biso   1.000  C
  O99      1.0000 0.75380  0.76510  0.84130  Biso   1.000  O
  H72      1.0000 0.72080  0.59870  0.74140  Biso   1.000  H
  W37      1.0000 0.41307  0.32919  0.21006  Biso   1.000  W
  W38      1.0000 0.41277  0.22297  0.08033  Biso   1.000  W
  W39      1.0000 0.32000  0.37503  0.07940  Biso   1.000  W
  W40      1.0000 0.31957  0.45594  0.12905  Biso   1.000  W
  O100     1.0000 0.42010  0.26080  0.15460  Biso   1.000  O
  O101     1.0000 0.35300  0.29120  0.25450  Biso   1.000  O
  O102     1.0000 0.41840  0.40840  0.25280  Biso   1.000  O
  O103     1.0000 0.35190  0.36960  0.15890  Biso   1.000  O
  O104     1.0000 0.35060  0.29020  0.06110  Biso   1.000  O
  O105     1.0000 0.31810  0.41630  0.05760  Biso   1.000  O
  O106     1.0000 0.31390  0.46440  0.09310  Biso   1.000  O
  O107     1.0000 0.43420  0.46510  0.10760  Biso   1.000  O
  O108     1.0000 0.43410  0.39580  0.06580  Biso   1.000  O
  C73      1.0000 0.30310  0.06260  0.18250  Biso   1.000  C
  H73      1.0000 0.29200  0.02300  0.16400  Biso   1.000  H
  C74      1.0000 0.25400  0.11000  0.19960  Biso   1.000  C
  H74      1.0000 0.20380  0.10880  0.19360  Biso   1.000  H
  N37      1.0000 0.29210  0.15950  0.22720  Biso   1.000  N
  C75      1.0000 0.36480  0.14270  0.22710  Biso   1.000  C
  H75      1.0000 0.40280  0.16750  0.24290  Biso   1.000  H
  N38      1.0000 0.37170  0.08280  0.19940  Biso   1.000  N
  C76      1.0000 0.43370  0.05450  0.19080  Biso   1.000  C
  H76      1.0000 0.40800  0.96110  0.15750  Biso   1.000  H
  O109     1.0000 0.26000  0.22580  0.33960  Biso   1.000  O
  C77      1.0000 0.31220  0.05750  0.27490  Biso   1.000  C
  H77      1.0000 0.30430  0.01230  0.27410  Biso   1.000  H
  H78      1.0000 0.40470  0.96370  0.34650  Biso   1.000  H
  N39      1.0000 0.29990  0.16510  0.26200  Biso   1.000  N
  N40      1.0000 0.37330  0.09050  0.29440  Biso   1.000  N
  C78      1.0000 0.35960  0.15680  0.28390  Biso   1.000  C
  H79      1.0000 0.39370  0.18990  0.29040  Biso   1.000  H
  C79      1.0000 0.26750  0.10590  0.25630  Biso   1.000  C
  C80      1.0000 0.43660  0.06650  0.31190  Biso   1.000  C
  O110     1.0000 0.25380  0.26510  0.34130  Biso   1.000  O
  H80      1.0000 0.22080  0.09870  0.24140  Biso   1.000  H
  W41      1.0000 0.08693  0.17081  0.71006  Biso   1.000  W
  W42      1.0000 0.08723  0.27703  0.58033  Biso   1.000  W
  W43      1.0000 0.18000  0.12497  0.57940  Biso   1.000  W
  W44      1.0000 0.18043  0.04406  0.62905  Biso   1.000  W
  O111     1.0000 0.07990  0.23920  0.65460  Biso   1.000  O
  O112     1.0000 0.14700  0.20880  0.75450  Biso   1.000  O
  O113     1.0000 0.08160  0.09160  0.75280  Biso   1.000  O
  O114     1.0000 0.14810  0.13040  0.65890  Biso   1.000  O
  O115     1.0000 0.14940  0.20980  0.56110  Biso   1.000  O
  O116     1.0000 0.18190  0.08370  0.55760  Biso   1.000  O
  O117     1.0000 0.18610  0.03560  0.59310  Biso   1.000  O
  O118     1.0000 0.06580  0.03490  0.60760  Biso   1.000  O
  O119     1.0000 0.06590  0.10420  0.56580  Biso   1.000  O
  C81      1.0000 0.19690  0.43740  0.68250  Biso   1.000  C
  H81      1.0000 0.20800  0.47700  0.66400  Biso   1.000  H
  C82      1.0000 0.24600  0.39000  0.69960  Biso   1.000  C
  H82      1.0000 0.29620  0.39120  0.69360  Biso   1.000  H
  N41      1.0000 0.20790  0.34050  0.72720  Biso   1.000  N
  C83      1.0000 0.13520  0.35730  0.72710  Biso   1.000  C
  H83      1.0000 0.09720  0.33250  0.74290  Biso   1.000  H
  N42      1.0000 0.12830  0.41720  0.69940  Biso   1.000  N
  C84      1.0000 0.06630  0.44550  0.69080  Biso   1.000  C
  H84      1.0000 0.09200  0.53890  0.65750  Biso   1.000  H
  O120     1.0000 0.24000  0.27420  0.83960  Biso   1.000  O
  C85      1.0000 0.18780  0.44250  0.77490  Biso   1.000  C
  H85      1.0000 0.19570  0.48770  0.77410  Biso   1.000  H
  H86      1.0000 0.09530  0.53630  0.84650  Biso   1.000  H
  N43      1.0000 0.20010  0.33490  0.76200  Biso   1.000  N
  N44      1.0000 0.12670  0.40950  0.79440  Biso   1.000  N
  C86      1.0000 0.14040  0.34320  0.78390  Biso   1.000  C
  H87      1.0000 0.10630  0.31010  0.79040  Biso   1.000  H
  C87      1.0000 0.23250  0.39410  0.75630  Biso   1.000  C
  C88      1.0000 0.06340  0.43350  0.81190  Biso   1.000  C
  O121     1.0000 0.24620  0.23490  0.84130  Biso   1.000  O
  H88      1.0000 0.27920  0.40130  0.74140  Biso   1.000  H
  W45      1.0000 0.58693  0.67081  0.21006  Biso   1.000  W
  W46      1.0000 0.58723  0.77703  0.08033  Biso   1.000  W
  W47      1.0000 0.68000  0.62497  0.07940  Biso   1.000  W
  W48      1.0000 0.68043  0.54406  0.12905  Biso   1.000  W
  O122     1.0000 0.57990  0.73920  0.15460  Biso   1.000  O
  O123     1.0000 0.64700  0.70880  0.25450  Biso   1.000  O
  O124     1.0000 0.58160  0.59160  0.25280  Biso   1.000  O
  O125     1.0000 0.64810  0.63040  0.15890  Biso   1.000  O
  O126     1.0000 0.64940  0.70980  0.06110  Biso   1.000  O
  O127     1.0000 0.68190  0.58370  0.05760  Biso   1.000  O
  O128     1.0000 0.68610  0.53560  0.09310  Biso   1.000  O
  O129     1.0000 0.56580  0.53490  0.10760  Biso   1.000  O
  O130     1.0000 0.56590  0.60420  0.06580  Biso   1.000  O
  C89      1.0000 0.69690  0.93740  0.18250  Biso   1.000  C
  H89      1.0000 0.70800  0.97700  0.16400  Biso   1.000  H
  C90      1.0000 0.74600  0.89000  0.19960  Biso   1.000  C
  H90      1.0000 0.79620  0.89120  0.19360  Biso   1.000  H
  N45      1.0000 0.70790  0.84050  0.22720  Biso   1.000  N
  C91      1.0000 0.63520  0.85730  0.22710  Biso   1.000  C
  H91      1.0000 0.59720  0.83250  0.24290  Biso   1.000  H
  N46      1.0000 0.62830  0.91720  0.19940  Biso   1.000  N
  C92      1.0000 0.56630  0.94550  0.19080  Biso   1.000  C
  H92      1.0000 0.59200  0.03890  0.15750  Biso   1.000  H
  O131     1.0000 0.74000  0.77420  0.33960  Biso   1.000  O
  C93      1.0000 0.68780  0.94250  0.27490  Biso   1.000  C
  H93      1.0000 0.69570  0.98770  0.27410  Biso   1.000  H
  H94      1.0000 0.59530  0.03630  0.34650  Biso   1.000  H
  N47      1.0000 0.70010  0.83490  0.26200  Biso   1.000  N
  N48      1.0000 0.62670  0.90950  0.29440  Biso   1.000  N
  C94      1.0000 0.64040  0.84320  0.28390  Biso   1.000  C
  H95      1.0000 0.60630  0.81010  0.29040  Biso   1.000  H
  C95      1.0000 0.73250  0.89410  0.25630  Biso   1.000  C
  C96      1.0000 0.56340  0.93350  0.31190  Biso   1.000  C
  O132     1.0000 0.74620  0.73490  0.34130  Biso   1.000  O
  H96      1.0000 0.77920  0.90130  0.24140  Biso   1.000  H
  W49      1.0000 0.08693  0.82919  0.28994  Biso   1.000  W
  W50      1.0000 0.08723  0.72297  0.41967  Biso   1.000  W
  W51      1.0000 0.18000  0.87503  0.42060  Biso   1.000  W
  W52      1.0000 0.18043  0.95594  0.37095  Biso   1.000  W
  O133     1.0000 0.07990  0.76080  0.34540  Biso   1.000  O
  O134     1.0000 0.14700  0.79120  0.24550  Biso   1.000  O
  O135     1.0000 0.08160  0.90840  0.24720  Biso   1.000  O
  O136     1.0000 0.14810  0.86960  0.34110  Biso   1.000  O
  O137     1.0000 0.14940  0.79020  0.43890  Biso   1.000  O
  O138     1.0000 0.18190  0.91630  0.44240  Biso   1.000  O
  O139     1.0000 0.18610  0.96440  0.40690  Biso   1.000  O
  O140     1.0000 0.06580  0.96510  0.39240  Biso   1.000  O
  O141     1.0000 0.06590  0.89580  0.43420  Biso   1.000  O
  C97      1.0000 0.19690  0.56260  0.31750  Biso   1.000  C
  H97      1.0000 0.20800  0.52300  0.33600  Biso   1.000  H
  C98      1.0000 0.24600  0.61000  0.30040  Biso   1.000  C
  H98      1.0000 0.29620  0.60880  0.30640  Biso   1.000  H
  N49      1.0000 0.20790  0.65950  0.27280  Biso   1.000  N
  C99      1.0000 0.13520  0.64270  0.27290  Biso   1.000  C
  H99      1.0000 0.09720  0.66750  0.25710  Biso   1.000  H
  N50      1.0000 0.12830  0.58280  0.30060  Biso   1.000  N
  C100     1.0000 0.06630  0.55450  0.30920  Biso   1.000  C
  H100     1.0000 0.09200  0.46110  0.34250  Biso   1.000  H
  O142     1.0000 0.24000  0.72580  0.16040  Biso   1.000  O
  C101     1.0000 0.18780  0.55750  0.22510  Biso   1.000  C
  H101     1.0000 0.19570  0.51230  0.22590  Biso   1.000  H
  H102     1.0000 0.09530  0.46370  0.15350  Biso   1.000  H
  N51      1.0000 0.20010  0.66510  0.23800  Biso   1.000  N
  N52      1.0000 0.12670  0.59050  0.20560  Biso   1.000  N
  C102     1.0000 0.14040  0.65680  0.21610  Biso   1.000  C
  H103     1.0000 0.10630  0.68990  0.20960  Biso   1.000  H
  C103     1.0000 0.23250  0.60590  0.24370  Biso   1.000  C
  C104     1.0000 0.06340  0.56650  0.18810  Biso   1.000  C
  O143     1.0000 0.24620  0.76510  0.15870  Biso   1.000  O
  H104     1.0000 0.27920  0.59870  0.25860  Biso   1.000  H
  W53      1.0000 0.58693  0.32919  0.78994  Biso   1.000  W
  W54      1.0000 0.58723  0.22297  0.91967  Biso   1.000  W
  W55      1.0000 0.68000  0.37503  0.92060  Biso   1.000  W
  W56      1.0000 0.68043  0.45594  0.87095  Biso   1.000  W
  O144     1.0000 0.57990  0.26080  0.84540  Biso   1.000  O
  O145     1.0000 0.64700  0.29120  0.74550  Biso   1.000  O
  O146     1.0000 0.58160  0.40840  0.74720  Biso   1.000  O
  O147     1.0000 0.64810  0.36960  0.84110  Biso   1.000  O
  O148     1.0000 0.64940  0.29020  0.93890  Biso   1.000  O
  O149     1.0000 0.68190  0.41630  0.94240  Biso   1.000  O
  O150     1.0000 0.68610  0.46440  0.90690  Biso   1.000  O
  O151     1.0000 0.56580  0.46510  0.89240  Biso   1.000  O
  O152     1.0000 0.56590  0.39580  0.93420  Biso   1.000  O
  C105     1.0000 0.69690  0.06260  0.81750  Biso   1.000  C
  H105     1.0000 0.70800  0.02300  0.83600  Biso   1.000  H
  C106     1.0000 0.74600  0.11000  0.80040  Biso   1.000  C
  H106     1.0000 0.79620  0.10880  0.80640  Biso   1.000  H
  N53      1.0000 0.70790  0.15950  0.77280  Biso   1.000  N
  C107     1.0000 0.63520  0.14270  0.77290  Biso   1.000  C
  H107     1.0000 0.59720  0.16750  0.75710  Biso   1.000  H
  N54      1.0000 0.62830  0.08280  0.80060  Biso   1.000  N
  C108     1.0000 0.56630  0.05450  0.80920  Biso   1.000  C
  H108     1.0000 0.59200  0.96110  0.84250  Biso   1.000  H
  O153     1.0000 0.74000  0.22580  0.66040  Biso   1.000  O
  C109     1.0000 0.68780  0.05750  0.72510  Biso   1.000  C
  H109     1.0000 0.69570  0.01230  0.72590  Biso   1.000  H
  H110     1.0000 0.59530  0.96370  0.65350  Biso   1.000  H
  N55      1.0000 0.70010  0.16510  0.73800  Biso   1.000  N
  N56      1.0000 0.62670  0.09050  0.70560  Biso   1.000  N
  C110     1.0000 0.64040  0.15680  0.71610  Biso   1.000  C
  H111     1.0000 0.60630  0.18990  0.70960  Biso   1.000  H
  C111     1.0000 0.73250  0.10590  0.74370  Biso   1.000  C
  C112     1.0000 0.56340  0.06650  0.68810  Biso   1.000  C
  O154     1.0000 0.74620  0.26510  0.65870  Biso   1.000  O
  H112     1.0000 0.77920  0.09870  0.75860  Biso   1.000  H
  W57      1.0000 0.91307  0.17081  0.28994  Biso   1.000  W
  W58      1.0000 0.91277  0.27703  0.41967  Biso   1.000  W
  W59      1.0000 0.82000  0.12497  0.42060  Biso   1.000  W
  W60      1.0000 0.81957  0.04406  0.37095  Biso   1.000  W
  O155     1.0000 0.92010  0.23920  0.34540  Biso   1.000  O
  O156     1.0000 0.85300  0.20880  0.24550  Biso   1.000  O
  O157     1.0000 0.91840  0.09160  0.24720  Biso   1.000  O
  O158     1.0000 0.85190  0.13040  0.34110  Biso   1.000  O
  O159     1.0000 0.85060  0.20980  0.43890  Biso   1.000  O
  O160     1.0000 0.81810  0.08370  0.44240  Biso   1.000  O
  O161     1.0000 0.81390  0.03560  0.40690  Biso   1.000  O
  O162     1.0000 0.93420  0.03490  0.39240  Biso   1.000  O
  O163     1.0000 0.93410  0.10420  0.43420  Biso   1.000  O
  C113     1.0000 0.80310  0.43740  0.31750  Biso   1.000  C
  H113     1.0000 0.79200  0.47700  0.33600  Biso   1.000  H
  C114     1.0000 0.75400  0.39000  0.30040  Biso   1.000  C
  H114     1.0000 0.70380  0.39120  0.30640  Biso   1.000  H
  N57      1.0000 0.79210  0.34050  0.27280  Biso   1.000  N
  C115     1.0000 0.86480  0.35730  0.27290  Biso   1.000  C
  H115     1.0000 0.90280  0.33250  0.25710  Biso   1.000  H
  N58      1.0000 0.87170  0.41720  0.30060  Biso   1.000  N
  C116     1.0000 0.93370  0.44550  0.30920  Biso   1.000  C
  H116     1.0000 0.90800  0.53890  0.34250  Biso   1.000  H
  O164     1.0000 0.76000  0.27420  0.16040  Biso   1.000  O
  C117     1.0000 0.81220  0.44250  0.22510  Biso   1.000  C
  H117     1.0000 0.80430  0.48770  0.22590  Biso   1.000  H
  H118     1.0000 0.90470  0.53630  0.15350  Biso   1.000  H
  N59      1.0000 0.79990  0.33490  0.23800  Biso   1.000  N
  N60      1.0000 0.87330  0.40950  0.20560  Biso   1.000  N
  C118     1.0000 0.85960  0.34320  0.21610  Biso   1.000  C
  H119     1.0000 0.89370  0.31010  0.20960  Biso   1.000  H
  C119     1.0000 0.76750  0.39410  0.24370  Biso   1.000  C
  C120     1.0000 0.93660  0.43350  0.18810  Biso   1.000  C
  O165     1.0000 0.75380  0.23490  0.15870  Biso   1.000  O
  H120     1.0000 0.72080  0.40130  0.25860  Biso   1.000  H
  W61      1.0000 0.41307  0.67081  0.78994  Biso   1.000  W
  W62      1.0000 0.41277  0.77703  0.91967  Biso   1.000  W
  W63      1.0000 0.32000  0.62497  0.92060  Biso   1.000  W
  W64      1.0000 0.31957  0.54406  0.87095  Biso   1.000  W
  O166     1.0000 0.42010  0.73920  0.84540  Biso   1.000  O
  O167     1.0000 0.35300  0.70880  0.74550  Biso   1.000  O
  O168     1.0000 0.41840  0.59160  0.74720  Biso   1.000  O
  O169     1.0000 0.35190  0.63040  0.84110  Biso   1.000  O
  O170     1.0000 0.35060  0.70980  0.93890  Biso   1.000  O
  O171     1.0000 0.31810  0.58370  0.94240  Biso   1.000  O
  O172     1.0000 0.31390  0.53560  0.90690  Biso   1.000  O
  O173     1.0000 0.43420  0.53490  0.89240  Biso   1.000  O
  O174     1.0000 0.43410  0.60420  0.93420  Biso   1.000  O
  C121     1.0000 0.30310  0.93740  0.81750  Biso   1.000  C
  H121     1.0000 0.29200  0.97700  0.83600  Biso   1.000  H
  C122     1.0000 0.25400  0.89000  0.80040  Biso   1.000  C
  H122     1.0000 0.20380  0.89120  0.80640  Biso   1.000  H
  N61      1.0000 0.29210  0.84050  0.77280  Biso   1.000  N
  C123     1.0000 0.36480  0.85730  0.77290  Biso   1.000  C
  H123     1.0000 0.40280  0.83250  0.75710  Biso   1.000  H
  N62      1.0000 0.37170  0.91720  0.80060  Biso   1.000  N
  C124     1.0000 0.43370  0.94550  0.80920  Biso   1.000  C
  H124     1.0000 0.40800  0.03890  0.84250  Biso   1.000  H
  O175     1.0000 0.26000  0.77420  0.66040  Biso   1.000  O
  C125     1.0000 0.31220  0.94250  0.72510  Biso   1.000  C
  H125     1.0000 0.30430  0.98770  0.72590  Biso   1.000  H
  H126     1.0000 0.40470  0.03630  0.65350  Biso   1.000  H
  N63      1.0000 0.29990  0.83490  0.73800  Biso   1.000  N
  N64      1.0000 0.37330  0.90950  0.70560  Biso   1.000  N
  C126     1.0000 0.35960  0.84320  0.71610  Biso   1.000  C
  H127     1.0000 0.39370  0.81010  0.70960  Biso   1.000  H
  C127     1.0000 0.26750  0.89410  0.74370  Biso   1.000  C
  C128     1.0000 0.43660  0.93350  0.68810  Biso   1.000  C
  O176     1.0000 0.25380  0.73490  0.65870  Biso   1.000  O
  H128     1.0000 0.22080  0.90130  0.75860  Biso   1.000  H
  W65      1.0000 0.08778  0.00000  0.23895  Biso   1.000  W
  O177     1.0000 0.15000  0.00000  0.29990  Biso   1.000  O
  W66      1.0000 0.58778  0.50000  0.73895  Biso   1.000  W
  O178     1.0000 0.65000  0.50000  0.79990  Biso   1.000  O
  W67      1.0000 0.91222  0.00000  0.23895  Biso   1.000  W
  O179     1.0000 0.85000  0.00000  0.29990  Biso   1.000  O
  W68      1.0000 0.41222  0.50000  0.73895  Biso   1.000  W
  O180     1.0000 0.35000  0.50000  0.79990  Biso   1.000  O
  W69      1.0000 0.91222  0.00000  0.76105  Biso   1.000  W
  O181     1.0000 0.85000  0.00000  0.70010  Biso   1.000  O
  W70      1.0000 0.41222  0.50000  0.26105  Biso   1.000  W
  O182     1.0000 0.35000  0.50000  0.20010  Biso   1.000  O
  W71      1.0000 0.08778  0.00000  0.76105  Biso   1.000  W
  O183     1.0000 0.15000  0.00000  0.70010  Biso   1.000  O
  W72      1.0000 0.58778  0.50000  0.26105  Biso   1.000  W
  O184     1.0000 0.65000  0.50000  0.20010  Biso   1.000  O
  W73      1.0000 0.17931  0.14881  0.50000  Biso   1.000  W
  O185     1.0000 0.08140  0.29550  0.50000  Biso   1.000  O
  O186     1.0000 0.18680  0.11400  0.50000  Biso   1.000  O
  O187     1.0000 0.06620  0.12200  0.50000  Biso   1.000  O
  W74      1.0000 0.67931  0.64881  0.00000  Biso   1.000  W
  O188     1.0000 0.58140  0.79550  0.00000  Biso   1.000  O
  O189     1.0000 0.68680  0.61400  0.00000  Biso   1.000  O
  O190     1.0000 0.56620  0.62200  0.00000  Biso   1.000  O
  W75      1.0000 0.82069  0.85119  0.50000  Biso   1.000  W
  O191     1.0000 0.91860  0.70450  0.50000  Biso   1.000  O
  O192     1.0000 0.81320  0.88600  0.50000  Biso   1.000  O
  O193     1.0000 0.93380  0.87800  0.50000  Biso   1.000  O
  W76      1.0000 0.32069  0.35119  0.00000  Biso   1.000  W
  O194     1.0000 0.41860  0.20450  0.00000  Biso   1.000  O
  O195     1.0000 0.31320  0.38600  0.00000  Biso   1.000  O
  O196     1.0000 0.43380  0.37800  0.00000  Biso   1.000  O
  W77      1.0000 0.82069  0.14881  0.50000  Biso   1.000  W
  O197     1.0000 0.91860  0.29550  0.50000  Biso   1.000  O
  O198     1.0000 0.81320  0.11400  0.50000  Biso   1.000  O
  O199     1.0000 0.93380  0.12200  0.50000  Biso   1.000  O
  W78      1.0000 0.32069  0.64881  0.00000  Biso   1.000  W
  O200     1.0000 0.41860  0.79550  0.00000  Biso   1.000  O
  O201     1.0000 0.31320  0.61400  0.00000  Biso   1.000  O
  O202     1.0000 0.43380  0.62200  0.00000  Biso   1.000  O
  W79      1.0000 0.17931  0.85119  0.50000  Biso   1.000  W
  O203     1.0000 0.08140  0.70450  0.50000  Biso   1.000  O
  O204     1.0000 0.18680  0.88600  0.50000  Biso   1.000  O
  O205     1.0000 0.06620  0.87800  0.50000  Biso   1.000  O
  W80      1.0000 0.67931  0.35119  0.00000  Biso   1.000  W
  O206     1.0000 0.58140  0.20450  0.00000  Biso   1.000  O
  O207     1.0000 0.68680  0.38600  0.00000  Biso   1.000  O
  O208     1.0000 0.56620  0.37800  0.00000  Biso   1.000  O
  P1       1.0000 0.00000  0.16270  0.50000  Biso   1.000  P
  P2       1.0000 0.50000  0.66270  0.00000  Biso   1.000  P
  P3       1.0000 0.00000  0.83730  0.50000  Biso   1.000  P
  P4       1.0000 0.50000  0.33730  0.00000  Biso   1.000  P
  P5       1.0000 0.00000  0.13600  0.41370  Biso   1.000  P
  P6       1.0000 0.00000  0.04860  0.35850  Biso   1.000  P
  O209     1.0000 0.00000  0.32100  0.40850  Biso   1.000  O
  O210     1.0000 0.00000  0.19750  0.25400  Biso   1.000  O
  O211     1.0000 0.00000  0.12740  0.34260  Biso   1.000  O
  O212     1.0000 0.00000  0.20750  0.43930  Biso   1.000  O
  C129     1.0000 0.00000  0.41500  0.29700  Biso   1.000  C
  H129     1.0000 0.00000  0.37320  0.27980  Biso   1.000  H
  C130     1.0000 0.00000  0.46100  0.34300  Biso   1.000  C
  H130     1.0000 0.00000  0.41760  0.35490  Biso   1.000  H
  C131     1.0000 0.00000  0.40600  0.20900  Biso   1.000  C
  H131     1.0000 0.00000  0.37110  0.23540  Biso   1.000  H
  C132     1.0000 0.00000  0.48000  0.13700  Biso   1.000  C
  H132     1.0000 0.00000  0.44840  0.10740  Biso   1.000  H
  P7       1.0000 0.50000  0.63600  0.91370  Biso   1.000  P
  P8       1.0000 0.50000  0.54860  0.85850  Biso   1.000  P
  O213     1.0000 0.50000  0.82100  0.90850  Biso   1.000  O
  O214     1.0000 0.50000  0.69750  0.75400  Biso   1.000  O
  O215     1.0000 0.50000  0.62740  0.84260  Biso   1.000  O
  O216     1.0000 0.50000  0.70750  0.93930  Biso   1.000  O
  C133     1.0000 0.50000  0.91500  0.79700  Biso   1.000  C
  H133     1.0000 0.50000  0.87320  0.77980  Biso   1.000  H
  C134     1.0000 0.50000  0.96100  0.84300  Biso   1.000  C
  H134     1.0000 0.50000  0.91760  0.85490  Biso   1.000  H
  C135     1.0000 0.50000  0.90600  0.70900  Biso   1.000  C
  H135     1.0000 0.50000  0.87110  0.73540  Biso   1.000  H
  C136     1.0000 0.50000  0.98000  0.63700  Biso   1.000  C
  H136     1.0000 0.50000  0.94840  0.60740  Biso   1.000  H
  P9       1.0000 0.00000  0.86400  0.41370  Biso   1.000  P
  P10      1.0000 0.00000  0.95140  0.35850  Biso   1.000  P
  O217     1.0000 0.00000  0.67900  0.40850  Biso   1.000  O
  O218     1.0000 0.00000  0.80250  0.25400  Biso   1.000  O
  O219     1.0000 0.00000  0.87260  0.34260  Biso   1.000  O
  O220     1.0000 0.00000  0.79250  0.43930  Biso   1.000  O
  C137     1.0000 0.00000  0.58500  0.29700  Biso   1.000  C
  H137     1.0000 0.00000  0.62680  0.27980  Biso   1.000  H
  C138     1.0000 0.00000  0.53900  0.34300  Biso   1.000  C
  H138     1.0000 0.00000  0.58240  0.35490  Biso   1.000  H
  C139     1.0000 0.00000  0.59400  0.20900  Biso   1.000  C
  H139     1.0000 0.00000  0.62890  0.23540  Biso   1.000  H
  C140     1.0000 0.00000  0.52000  0.13700  Biso   1.000  C
  H140     1.0000 0.00000  0.55160  0.10740  Biso   1.000  H
  P11      1.0000 0.50000  0.36400  0.91370  Biso   1.000  P
  P12      1.0000 0.50000  0.45140  0.85850  Biso   1.000  P
  O221     1.0000 0.50000  0.17900  0.90850  Biso   1.000  O
  O222     1.0000 0.50000  0.30250  0.75400  Biso   1.000  O
  O223     1.0000 0.50000  0.37260  0.84260  Biso   1.000  O
  O224     1.0000 0.50000  0.29250  0.93930  Biso   1.000  O
  C141     1.0000 0.50000  0.08500  0.79700  Biso   1.000  C
  H141     1.0000 0.50000  0.12680  0.77980  Biso   1.000  H
  C142     1.0000 0.50000  0.03900  0.84300  Biso   1.000  C
  H142     1.0000 0.50000  0.08240  0.85490  Biso   1.000  H
  C143     1.0000 0.50000  0.09400  0.70900  Biso   1.000  C
  H143     1.0000 0.50000  0.12890  0.73540  Biso   1.000  H
  C144     1.0000 0.50000  0.02000  0.63700  Biso   1.000  C
  H144     1.0000 0.50000  0.05160  0.60740  Biso   1.000  H
  P13      1.0000 0.00000  0.13600  0.58630  Biso   1.000  P
  P14      1.0000 0.00000  0.04860  0.64150  Biso   1.000  P
  O225     1.0000 0.00000  0.32100  0.59150  Biso   1.000  O
  O226     1.0000 0.00000  0.19750  0.74600  Biso   1.000  O
  O227     1.0000 0.00000  0.12740  0.65740  Biso   1.000  O
  O228     1.0000 0.00000  0.20750  0.56070  Biso   1.000  O
  C145     1.0000 0.00000  0.41500  0.70300  Biso   1.000  C
  H145     1.0000 0.00000  0.37320  0.72020  Biso   1.000  H
  C146     1.0000 0.00000  0.46100  0.65700  Biso   1.000  C
  H146     1.0000 0.00000  0.41760  0.64510  Biso   1.000  H
  C147     1.0000 0.00000  0.40600  0.79100  Biso   1.000  C
  H147     1.0000 0.00000  0.37110  0.76460  Biso   1.000  H
  C148     1.0000 0.00000  0.48000  0.86300  Biso   1.000  C
  H148     1.0000 0.00000  0.44840  0.89260  Biso   1.000  H
  P15      1.0000 0.50000  0.63600  0.08630  Biso   1.000  P
  P16      1.0000 0.50000  0.54860  0.14150  Biso   1.000  P
  O229     1.0000 0.50000  0.82100  0.09150  Biso   1.000  O
  O230     1.0000 0.50000  0.69750  0.24600  Biso   1.000  O
  O231     1.0000 0.50000  0.62740  0.15740  Biso   1.000  O
  O232     1.0000 0.50000  0.70750  0.06070  Biso   1.000  O
  C149     1.0000 0.50000  0.91500  0.20300  Biso   1.000  C
  H149     1.0000 0.50000  0.87320  0.22020  Biso   1.000  H
  C150     1.0000 0.50000  0.96100  0.15700  Biso   1.000  C
  H150     1.0000 0.50000  0.91760  0.14510  Biso   1.000  H
  C151     1.0000 0.50000  0.90600  0.29100  Biso   1.000  C
  H151     1.0000 0.50000  0.87110  0.26460  Biso   1.000  H
  C152     1.0000 0.50000  0.98000  0.36300  Biso   1.000  C
  H152     1.0000 0.50000  0.94840  0.39260  Biso   1.000  H
  P17      1.0000 0.00000  0.86400  0.58630  Biso   1.000  P
  P18      1.0000 0.00000  0.95140  0.64150  Biso   1.000  P
  O233     1.0000 0.00000  0.67900  0.59150  Biso   1.000  O
  O234     1.0000 0.00000  0.80250  0.74600  Biso   1.000  O
  O235     1.0000 0.00000  0.87260  0.65740  Biso   1.000  O
  O236     1.0000 0.00000  0.79250  0.56070  Biso   1.000  O
  C153     1.0000 0.00000  0.58500  0.70300  Biso   1.000  C
  H153     1.0000 0.00000  0.62680  0.72020  Biso   1.000  H
  C154     1.0000 0.00000  0.53900  0.65700  Biso   1.000  C
  H154     1.0000 0.00000  0.58240  0.64510  Biso   1.000  H
  C155     1.0000 0.00000  0.59400  0.79100  Biso   1.000  C
  H155     1.0000 0.00000  0.62890  0.76460  Biso   1.000  H
  C156     1.0000 0.00000  0.52000  0.86300  Biso   1.000  C
  H156     1.0000 0.00000  0.55160  0.89260  Biso   1.000  H
  P19      1.0000 0.50000  0.36400  0.08630  Biso   1.000  P
  P20      1.0000 0.50000  0.45140  0.14150  Biso   1.000  P
  O237     1.0000 0.50000  0.17900  0.09150  Biso   1.000  O
  O238     1.0000 0.50000  0.30250  0.24600  Biso   1.000  O
  O239     1.0000 0.50000  0.37260  0.15740  Biso   1.000  O
  O240     1.0000 0.50000  0.29250  0.06070  Biso   1.000  O
  C157     1.0000 0.50000  0.08500  0.20300  Biso   1.000  C
  H157     1.0000 0.50000  0.12680  0.22020  Biso   1.000  H
  C158     1.0000 0.50000  0.03900  0.15700  Biso   1.000  C
  H158     1.0000 0.50000  0.08240  0.14510  Biso   1.000  H
  C159     1.0000 0.50000  0.09400  0.29100  Biso   1.000  C
  H159     1.0000 0.50000  0.12890  0.26460  Biso   1.000  H
  C160     1.0000 0.50000  0.02000  0.36300  Biso   1.000  C
  H160     1.0000 0.50000  0.05160  0.39260  Biso   1.000  H
  O241     1.0000 0.00000  0.00000  0.19670  Biso   1.000  O
  O242     1.0000 0.00000  0.00000  0.30470  Biso   1.000  O
  O243     1.0000 0.50000  0.50000  0.69670  Biso   1.000  O
  O244     1.0000 0.50000  0.50000  0.80470  Biso   1.000  O
  O245     1.0000 0.00000  0.00000  0.80330  Biso   1.000  O
  O246     1.0000 0.00000  0.00000  0.69530  Biso   1.000  O
  O247     1.0000 0.50000  0.50000  0.30330  Biso   1.000  O
  O248     1.0000 0.50000  0.50000  0.19530  Biso   1.000  O
  Co1      1.0000 0.25000  0.25000  0.25000  Biso   1.000  Co
  Co2      1.0000 0.75000  0.75000  0.25000  Biso   1.000  Co
  Co3      1.0000 0.75000  0.25000  0.75000  Biso   1.000  Co
  Co4      1.0000 0.25000  0.75000  0.75000  Biso   1.000  Co
  Co5      1.0000 0.75000  0.75000  0.75000  Biso   1.000  Co
  Co6      1.0000 0.25000  0.25000  0.75000  Biso   1.000  Co
  Co7      1.0000 0.25000  0.75000  0.25000  Biso   1.000  Co
  Co8      1.0000 0.75000  0.25000  0.25000  Biso   1.000  Co
  C161     1.0000 0.06690  0.50000  0.33510  Biso   1.000  C
  C162     1.0000 0.06480  0.50000  0.15750  Biso   1.000  C
  C163     1.0000 0.56690  0.00000  0.83510  Biso   1.000  C
  C164     1.0000 0.56480  0.00000  0.65750  Biso   1.000  C
  C165     1.0000 0.93310  0.50000  0.33510  Biso   1.000  C
  C166     1.0000 0.93520  0.50000  0.15750  Biso   1.000  C
  C167     1.0000 0.43310  0.00000  0.83510  Biso   1.000  C
  C168     1.0000 0.43520  0.00000  0.65750  Biso   1.000  C
  C169     1.0000 0.93310  0.50000  0.66490  Biso   1.000  C
  C170     1.0000 0.93520  0.50000  0.84250  Biso   1.000  C
  C171     1.0000 0.43310  0.00000  0.16490  Biso   1.000  C
  C172     1.0000 0.43520  0.00000  0.34250  Biso   1.000  C
  C173     1.0000 0.06690  0.50000  0.66490  Biso   1.000  C
  C174     1.0000 0.06480  0.50000  0.84250  Biso   1.000  C
  C175     1.0000 0.56690  0.00000  0.16490  Biso   1.000  C
  C176     1.0000 0.56480  0.00000  0.34250  Biso   1.000  C
  O249     1.0000 0.04600  0.00000  0.50000  Biso   1.000  O
  K1       1.0000 0.08640  0.00000  0.50000  Biso   1.000  K
  O250     1.0000 0.54600  0.50000  0.00000  Biso   1.000  O
  K2       1.0000 0.58640  0.50000  0.00000  Biso   1.000  K
  O251     1.0000 0.95400  0.00000  0.50000  Biso   1.000  O
  K3       1.0000 0.91360  0.00000  0.50000  Biso   1.000  K
  O252     1.0000 0.45400  0.50000  0.00000  Biso   1.000  O
  K4       1.0000 0.41360  0.50000  0.00000  Biso   1.000  K
