data_image0
_cell_length_a       21.4718
_cell_length_b       21.4718
_cell_length_c       22.42
_cell_angle_alpha    90
_cell_angle_beta     90
_cell_angle_gamma    120

_symmetry_space_group_name_H-M    "P 1"
_symmetry_int_tables_number       1

loop_
  _symmetry_equiv_pos_as_xyz
  'x, y, z'

loop_
  _atom_site_label
  _atom_site_occupancy
  _atom_site_fract_x
  _atom_site_fract_y
  _atom_site_fract_z
  _atom_site_thermal_displace_type
  _atom_site_B_iso_or_equiv
  _atom_site_type_symbol
  Zn1      1.0000 0.66348  0.18187  0.76813  Biso   1.000  Zn
  O1       1.0000 0.52233  0.29366  0.97434  Biso   1.000  O
  O2       1.0000 0.56974  0.23303  0.93038  Biso   1.000  O
  O3       1.0000 0.49796  0.91160  0.10404  Biso   1.000  O
  O4       1.0000 0.50554  0.91796  0.20442  Biso   1.000  O
  C1       1.0000 0.54440  0.15570  0.03739  Biso   1.000  C
  H1       1.0000 0.54430  0.13200  0.00160  Biso   1.000  H
  C2       1.0000 0.54909  0.22013  0.03450  Biso   1.000  C
  C3       1.0000 0.55230  0.25770  0.08707  Biso   1.000  C
  H2       1.0000 0.55590  0.30350  0.08450  Biso   1.000  H
  C4       1.0000 0.55010  0.22830  0.14196  Biso   1.000  C
  H3       1.0000 0.55310  0.25440  0.17720  Biso   1.000  H
  C5       1.0000 0.53810  0.12590  0.20187  Biso   1.000  C
  H4       1.0000 0.54180  0.15080  0.23790  Biso   1.000  H
  C6       1.0000 0.52750  0.05730  0.20377  Biso   1.000  C
  H5       1.0000 0.52410  0.03520  0.24130  Biso   1.000  H
  C7       1.0000 0.52150  0.01930  0.15104  Biso   1.000  C
  C8       1.0000 0.52820  0.05140  0.09711  Biso   1.000  C
  H6       1.0000 0.52530  0.02600  0.06160  Biso   1.000  H
  C9       1.0000 0.53950  0.12190  0.09335  Biso   1.000  C
  C10      1.0000 0.54350  0.15950  0.14636  Biso   1.000  C
  C11      1.0000 0.54845  0.25169  0.97455  Biso   1.000  C
  C12      1.0000 0.50670  0.94400  0.15325  Biso   1.000  C
  O5       1.0000 0.48220  0.15060  0.83340  Biso   1.000  O
  C13      1.0000 0.44290  0.11310  0.87000  Biso   1.000  C
  H7       1.0000 0.45660  0.12480  0.91050  Biso   1.000  H
  N1       1.0000 0.37630  0.05100  0.85780  Biso   1.000  N
  C14      1.0000 0.37020  0.02780  0.87440  Biso   1.000  C
  H8       1.0000 0.31620  0.03610  0.78260  Biso   1.000  H
  H9       1.0000 0.32370  0.02320  0.88460  Biso   1.000  H
  H10      1.0000 0.40840  0.06740  0.89730  Biso   1.000  H
  C15      1.0000 0.34180  0.01240  0.90860  Biso   1.000  C
  H11      1.0000 0.33500  0.96380  0.90580  Biso   1.000  H
  H12      1.0000 0.29480  0.00930  0.91220  Biso   1.000  H
  H13      1.0000 0.37100  0.03670  0.94370  Biso   1.000  H
  Zn2      1.0000 0.33015  0.51520  0.10146  Biso   1.000  Zn
  O6       1.0000 0.18900  0.62699  0.30767  Biso   1.000  O
  O7       1.0000 0.23641  0.56636  0.26371  Biso   1.000  O
  O8       1.0000 0.16463  0.24493  0.43737  Biso   1.000  O
  O9       1.0000 0.17221  0.25129  0.53775  Biso   1.000  O
  C16      1.0000 0.21107  0.48903  0.37072  Biso   1.000  C
  H14      1.0000 0.21097  0.46533  0.33493  Biso   1.000  H
  C17      1.0000 0.21576  0.55346  0.36783  Biso   1.000  C
  C18      1.0000 0.21897  0.59103  0.42040  Biso   1.000  C
  H15      1.0000 0.22257  0.63683  0.41783  Biso   1.000  H
  C19      1.0000 0.21677  0.56163  0.47529  Biso   1.000  C
  H16      1.0000 0.21977  0.58773  0.51053  Biso   1.000  H
  C20      1.0000 0.20477  0.45923  0.53520  Biso   1.000  C
  H17      1.0000 0.20847  0.48413  0.57123  Biso   1.000  H
  C21      1.0000 0.19417  0.39063  0.53710  Biso   1.000  C
  H18      1.0000 0.19077  0.36853  0.57463  Biso   1.000  H
  C22      1.0000 0.18817  0.35263  0.48437  Biso   1.000  C
  C23      1.0000 0.19487  0.38473  0.43044  Biso   1.000  C
  H19      1.0000 0.19197  0.35933  0.39493  Biso   1.000  H
  C24      1.0000 0.20617  0.45523  0.42668  Biso   1.000  C
  C25      1.0000 0.21017  0.49283  0.47969  Biso   1.000  C
  C26      1.0000 0.21512  0.58502  0.30788  Biso   1.000  C
  C27      1.0000 0.17337  0.27733  0.48658  Biso   1.000  C
  O10      1.0000 0.14887  0.48393  0.16673  Biso   1.000  O
  C28      1.0000 0.10957  0.44643  0.20333  Biso   1.000  C
  H20      1.0000 0.12327  0.45813  0.24383  Biso   1.000  H
  N2       1.0000 0.04297  0.38433  0.19113  Biso   1.000  N
  C29      1.0000 0.03687  0.36113  0.20773  Biso   1.000  C
  H21      1.0000 0.98287  0.36943  0.11593  Biso   1.000  H
  H22      1.0000 0.99037  0.35653  0.21793  Biso   1.000  H
  H23      1.0000 0.07507  0.40073  0.23063  Biso   1.000  H
  C30      1.0000 0.00847  0.34573  0.24193  Biso   1.000  C
  H24      1.0000 0.00167  0.29713  0.23913  Biso   1.000  H
  H25      1.0000 0.96147  0.34263  0.24553  Biso   1.000  H
  H26      1.0000 0.03767  0.37003  0.27703  Biso   1.000  H
  Zn3      1.0000 0.99682  0.84854  0.43479  Biso   1.000  Zn
  O11      1.0000 0.85566  0.96033  0.64101  Biso   1.000  O
  O12      1.0000 0.90307  0.89970  0.59705  Biso   1.000  O
  O13      1.0000 0.83129  0.57827  0.77071  Biso   1.000  O
  O14      1.0000 0.83887  0.58463  0.87109  Biso   1.000  O
  C31      1.0000 0.87773  0.82237  0.70406  Biso   1.000  C
  H27      1.0000 0.87763  0.79867  0.66827  Biso   1.000  H
  C32      1.0000 0.88242  0.88680  0.70117  Biso   1.000  C
  C33      1.0000 0.88563  0.92437  0.75374  Biso   1.000  C
  H28      1.0000 0.88923  0.97017  0.75117  Biso   1.000  H
  C34      1.0000 0.88343  0.89497  0.80863  Biso   1.000  C
  H29      1.0000 0.88643  0.92107  0.84387  Biso   1.000  H
  C35      1.0000 0.87143  0.79257  0.86854  Biso   1.000  C
  H30      1.0000 0.87513  0.81747  0.90457  Biso   1.000  H
  C36      1.0000 0.86083  0.72397  0.87044  Biso   1.000  C
  H31      1.0000 0.85743  0.70187  0.90797  Biso   1.000  H
  C37      1.0000 0.85483  0.68597  0.81771  Biso   1.000  C
  C38      1.0000 0.86153  0.71807  0.76378  Biso   1.000  C
  H32      1.0000 0.85863  0.69267  0.72827  Biso   1.000  H
  C39      1.0000 0.87283  0.78857  0.76002  Biso   1.000  C
  C40      1.0000 0.87683  0.82617  0.81303  Biso   1.000  C
  C41      1.0000 0.88178  0.91836  0.64122  Biso   1.000  C
  C42      1.0000 0.84003  0.61067  0.81992  Biso   1.000  C
  O15      1.0000 0.81553  0.81727  0.50007  Biso   1.000  O
  C43      1.0000 0.77623  0.77977  0.53667  Biso   1.000  C
  H33      1.0000 0.78993  0.79147  0.57717  Biso   1.000  H
  N3       1.0000 0.70963  0.71767  0.52447  Biso   1.000  N
  C44      1.0000 0.70353  0.69447  0.54107  Biso   1.000  C
  H34      1.0000 0.64953  0.70277  0.44927  Biso   1.000  H
  H35      1.0000 0.65703  0.68987  0.55127  Biso   1.000  H
  H36      1.0000 0.74173  0.73407  0.56397  Biso   1.000  H
  C45      1.0000 0.67513  0.67907  0.57527  Biso   1.000  C
  H37      1.0000 0.66833  0.63047  0.57247  Biso   1.000  H
  H38      1.0000 0.62813  0.67597  0.57887  Biso   1.000  H
  H39      1.0000 0.70433  0.70337  0.61037  Biso   1.000  H
  Zn4      1.0000 0.81813  0.48161  0.76813  Biso   1.000  Zn
  O16      1.0000 0.70634  0.22867  0.97434  Biso   1.000  O
  O17      1.0000 0.76697  0.33671  0.93038  Biso   1.000  O
  O18      1.0000 0.08840  0.58636  0.10404  Biso   1.000  O
  O19      1.0000 0.08204  0.58758  0.20442  Biso   1.000  O
  C46      1.0000 0.84430  0.38870  0.03739  Biso   1.000  C
  H40      1.0000 0.86800  0.41230  0.00160  Biso   1.000  H
  C47      1.0000 0.77987  0.32896  0.03450  Biso   1.000  C
  C48      1.0000 0.74230  0.29460  0.08707  Biso   1.000  C
  H41      1.0000 0.69650  0.25240  0.08450  Biso   1.000  H
  C49      1.0000 0.77170  0.32180  0.14196  Biso   1.000  C
  H42      1.0000 0.74560  0.29870  0.17720  Biso   1.000  H
  C50      1.0000 0.87410  0.41220  0.20187  Biso   1.000  C
  H43      1.0000 0.84920  0.39100  0.23790  Biso   1.000  H
  C51      1.0000 0.94270  0.47020  0.20377  Biso   1.000  C
  H44      1.0000 0.96480  0.48890  0.24130  Biso   1.000  H
  C52      1.0000 0.98070  0.50220  0.15104  Biso   1.000  C
  C53      1.0000 0.94860  0.47680  0.09711  Biso   1.000  C
  H45      1.0000 0.97400  0.49930  0.06160  Biso   1.000  H
  C54      1.0000 0.87810  0.41760  0.09335  Biso   1.000  C
  C55      1.0000 0.84050  0.38400  0.14636  Biso   1.000  C
  C56      1.0000 0.74831  0.29676  0.97455  Biso   1.000  C
  C57      1.0000 0.05600  0.56270  0.15325  Biso   1.000  C
  O20      1.0000 0.84940  0.33160  0.83340  Biso   1.000  O
  C58      1.0000 0.88690  0.32980  0.87000  Biso   1.000  C
  H46      1.0000 0.87520  0.33180  0.91050  Biso   1.000  H
  N4       1.0000 0.94900  0.32530  0.85780  Biso   1.000  N
  C59      1.0000 0.97220  0.34240  0.87440  Biso   1.000  C
  H47      1.0000 0.96390  0.28010  0.78260  Biso   1.000  H
  H48      1.0000 0.97680  0.30050  0.88460  Biso   1.000  H
  H49      1.0000 0.93260  0.34100  0.89730  Biso   1.000  H
  C60      1.0000 0.98760  0.32940  0.90860  Biso   1.000  C
  H50      1.0000 0.03620  0.37120  0.90580  Biso   1.000  H
  H51      1.0000 0.99070  0.28550  0.91220  Biso   1.000  H
  H52      1.0000 0.96330  0.33430  0.94370  Biso   1.000  H
  Zn5      1.0000 0.48480  0.81495  0.10146  Biso   1.000  Zn
  O21      1.0000 0.37301  0.56200  0.30767  Biso   1.000  O
  O22      1.0000 0.43364  0.67004  0.26371  Biso   1.000  O
  O23      1.0000 0.75507  0.91969  0.43737  Biso   1.000  O
  O24      1.0000 0.74871  0.92091  0.53775  Biso   1.000  O
  C61      1.0000 0.51097  0.72203  0.37072  Biso   1.000  C
  H53      1.0000 0.53467  0.74563  0.33493  Biso   1.000  H
  C62      1.0000 0.44654  0.66229  0.36783  Biso   1.000  C
  C63      1.0000 0.40897  0.62793  0.42040  Biso   1.000  C
  H54      1.0000 0.36317  0.58573  0.41783  Biso   1.000  H
  C64      1.0000 0.43837  0.65513  0.47529  Biso   1.000  C
  H55      1.0000 0.41227  0.63203  0.51053  Biso   1.000  H
  C65      1.0000 0.54077  0.74553  0.53520  Biso   1.000  C
  H56      1.0000 0.51587  0.72433  0.57123  Biso   1.000  H
  C66      1.0000 0.60937  0.80353  0.53710  Biso   1.000  C
  H57      1.0000 0.63147  0.82223  0.57463  Biso   1.000  H
  C67      1.0000 0.64737  0.83553  0.48437  Biso   1.000  C
  C68      1.0000 0.61527  0.81013  0.43044  Biso   1.000  C
  H58      1.0000 0.64067  0.83263  0.39493  Biso   1.000  H
  C69      1.0000 0.54477  0.75093  0.42668  Biso   1.000  C
  C70      1.0000 0.50717  0.71733  0.47969  Biso   1.000  C
  C71      1.0000 0.41498  0.63009  0.30788  Biso   1.000  C
  C72      1.0000 0.72267  0.89603  0.48658  Biso   1.000  C
  O25      1.0000 0.51607  0.66493  0.16673  Biso   1.000  O
  C73      1.0000 0.55357  0.66313  0.20333  Biso   1.000  C
  H59      1.0000 0.54187  0.66513  0.24383  Biso   1.000  H
  N5       1.0000 0.61567  0.65863  0.19113  Biso   1.000  N
  C74      1.0000 0.63887  0.67573  0.20773  Biso   1.000  C
  H60      1.0000 0.63057  0.61343  0.11593  Biso   1.000  H
  H61      1.0000 0.64347  0.63383  0.21793  Biso   1.000  H
  H62      1.0000 0.59927  0.67433  0.23063  Biso   1.000  H
  C75      1.0000 0.65427  0.66273  0.24193  Biso   1.000  C
  H63      1.0000 0.70287  0.70453  0.23913  Biso   1.000  H
  H64      1.0000 0.65737  0.61883  0.24553  Biso   1.000  H
  H65      1.0000 0.62997  0.66763  0.27703  Biso   1.000  H
  Zn6      1.0000 0.15146  0.14828  0.43479  Biso   1.000  Zn
  O26      1.0000 0.03967  0.89534  0.64101  Biso   1.000  O
  O27      1.0000 0.10030  0.00338  0.59705  Biso   1.000  O
  O28      1.0000 0.42173  0.25303  0.77071  Biso   1.000  O
  O29      1.0000 0.41537  0.25425  0.87109  Biso   1.000  O
  C76      1.0000 0.17763  0.05537  0.70406  Biso   1.000  C
  H66      1.0000 0.20133  0.07897  0.66827  Biso   1.000  H
  C77      1.0000 0.11320  0.99563  0.70117  Biso   1.000  C
  C78      1.0000 0.07563  0.96127  0.75374  Biso   1.000  C
  H67      1.0000 0.02983  0.91907  0.75117  Biso   1.000  H
  C79      1.0000 0.10503  0.98847  0.80863  Biso   1.000  C
  H68      1.0000 0.07893  0.96537  0.84387  Biso   1.000  H
  C80      1.0000 0.20743  0.07887  0.86854  Biso   1.000  C
  H69      1.0000 0.18253  0.05767  0.90457  Biso   1.000  H
  C81      1.0000 0.27603  0.13687  0.87044  Biso   1.000  C
  H70      1.0000 0.29813  0.15557  0.90797  Biso   1.000  H
  C82      1.0000 0.31403  0.16887  0.81771  Biso   1.000  C
  C83      1.0000 0.28193  0.14347  0.76378  Biso   1.000  C
  H71      1.0000 0.30733  0.16597  0.72827  Biso   1.000  H
  C84      1.0000 0.21143  0.08427  0.76002  Biso   1.000  C
  C85      1.0000 0.17383  0.05067  0.81303  Biso   1.000  C
  C86      1.0000 0.08164  0.96343  0.64122  Biso   1.000  C
  C87      1.0000 0.38933  0.22937  0.81992  Biso   1.000  C
  O30      1.0000 0.18273  0.99827  0.50007  Biso   1.000  O
  C88      1.0000 0.22023  0.99647  0.53667  Biso   1.000  C
  H72      1.0000 0.20853  0.99847  0.57717  Biso   1.000  H
  N6       1.0000 0.28233  0.99197  0.52447  Biso   1.000  N
  C89      1.0000 0.30553  0.00907  0.54107  Biso   1.000  C
  H73      1.0000 0.29723  0.94677  0.44927  Biso   1.000  H
  H74      1.0000 0.31013  0.96717  0.55127  Biso   1.000  H
  H75      1.0000 0.26593  0.00767  0.56397  Biso   1.000  H
  C90      1.0000 0.32093  0.99607  0.57527  Biso   1.000  C
  H76      1.0000 0.36953  0.03787  0.57247  Biso   1.000  H
  H77      1.0000 0.32403  0.95217  0.57887  Biso   1.000  H
  H78      1.0000 0.29663  0.00097  0.61037  Biso   1.000  H
  Zn7      1.0000 0.51839  0.33652  0.76813  Biso   1.000  Zn
  O31      1.0000 0.77133  0.47767  0.97434  Biso   1.000  O
  O32      1.0000 0.66329  0.43026  0.93038  Biso   1.000  O
  O33      1.0000 0.41364  0.50204  0.10404  Biso   1.000  O
  O34      1.0000 0.41242  0.49446  0.20442  Biso   1.000  O
  C91      1.0000 0.61130  0.45560  0.03739  Biso   1.000  C
  H79      1.0000 0.58770  0.45570  0.00160  Biso   1.000  H
  C92      1.0000 0.67104  0.45091  0.03450  Biso   1.000  C
  C93      1.0000 0.70540  0.44770  0.08707  Biso   1.000  C
  H80      1.0000 0.74760  0.44410  0.08450  Biso   1.000  H
  C94      1.0000 0.67820  0.44990  0.14196  Biso   1.000  C
  H81      1.0000 0.70130  0.44690  0.17720  Biso   1.000  H
  C95      1.0000 0.58780  0.46190  0.20187  Biso   1.000  C
  H82      1.0000 0.60900  0.45820  0.23790  Biso   1.000  H
  C96      1.0000 0.52980  0.47250  0.20377  Biso   1.000  C
  H83      1.0000 0.51110  0.47590  0.24130  Biso   1.000  H
  C97      1.0000 0.49780  0.47850  0.15104  Biso   1.000  C
  C98      1.0000 0.52320  0.47180  0.09711  Biso   1.000  C
  H84      1.0000 0.50070  0.47470  0.06160  Biso   1.000  H
  C99      1.0000 0.58240  0.46050  0.09335  Biso   1.000  C
  C100     1.0000 0.61600  0.45650  0.14636  Biso   1.000  C
  C101     1.0000 0.70324  0.45155  0.97455  Biso   1.000  C
  C102     1.0000 0.43730  0.49330  0.15325  Biso   1.000  C
  O35      1.0000 0.66840  0.51780  0.83340  Biso   1.000  O
  C103     1.0000 0.67020  0.55710  0.87000  Biso   1.000  C
  H85      1.0000 0.66820  0.54340  0.91050  Biso   1.000  H
  N7       1.0000 0.67470  0.62370  0.85780  Biso   1.000  N
  C104     1.0000 0.65760  0.62980  0.87440  Biso   1.000  C
  H86      1.0000 0.71990  0.68380  0.78260  Biso   1.000  H
  H87      1.0000 0.69950  0.67630  0.88460  Biso   1.000  H
  H88      1.0000 0.65900  0.59160  0.89730  Biso   1.000  H
  C105     1.0000 0.67060  0.65820  0.90860  Biso   1.000  C
  H89      1.0000 0.62880  0.66500  0.90580  Biso   1.000  H
  H90      1.0000 0.71450  0.70520  0.91220  Biso   1.000  H
  H91      1.0000 0.66570  0.62900  0.94370  Biso   1.000  H
  Zn8      1.0000 0.18505  0.66985  0.10146  Biso   1.000  Zn
  O36      1.0000 0.43800  0.81100  0.30767  Biso   1.000  O
  O37      1.0000 0.32996  0.76359  0.26371  Biso   1.000  O
  O38      1.0000 0.08031  0.83537  0.43737  Biso   1.000  O
  O39      1.0000 0.07909  0.82779  0.53775  Biso   1.000  O
  C106     1.0000 0.27797  0.78893  0.37072  Biso   1.000  C
  H92      1.0000 0.25437  0.78903  0.33493  Biso   1.000  H
  C107     1.0000 0.33771  0.78424  0.36783  Biso   1.000  C
  C108     1.0000 0.37207  0.78103  0.42040  Biso   1.000  C
  H93      1.0000 0.41427  0.77743  0.41783  Biso   1.000  H
  C109     1.0000 0.34487  0.78323  0.47529  Biso   1.000  C
  H94      1.0000 0.36797  0.78023  0.51053  Biso   1.000  H
  C110     1.0000 0.25447  0.79523  0.53520  Biso   1.000  C
  H95      1.0000 0.27567  0.79153  0.57123  Biso   1.000  H
  C111     1.0000 0.19647  0.80583  0.53710  Biso   1.000  C
  H96      1.0000 0.17777  0.80923  0.57463  Biso   1.000  H
  C112     1.0000 0.16447  0.81183  0.48437  Biso   1.000  C
  C113     1.0000 0.18987  0.80513  0.43044  Biso   1.000  C
  H97      1.0000 0.16737  0.80803  0.39493  Biso   1.000  H
  C114     1.0000 0.24907  0.79383  0.42668  Biso   1.000  C
  C115     1.0000 0.28267  0.78983  0.47969  Biso   1.000  C
  C116     1.0000 0.36991  0.78488  0.30788  Biso   1.000  C
  C117     1.0000 0.10397  0.82663  0.48658  Biso   1.000  C
  O40      1.0000 0.33507  0.85113  0.16673  Biso   1.000  O
  C118     1.0000 0.33687  0.89043  0.20333  Biso   1.000  C
  H98      1.0000 0.33487  0.87673  0.24383  Biso   1.000  H
  N8       1.0000 0.34137  0.95703  0.19113  Biso   1.000  N
  C119     1.0000 0.32427  0.96313  0.20773  Biso   1.000  C
  H99      1.0000 0.38657  0.01713  0.11593  Biso   1.000  H
  H100     1.0000 0.36617  0.00963  0.21793  Biso   1.000  H
  H101     1.0000 0.32567  0.92493  0.23063  Biso   1.000  H
  C120     1.0000 0.33727  0.99153  0.24193  Biso   1.000  C
  H102     1.0000 0.29547  0.99833  0.23913  Biso   1.000  H
  H103     1.0000 0.38117  0.03853  0.24553  Biso   1.000  H
  H104     1.0000 0.33237  0.96233  0.27703  Biso   1.000  H
  Zn9      1.0000 0.85172  0.00318  0.43479  Biso   1.000  Zn
  O41      1.0000 0.10466  0.14434  0.64101  Biso   1.000  O
  O42      1.0000 0.99662  0.09693  0.59705  Biso   1.000  O
  O43      1.0000 0.74697  0.16871  0.77071  Biso   1.000  O
  O44      1.0000 0.74575  0.16113  0.87109  Biso   1.000  O
  C121     1.0000 0.94463  0.12227  0.70406  Biso   1.000  C
  H105     1.0000 0.92103  0.12237  0.66827  Biso   1.000  H
  C122     1.0000 0.00437  0.11758  0.70117  Biso   1.000  C
  C123     1.0000 0.03873  0.11437  0.75374  Biso   1.000  C
  H106     1.0000 0.08093  0.11077  0.75117  Biso   1.000  H
  C124     1.0000 0.01153  0.11657  0.80863  Biso   1.000  C
  H107     1.0000 0.03463  0.11357  0.84387  Biso   1.000  H
  C125     1.0000 0.92113  0.12857  0.86854  Biso   1.000  C
  H108     1.0000 0.94233  0.12487  0.90457  Biso   1.000  H
  C126     1.0000 0.86313  0.13917  0.87044  Biso   1.000  C
  H109     1.0000 0.84443  0.14257  0.90797  Biso   1.000  H
  C127     1.0000 0.83113  0.14517  0.81771  Biso   1.000  C
  C128     1.0000 0.85653  0.13847  0.76378  Biso   1.000  C
  H110     1.0000 0.83403  0.14137  0.72827  Biso   1.000  H
  C129     1.0000 0.91573  0.12717  0.76002  Biso   1.000  C
  C130     1.0000 0.94933  0.12317  0.81303  Biso   1.000  C
  C131     1.0000 0.03657  0.11822  0.64122  Biso   1.000  C
  C132     1.0000 0.77063  0.15997  0.81992  Biso   1.000  C
  O45      1.0000 0.00173  0.18447  0.50007  Biso   1.000  O
  C133     1.0000 0.00353  0.22377  0.53667  Biso   1.000  C
  H111     1.0000 0.00153  0.21007  0.57717  Biso   1.000  H
  N9       1.0000 0.00803  0.29037  0.52447  Biso   1.000  N
  C134     1.0000 0.99093  0.29647  0.54107  Biso   1.000  C
  H112     1.0000 0.05323  0.35047  0.44927  Biso   1.000  H
  H113     1.0000 0.03283  0.34297  0.55127  Biso   1.000  H
  H114     1.0000 0.99233  0.25827  0.56397  Biso   1.000  H
  C135     1.0000 0.00393  0.32487  0.57527  Biso   1.000  C
  H115     1.0000 0.96213  0.33167  0.57247  Biso   1.000  H
  H116     1.0000 0.04783  0.37187  0.57887  Biso   1.000  H
  H117     1.0000 0.99903  0.29567  0.61037  Biso   1.000  H
  Zn10     1.0000 0.18187  0.66348  0.23187  Biso   1.000  Zn
  O46      1.0000 0.29366  0.52233  0.02566  Biso   1.000  O
  O47      1.0000 0.23303  0.56974  0.06962  Biso   1.000  O
  O48      1.0000 0.91160  0.49796  0.89596  Biso   1.000  O
  O49      1.0000 0.91796  0.50554  0.79558  Biso   1.000  O
  C136     1.0000 0.15570  0.54440  0.96261  Biso   1.000  C
  H118     1.0000 0.13200  0.54430  0.99840  Biso   1.000  H
  C137     1.0000 0.22013  0.54909  0.96550  Biso   1.000  C
  C138     1.0000 0.25770  0.55230  0.91293  Biso   1.000  C
  H119     1.0000 0.30350  0.55590  0.91550  Biso   1.000  H
  C139     1.0000 0.22830  0.55010  0.85804  Biso   1.000  C
  H120     1.0000 0.25440  0.55310  0.82280  Biso   1.000  H
  C140     1.0000 0.12590  0.53810  0.79813  Biso   1.000  C
  H121     1.0000 0.15080  0.54180  0.76210  Biso   1.000  H
  C141     1.0000 0.05730  0.52750  0.79623  Biso   1.000  C
  H122     1.0000 0.03520  0.52410  0.75870  Biso   1.000  H
  C142     1.0000 0.01930  0.52150  0.84896  Biso   1.000  C
  C143     1.0000 0.05140  0.52820  0.90289  Biso   1.000  C
  H123     1.0000 0.02600  0.52530  0.93840  Biso   1.000  H
  C144     1.0000 0.12190  0.53950  0.90665  Biso   1.000  C
  C145     1.0000 0.15950  0.54350  0.85364  Biso   1.000  C
  C146     1.0000 0.25169  0.54845  0.02545  Biso   1.000  C
  C147     1.0000 0.94400  0.50670  0.84675  Biso   1.000  C
  O50      1.0000 0.15060  0.48220  0.16660  Biso   1.000  O
  C148     1.0000 0.11310  0.44290  0.13000  Biso   1.000  C
  H124     1.0000 0.12480  0.45660  0.08950  Biso   1.000  H
  N10      1.0000 0.05100  0.37630  0.14220  Biso   1.000  N
  C149     1.0000 0.02780  0.37020  0.12560  Biso   1.000  C
  H125     1.0000 0.03610  0.31620  0.21740  Biso   1.000  H
  H126     1.0000 0.02320  0.32370  0.11540  Biso   1.000  H
  H127     1.0000 0.06740  0.40840  0.10270  Biso   1.000  H
  C150     1.0000 0.01240  0.34180  0.09140  Biso   1.000  C
  H128     1.0000 0.96380  0.33500  0.09420  Biso   1.000  H
  H129     1.0000 0.00930  0.29480  0.08780  Biso   1.000  H
  H130     1.0000 0.03670  0.37100  0.05630  Biso   1.000  H
  Zn11     1.0000 0.84854  0.99682  0.56521  Biso   1.000  Zn
  O51      1.0000 0.96033  0.85566  0.35899  Biso   1.000  O
  O52      1.0000 0.89970  0.90307  0.40295  Biso   1.000  O
  O53      1.0000 0.57827  0.83129  0.22929  Biso   1.000  O
  O54      1.0000 0.58463  0.83887  0.12891  Biso   1.000  O
  C151     1.0000 0.82237  0.87773  0.29594  Biso   1.000  C
  H131     1.0000 0.79867  0.87763  0.33173  Biso   1.000  H
  C152     1.0000 0.88680  0.88242  0.29883  Biso   1.000  C
  C153     1.0000 0.92437  0.88563  0.24626  Biso   1.000  C
  H132     1.0000 0.97017  0.88923  0.24883  Biso   1.000  H
  C154     1.0000 0.89497  0.88343  0.19137  Biso   1.000  C
  H133     1.0000 0.92107  0.88643  0.15613  Biso   1.000  H
  C155     1.0000 0.79257  0.87143  0.13146  Biso   1.000  C
  H134     1.0000 0.81747  0.87513  0.09543  Biso   1.000  H
  C156     1.0000 0.72397  0.86083  0.12956  Biso   1.000  C
  H135     1.0000 0.70187  0.85743  0.09203  Biso   1.000  H
  C157     1.0000 0.68597  0.85483  0.18229  Biso   1.000  C
  C158     1.0000 0.71807  0.86153  0.23622  Biso   1.000  C
  H136     1.0000 0.69267  0.85863  0.27173  Biso   1.000  H
  C159     1.0000 0.78857  0.87283  0.23998  Biso   1.000  C
  C160     1.0000 0.82617  0.87683  0.18697  Biso   1.000  C
  C161     1.0000 0.91836  0.88178  0.35878  Biso   1.000  C
  C162     1.0000 0.61067  0.84003  0.18008  Biso   1.000  C
  O55      1.0000 0.81727  0.81553  0.49993  Biso   1.000  O
  C163     1.0000 0.77977  0.77623  0.46333  Biso   1.000  C
  H137     1.0000 0.79147  0.78993  0.42283  Biso   1.000  H
  N11      1.0000 0.71767  0.70963  0.47553  Biso   1.000  N
  C164     1.0000 0.69447  0.70353  0.45893  Biso   1.000  C
  H138     1.0000 0.70277  0.64953  0.55073  Biso   1.000  H
  H139     1.0000 0.68987  0.65703  0.44873  Biso   1.000  H
  H140     1.0000 0.73407  0.74173  0.43603  Biso   1.000  H
  C165     1.0000 0.67907  0.67513  0.42473  Biso   1.000  C
  H141     1.0000 0.63047  0.66833  0.42753  Biso   1.000  H
  H142     1.0000 0.67597  0.62813  0.42113  Biso   1.000  H
  H143     1.0000 0.70337  0.70433  0.38963  Biso   1.000  H
  Zn12     1.0000 0.51520  0.33015  0.89854  Biso   1.000  Zn
  O56      1.0000 0.62699  0.18900  0.69233  Biso   1.000  O
  O57      1.0000 0.56636  0.23641  0.73629  Biso   1.000  O
  O58      1.0000 0.24493  0.16463  0.56263  Biso   1.000  O
  O59      1.0000 0.25129  0.17221  0.46225  Biso   1.000  O
  C166     1.0000 0.48903  0.21107  0.62928  Biso   1.000  C
  H144     1.0000 0.46533  0.21097  0.66507  Biso   1.000  H
  C167     1.0000 0.55346  0.21576  0.63217  Biso   1.000  C
  C168     1.0000 0.59103  0.21897  0.57960  Biso   1.000  C
  H145     1.0000 0.63683  0.22257  0.58217  Biso   1.000  H
  C169     1.0000 0.56163  0.21677  0.52471  Biso   1.000  C
  H146     1.0000 0.58773  0.21977  0.48947  Biso   1.000  H
  C170     1.0000 0.45923  0.20477  0.46480  Biso   1.000  C
  H147     1.0000 0.48413  0.20847  0.42877  Biso   1.000  H
  C171     1.0000 0.39063  0.19417  0.46290  Biso   1.000  C
  H148     1.0000 0.36853  0.19077  0.42537  Biso   1.000  H
  C172     1.0000 0.35263  0.18817  0.51563  Biso   1.000  C
  C173     1.0000 0.38473  0.19487  0.56956  Biso   1.000  C
  H149     1.0000 0.35933  0.19197  0.60507  Biso   1.000  H
  C174     1.0000 0.45523  0.20617  0.57332  Biso   1.000  C
  C175     1.0000 0.49283  0.21017  0.52031  Biso   1.000  C
  C176     1.0000 0.58502  0.21512  0.69212  Biso   1.000  C
  C177     1.0000 0.27733  0.17337  0.51342  Biso   1.000  C
  O60      1.0000 0.48393  0.14887  0.83327  Biso   1.000  O
  C178     1.0000 0.44643  0.10957  0.79667  Biso   1.000  C
  H150     1.0000 0.45813  0.12327  0.75617  Biso   1.000  H
  N12      1.0000 0.38433  0.04297  0.80887  Biso   1.000  N
  C179     1.0000 0.36113  0.03687  0.79227  Biso   1.000  C
  H151     1.0000 0.36943  0.98287  0.88407  Biso   1.000  H
  H152     1.0000 0.35653  0.99037  0.78207  Biso   1.000  H
  H153     1.0000 0.40073  0.07507  0.76937  Biso   1.000  H
  C180     1.0000 0.34573  0.00847  0.75807  Biso   1.000  C
  H154     1.0000 0.29713  0.00167  0.76087  Biso   1.000  H
  H155     1.0000 0.34263  0.96147  0.75447  Biso   1.000  H
  H156     1.0000 0.37003  0.03767  0.72297  Biso   1.000  H
  Zn13     1.0000 0.48161  0.81813  0.23187  Biso   1.000  Zn
  O61      1.0000 0.22867  0.70634  0.02566  Biso   1.000  O
  O62      1.0000 0.33671  0.76697  0.06962  Biso   1.000  O
  O63      1.0000 0.58636  0.08840  0.89596  Biso   1.000  O
  O64      1.0000 0.58758  0.08204  0.79558  Biso   1.000  O
  C181     1.0000 0.38870  0.84430  0.96261  Biso   1.000  C
  H157     1.0000 0.41230  0.86800  0.99840  Biso   1.000  H
  C182     1.0000 0.32896  0.77987  0.96550  Biso   1.000  C
  C183     1.0000 0.29460  0.74230  0.91293  Biso   1.000  C
  H158     1.0000 0.25240  0.69650  0.91550  Biso   1.000  H
  C184     1.0000 0.32180  0.77170  0.85804  Biso   1.000  C
  H159     1.0000 0.29870  0.74560  0.82280  Biso   1.000  H
  C185     1.0000 0.41220  0.87410  0.79813  Biso   1.000  C
  H160     1.0000 0.39100  0.84920  0.76210  Biso   1.000  H
  C186     1.0000 0.47020  0.94270  0.79623  Biso   1.000  C
  H161     1.0000 0.48890  0.96480  0.75870  Biso   1.000  H
  C187     1.0000 0.50220  0.98070  0.84896  Biso   1.000  C
  C188     1.0000 0.47680  0.94860  0.90289  Biso   1.000  C
  H162     1.0000 0.49930  0.97400  0.93840  Biso   1.000  H
  C189     1.0000 0.41760  0.87810  0.90665  Biso   1.000  C
  C190     1.0000 0.38400  0.84050  0.85364  Biso   1.000  C
  C191     1.0000 0.29676  0.74831  0.02545  Biso   1.000  C
  C192     1.0000 0.56270  0.05600  0.84675  Biso   1.000  C
  O65      1.0000 0.33160  0.84940  0.16660  Biso   1.000  O
  C193     1.0000 0.32980  0.88690  0.13000  Biso   1.000  C
  H163     1.0000 0.33180  0.87520  0.08950  Biso   1.000  H
  N13      1.0000 0.32530  0.94900  0.14220  Biso   1.000  N
  C194     1.0000 0.34240  0.97220  0.12560  Biso   1.000  C
  H164     1.0000 0.28010  0.96390  0.21740  Biso   1.000  H
  H165     1.0000 0.30050  0.97680  0.11540  Biso   1.000  H
  H166     1.0000 0.34100  0.93260  0.10270  Biso   1.000  H
  C195     1.0000 0.32940  0.98760  0.09140  Biso   1.000  C
  H167     1.0000 0.37120  0.03620  0.09420  Biso   1.000  H
  H168     1.0000 0.28550  0.99070  0.08780  Biso   1.000  H
  H169     1.0000 0.33430  0.96330  0.05630  Biso   1.000  H
  Zn14     1.0000 0.14828  0.15146  0.56521  Biso   1.000  Zn
  O66      1.0000 0.89534  0.03967  0.35899  Biso   1.000  O
  O67      1.0000 0.00338  0.10030  0.40295  Biso   1.000  O
  O68      1.0000 0.25303  0.42173  0.22929  Biso   1.000  O
  O69      1.0000 0.25425  0.41537  0.12891  Biso   1.000  O
  C196     1.0000 0.05537  0.17763  0.29594  Biso   1.000  C
  H170     1.0000 0.07897  0.20133  0.33173  Biso   1.000  H
  C197     1.0000 0.99563  0.11320  0.29883  Biso   1.000  C
  C198     1.0000 0.96127  0.07563  0.24626  Biso   1.000  C
  H171     1.0000 0.91907  0.02983  0.24883  Biso   1.000  H
  C199     1.0000 0.98847  0.10503  0.19137  Biso   1.000  C
  H172     1.0000 0.96537  0.07893  0.15613  Biso   1.000  H
  C200     1.0000 0.07887  0.20743  0.13146  Biso   1.000  C
  H173     1.0000 0.05767  0.18253  0.09543  Biso   1.000  H
  C201     1.0000 0.13687  0.27603  0.12956  Biso   1.000  C
  H174     1.0000 0.15557  0.29813  0.09203  Biso   1.000  H
  C202     1.0000 0.16887  0.31403  0.18229  Biso   1.000  C
  C203     1.0000 0.14347  0.28193  0.23622  Biso   1.000  C
  H175     1.0000 0.16597  0.30733  0.27173  Biso   1.000  H
  C204     1.0000 0.08427  0.21143  0.23998  Biso   1.000  C
  C205     1.0000 0.05067  0.17383  0.18697  Biso   1.000  C
  C206     1.0000 0.96343  0.08164  0.35878  Biso   1.000  C
  C207     1.0000 0.22937  0.38933  0.18008  Biso   1.000  C
  O70      1.0000 0.99827  0.18273  0.49993  Biso   1.000  O
  C208     1.0000 0.99647  0.22023  0.46333  Biso   1.000  C
  H176     1.0000 0.99847  0.20853  0.42283  Biso   1.000  H
  N14      1.0000 0.99197  0.28233  0.47553  Biso   1.000  N
  C209     1.0000 0.00907  0.30553  0.45893  Biso   1.000  C
  H177     1.0000 0.94677  0.29723  0.55073  Biso   1.000  H
  H178     1.0000 0.96717  0.31013  0.44873  Biso   1.000  H
  H179     1.0000 0.00767  0.26593  0.43603  Biso   1.000  H
  C210     1.0000 0.99607  0.32093  0.42473  Biso   1.000  C
  H180     1.0000 0.03787  0.36953  0.42753  Biso   1.000  H
  H181     1.0000 0.95217  0.32403  0.42113  Biso   1.000  H
  H182     1.0000 0.00097  0.29663  0.38963  Biso   1.000  H
  Zn15     1.0000 0.81495  0.48480  0.89854  Biso   1.000  Zn
  O71      1.0000 0.56200  0.37301  0.69233  Biso   1.000  O
  O72      1.0000 0.67004  0.43364  0.73629  Biso   1.000  O
  O73      1.0000 0.91969  0.75507  0.56263  Biso   1.000  O
  O74      1.0000 0.92091  0.74871  0.46225  Biso   1.000  O
  C211     1.0000 0.72203  0.51097  0.62928  Biso   1.000  C
  H183     1.0000 0.74563  0.53467  0.66507  Biso   1.000  H
  C212     1.0000 0.66229  0.44654  0.63217  Biso   1.000  C
  C213     1.0000 0.62793  0.40897  0.57960  Biso   1.000  C
  H184     1.0000 0.58573  0.36317  0.58217  Biso   1.000  H
  C214     1.0000 0.65513  0.43837  0.52471  Biso   1.000  C
  H185     1.0000 0.63203  0.41227  0.48947  Biso   1.000  H
  C215     1.0000 0.74553  0.54077  0.46480  Biso   1.000  C
  H186     1.0000 0.72433  0.51587  0.42877  Biso   1.000  H
  C216     1.0000 0.80353  0.60937  0.46290  Biso   1.000  C
  H187     1.0000 0.82223  0.63147  0.42537  Biso   1.000  H
  C217     1.0000 0.83553  0.64737  0.51563  Biso   1.000  C
  C218     1.0000 0.81013  0.61527  0.56956  Biso   1.000  C
  H188     1.0000 0.83263  0.64067  0.60507  Biso   1.000  H
  C219     1.0000 0.75093  0.54477  0.57332  Biso   1.000  C
  C220     1.0000 0.71733  0.50717  0.52031  Biso   1.000  C
  C221     1.0000 0.63009  0.41498  0.69212  Biso   1.000  C
  C222     1.0000 0.89603  0.72267  0.51342  Biso   1.000  C
  O75      1.0000 0.66493  0.51607  0.83327  Biso   1.000  O
  C223     1.0000 0.66313  0.55357  0.79667  Biso   1.000  C
  H189     1.0000 0.66513  0.54187  0.75617  Biso   1.000  H
  N15      1.0000 0.65863  0.61567  0.80887  Biso   1.000  N
  C224     1.0000 0.67573  0.63887  0.79227  Biso   1.000  C
  H190     1.0000 0.61343  0.63057  0.88407  Biso   1.000  H
  H191     1.0000 0.63383  0.64347  0.78207  Biso   1.000  H
  H192     1.0000 0.67433  0.59927  0.76937  Biso   1.000  H
  C225     1.0000 0.66273  0.65427  0.75807  Biso   1.000  C
  H193     1.0000 0.70453  0.70287  0.76087  Biso   1.000  H
  H194     1.0000 0.61883  0.65737  0.75447  Biso   1.000  H
  H195     1.0000 0.66763  0.62997  0.72297  Biso   1.000  H
  Zn16     1.0000 0.33652  0.51839  0.23187  Biso   1.000  Zn
  O76      1.0000 0.47767  0.77133  0.02566  Biso   1.000  O
  O77      1.0000 0.43026  0.66329  0.06962  Biso   1.000  O
  O78      1.0000 0.50204  0.41364  0.89596  Biso   1.000  O
  O79      1.0000 0.49446  0.41242  0.79558  Biso   1.000  O
  C226     1.0000 0.45560  0.61130  0.96261  Biso   1.000  C
  H196     1.0000 0.45570  0.58770  0.99840  Biso   1.000  H
  C227     1.0000 0.45091  0.67104  0.96550  Biso   1.000  C
  C228     1.0000 0.44770  0.70540  0.91293  Biso   1.000  C
  H197     1.0000 0.44410  0.74760  0.91550  Biso   1.000  H
  C229     1.0000 0.44990  0.67820  0.85804  Biso   1.000  C
  H198     1.0000 0.44690  0.70130  0.82280  Biso   1.000  H
  C230     1.0000 0.46190  0.58780  0.79813  Biso   1.000  C
  H199     1.0000 0.45820  0.60900  0.76210  Biso   1.000  H
  C231     1.0000 0.47250  0.52980  0.79623  Biso   1.000  C
  H200     1.0000 0.47590  0.51110  0.75870  Biso   1.000  H
  C232     1.0000 0.47850  0.49780  0.84896  Biso   1.000  C
  C233     1.0000 0.47180  0.52320  0.90289  Biso   1.000  C
  H201     1.0000 0.47470  0.50070  0.93840  Biso   1.000  H
  C234     1.0000 0.46050  0.58240  0.90665  Biso   1.000  C
  C235     1.0000 0.45650  0.61600  0.85364  Biso   1.000  C
  C236     1.0000 0.45155  0.70324  0.02545  Biso   1.000  C
  C237     1.0000 0.49330  0.43730  0.84675  Biso   1.000  C
  O80      1.0000 0.51780  0.66840  0.16660  Biso   1.000  O
  C238     1.0000 0.55710  0.67020  0.13000  Biso   1.000  C
  H202     1.0000 0.54340  0.66820  0.08950  Biso   1.000  H
  N16      1.0000 0.62370  0.67470  0.14220  Biso   1.000  N
  C239     1.0000 0.62980  0.65760  0.12560  Biso   1.000  C
  H203     1.0000 0.68380  0.71990  0.21740  Biso   1.000  H
  H204     1.0000 0.67630  0.69950  0.11540  Biso   1.000  H
  H205     1.0000 0.59160  0.65900  0.10270  Biso   1.000  H
  C240     1.0000 0.65820  0.67060  0.09140  Biso   1.000  C
  H206     1.0000 0.66500  0.62880  0.09420  Biso   1.000  H
  H207     1.0000 0.70520  0.71450  0.08780  Biso   1.000  H
  H208     1.0000 0.62900  0.66570  0.05630  Biso   1.000  H
  Zn17     1.0000 0.00318  0.85172  0.56521  Biso   1.000  Zn
  O81      1.0000 0.14434  0.10466  0.35899  Biso   1.000  O
  O82      1.0000 0.09693  0.99662  0.40295  Biso   1.000  O
  O83      1.0000 0.16871  0.74697  0.22929  Biso   1.000  O
  O84      1.0000 0.16113  0.74575  0.12891  Biso   1.000  O
  C241     1.0000 0.12227  0.94463  0.29594  Biso   1.000  C
  H209     1.0000 0.12237  0.92103  0.33173  Biso   1.000  H
  C242     1.0000 0.11758  0.00437  0.29883  Biso   1.000  C
  C243     1.0000 0.11437  0.03873  0.24626  Biso   1.000  C
  H210     1.0000 0.11077  0.08093  0.24883  Biso   1.000  H
  C244     1.0000 0.11657  0.01153  0.19137  Biso   1.000  C
  H211     1.0000 0.11357  0.03463  0.15613  Biso   1.000  H
  C245     1.0000 0.12857  0.92113  0.13146  Biso   1.000  C
  H212     1.0000 0.12487  0.94233  0.09543  Biso   1.000  H
  C246     1.0000 0.13917  0.86313  0.12956  Biso   1.000  C
  H213     1.0000 0.14257  0.84443  0.09203  Biso   1.000  H
  C247     1.0000 0.14517  0.83113  0.18229  Biso   1.000  C
  C248     1.0000 0.13847  0.85653  0.23622  Biso   1.000  C
  H214     1.0000 0.14137  0.83403  0.27173  Biso   1.000  H
  C249     1.0000 0.12717  0.91573  0.23998  Biso   1.000  C
  C250     1.0000 0.12317  0.94933  0.18697  Biso   1.000  C
  C251     1.0000 0.11822  0.03657  0.35878  Biso   1.000  C
  C252     1.0000 0.15997  0.77063  0.18008  Biso   1.000  C
  O85      1.0000 0.18447  0.00173  0.49993  Biso   1.000  O
  C253     1.0000 0.22377  0.00353  0.46333  Biso   1.000  C
  H215     1.0000 0.21007  0.00153  0.42283  Biso   1.000  H
  N17      1.0000 0.29037  0.00803  0.47553  Biso   1.000  N
  C254     1.0000 0.29647  0.99093  0.45893  Biso   1.000  C
  H216     1.0000 0.35047  0.05323  0.55073  Biso   1.000  H
  H217     1.0000 0.34297  0.03283  0.44873  Biso   1.000  H
  H218     1.0000 0.25827  0.99233  0.43603  Biso   1.000  H
  C255     1.0000 0.32487  0.00393  0.42473  Biso   1.000  C
  H219     1.0000 0.33167  0.96213  0.42753  Biso   1.000  H
  H220     1.0000 0.37187  0.04783  0.42113  Biso   1.000  H
  H221     1.0000 0.29567  0.99903  0.38963  Biso   1.000  H
  Zn18     1.0000 0.66985  0.18505  0.89854  Biso   1.000  Zn
  O86      1.0000 0.81100  0.43800  0.69233  Biso   1.000  O
  O87      1.0000 0.76359  0.32996  0.73629  Biso   1.000  O
  O88      1.0000 0.83537  0.08031  0.56263  Biso   1.000  O
  O89      1.0000 0.82779  0.07909  0.46225  Biso   1.000  O
  C256     1.0000 0.78893  0.27797  0.62928  Biso   1.000  C
  H222     1.0000 0.78903  0.25437  0.66507  Biso   1.000  H
  C257     1.0000 0.78424  0.33771  0.63217  Biso   1.000  C
  C258     1.0000 0.78103  0.37207  0.57960  Biso   1.000  C
  H223     1.0000 0.77743  0.41427  0.58217  Biso   1.000  H
  C259     1.0000 0.78323  0.34487  0.52471  Biso   1.000  C
  H224     1.0000 0.78023  0.36797  0.48947  Biso   1.000  H
  C260     1.0000 0.79523  0.25447  0.46480  Biso   1.000  C
  H225     1.0000 0.79153  0.27567  0.42877  Biso   1.000  H
  C261     1.0000 0.80583  0.19647  0.46290  Biso   1.000  C
  H226     1.0000 0.80923  0.17777  0.42537  Biso   1.000  H
  C262     1.0000 0.81183  0.16447  0.51563  Biso   1.000  C
  C263     1.0000 0.80513  0.18987  0.56956  Biso   1.000  C
  H227     1.0000 0.80803  0.16737  0.60507  Biso   1.000  H
  C264     1.0000 0.79383  0.24907  0.57332  Biso   1.000  C
  C265     1.0000 0.78983  0.28267  0.52031  Biso   1.000  C
  C266     1.0000 0.78488  0.36991  0.69212  Biso   1.000  C
  C267     1.0000 0.82663  0.10397  0.51342  Biso   1.000  C
  O90      1.0000 0.85113  0.33507  0.83327  Biso   1.000  O
  C268     1.0000 0.89043  0.33687  0.79667  Biso   1.000  C
  H228     1.0000 0.87673  0.33487  0.75617  Biso   1.000  H
  N18      1.0000 0.95703  0.34137  0.80887  Biso   1.000  N
  C269     1.0000 0.96313  0.32427  0.79227  Biso   1.000  C
  H229     1.0000 0.01713  0.38657  0.88407  Biso   1.000  H
  H230     1.0000 0.00963  0.36617  0.78207  Biso   1.000  H
  H231     1.0000 0.92493  0.32567  0.76937  Biso   1.000  H
  C270     1.0000 0.99153  0.33727  0.75807  Biso   1.000  C
  H232     1.0000 0.99833  0.29547  0.76087  Biso   1.000  H
  H233     1.0000 0.03853  0.38117  0.75447  Biso   1.000  H
  H234     1.0000 0.96233  0.33237  0.72297  Biso   1.000  H
  Zn19     1.0000 0.57701  0.24367  0.83333  Biso   1.000  Zn
  Zn20     1.0000 0.75633  0.33333  0.83333  Biso   1.000  Zn
  Zn21     1.0000 0.66667  0.42299  0.83333  Biso   1.000  Zn
  Zn22     1.0000 0.24367  0.57701  0.16667  Biso   1.000  Zn
  Zn23     1.0000 0.91034  0.91034  0.50000  Biso   1.000  Zn
  Zn24     1.0000 0.33333  0.75633  0.16667  Biso   1.000  Zn
  Zn25     1.0000 0.00000  0.08966  0.50000  Biso   1.000  Zn
  Zn26     1.0000 0.42299  0.66667  0.16667  Biso   1.000  Zn
  Zn27     1.0000 0.08966  0.00000  0.50000  Biso   1.000  Zn
  O91      1.0000 0.66667  0.24232  0.83333  Biso   1.000  O
  O92      1.0000 0.75768  0.42435  0.83333  Biso   1.000  O
  O93      1.0000 0.57565  0.33333  0.83333  Biso   1.000  O
  O94      1.0000 0.24232  0.66667  0.16667  Biso   1.000  O
  O95      1.0000 0.90898  0.00000  0.50000  Biso   1.000  O
  O96      1.0000 0.42435  0.75768  0.16667  Biso   1.000  O
  O97      1.0000 0.09102  0.09102  0.50000  Biso   1.000  O
  O98      1.0000 0.33333  0.57565  0.16667  Biso   1.000  O
  O99      1.0000 0.00000  0.90898  0.50000  Biso   1.000  O
