data_image0
_cell_length_a       30.5301
_cell_length_b       15.903
_cell_length_c       29.9686
_cell_angle_alpha    90
_cell_angle_beta     107.986
_cell_angle_gamma    90

_symmetry_space_group_name_H-M    "P 1"
_symmetry_int_tables_number       1

loop_
  _symmetry_equiv_pos_as_xyz
  'x, y, z'

loop_
  _atom_site_label
  _atom_site_occupancy
  _atom_site_fract_x
  _atom_site_fract_y
  _atom_site_fract_z
  _atom_site_thermal_displace_type
  _atom_site_B_iso_or_equiv
  _atom_site_type_symbol
  U1       1.0000 0.22628  0.73009  0.77263  Biso   1.000  U
  U2       1.0000 0.23849  0.67059  0.57186  Biso   1.000  U
  U3       1.0000 0.42283  0.66355  0.76361  Biso   1.000  U
  U4       1.0000 0.47956  0.97535  0.57560  Biso   1.000  U
  O1       1.0000 0.14610  0.77360  0.72070  Biso   1.000  O
  O2       1.0000 0.18560  0.68450  0.69310  Biso   1.000  O
  O3       1.0000 0.03630  0.60300  0.49380  Biso   1.000  O
  O4       1.0000 0.04330  0.52200  0.55580  Biso   1.000  O
  O5       1.0000 0.16620  0.60940  0.57400  Biso   1.000  O
  O6       1.0000 0.22760  0.56810  0.63020  Biso   1.000  O
  O7       1.0000 0.04900  0.62110  0.70710  Biso   1.000  O
  O8       1.0000 0.01090  0.57600  0.63530  Biso   1.000  O
  O9       1.0000 0.29310  0.75370  0.55250  Biso   1.000  O
  O10      1.0000 0.31550  0.75930  0.48860  Biso   1.000  O
  O11      1.0000 0.44680  0.73260  0.70600  Biso   1.000  O
  O12      1.0000 0.50940  0.71630  0.68520  Biso   1.000  O
  O13      1.0000 0.31020  0.62310  0.62520  Biso   1.000  O
  O14      1.0000 0.36750  0.62100  0.69050  Biso   1.000  O
  O15      1.0000 0.43310  0.97830  0.62920  Biso   1.000  O
  O16      1.0000 0.41000  0.89340  0.57030  Biso   1.000  O
  O17      1.0000 0.41470  0.61100  0.83750  Biso   1.000  O
  O18      1.0000 0.35960  0.57840  0.77330  Biso   1.000  O
  O19      1.0000 0.31140  0.48840  0.98520  Biso   1.000  O
  O20      1.0000 0.35430  0.59920  0.98890  Biso   1.000  O
  O21      1.0000 0.30380  0.68870  0.81620  Biso   1.000  O
  O22      1.0000 0.27410  0.77270  0.85580  Biso   1.000  O
  O23      1.0000 0.47420  0.57780  0.00240  Biso   1.000  O
  O24      1.0000 0.44630  0.52120  0.93970  Biso   1.000  O
  C1       1.0000 0.09800  0.65460  0.61480  Biso   1.000  C
  C2       1.0000 0.11310  0.72940  0.64000  Biso   1.000  C
  C3       1.0000 0.09890  0.80740  0.62130  Biso   1.000  C
  H1       1.0000 0.10750  0.85650  0.64000  Biso   1.000  H
  C4       1.0000 0.07170  0.81310  0.57450  Biso   1.000  C
  H2       1.0000 0.06230  0.86690  0.56130  Biso   1.000  H
  C5       1.0000 0.05840  0.74350  0.54760  Biso   1.000  C
  H3       1.0000 0.04210  0.74880  0.51520  Biso   1.000  H
  C6       1.0000 0.06890  0.66370  0.56800  Biso   1.000  C
  C7       1.0000 0.14910  0.72740  0.68700  Biso   1.000  C
  C8       1.0000 0.04920  0.59080  0.53770  Biso   1.000  C
  C9       1.0000 0.11270  0.57300  0.63860  Biso   1.000  C
  C10      1.0000 0.15410  0.53510  0.63840  Biso   1.000  C
  C11      1.0000 0.17050  0.46330  0.66710  Biso   1.000  C
  H4       1.0000 0.19910  0.43880  0.66780  Biso   1.000  H
  C12      1.0000 0.14560  0.42890  0.69360  Biso   1.000  C
  H5       1.0000 0.15580  0.37900  0.71120  Biso   1.000  H
  C13      1.0000 0.10570  0.46810  0.69430  Biso   1.000  C
  H6       1.0000 0.08860  0.44560  0.71320  Biso   1.000  H
  C14      1.0000 0.08960  0.54070  0.66750  Biso   1.000  C
  C15      1.0000 0.18340  0.57160  0.61300  Biso   1.000  C
  C16      1.0000 0.04650  0.58220  0.67000  Biso   1.000  C
  C17      1.0000 0.39330  0.73300  0.60500  Biso   1.000  C
  C18      1.0000 0.37100  0.71250  0.55800  Biso   1.000  C
  C19      1.0000 0.39250  0.66390  0.53250  Biso   1.000  C
  H7       1.0000 0.37690  0.65080  0.50060  Biso   1.000  H
  C20      1.0000 0.43630  0.63470  0.55350  Biso   1.000  C
  H8       1.0000 0.45090  0.60130  0.53600  Biso   1.000  H
  C21      1.0000 0.45890  0.65300  0.59880  Biso   1.000  C
  H9       1.0000 0.48900  0.63150  0.61300  Biso   1.000  H
  C22      1.0000 0.43810  0.70340  0.62500  Biso   1.000  C
  C23      1.0000 0.32380  0.74400  0.53150  Biso   1.000  C
  C24      1.0000 0.46630  0.71880  0.67570  Biso   1.000  C
  C25      1.0000 0.37090  0.79030  0.63160  Biso   1.000  C
  C26      1.0000 0.34390  0.75590  0.65600  Biso   1.000  C
  C27      1.0000 0.32210  0.80540  0.68160  Biso   1.000  C
  H10      1.0000 0.30420  0.78010  0.69890  Biso   1.000  H
  C28      1.0000 0.32730  0.89350  0.68120  Biso   1.000  C
  H11      1.0000 0.31170  0.92870  0.69690  Biso   1.000  H
  C29      1.0000 0.35490  0.92760  0.65800  Biso   1.000  C
  H12      1.0000 0.35920  0.98680  0.65870  Biso   1.000  H
  C30      1.0000 0.37750  0.87700  0.63300  Biso   1.000  C
  C31      1.0000 0.33970  0.66150  0.65760  Biso   1.000  C
  C32      1.0000 0.40850  0.91790  0.60980  Biso   1.000  C
  C33      1.0000 0.35040  0.56600  0.89000  Biso   1.000  C
  C34      1.0000 0.34890  0.53460  0.84560  Biso   1.000  C
  C35      1.0000 0.32250  0.46670  0.82610  Biso   1.000  C
  H13      1.0000 0.32110  0.44870  0.79540  Biso   1.000  H
  C36      1.0000 0.29790  0.42380  0.85080  Biso   1.000  C
  H14      1.0000 0.27990  0.37610  0.83740  Biso   1.000  H
  C37      1.0000 0.29980  0.45140  0.89540  Biso   1.000  C
  H15      1.0000 0.28380  0.42130  0.91290  Biso   1.000  H
  C38      1.0000 0.32470  0.52210  0.91440  Biso   1.000  C
  C39      1.0000 0.37580  0.57730  0.81830  Biso   1.000  C
  C40      1.0000 0.32590  0.54720  0.96350  Biso   1.000  C
  C41      1.0000 0.37410  0.64750  0.90880  Biso   1.000  C
  C42      1.0000 0.35130  0.72350  0.89440  Biso   1.000  C
  C43      1.0000 0.36930  0.79790  0.91430  Biso   1.000  C
  H16      1.0000 0.35250  0.84840  0.90450  Biso   1.000  H
  C44      1.0000 0.41240  0.80120  0.94920  Biso   1.000  C
  H17      1.0000 0.42550  0.85340  0.96210  Biso   1.000  H
  C45      1.0000 0.43520  0.72690  0.96430  Biso   1.000  C
  H18      1.0000 0.46390  0.72760  0.98850  Biso   1.000  H
  C46      1.0000 0.41660  0.65110  0.94460  Biso   1.000  C
  C47      1.0000 0.30650  0.72750  0.85440  Biso   1.000  C
  C48      1.0000 0.44320  0.58220  0.96470  Biso   1.000  C
  O25      1.0000 0.01200  0.77880  0.80160  Biso   1.000  O
  O26      1.0000 0.95530  0.59940  0.70150  Biso   1.000  O
  Dy1      1.0000 0.98533  0.66536  0.73986  Biso   1.000  Dy
  O27      1.0000 0.96860  0.52430  0.72200  Biso   1.000  O
  U5       1.0000 0.72628  0.23009  0.77263  Biso   1.000  U
  U6       1.0000 0.73849  0.17059  0.57186  Biso   1.000  U
  U7       1.0000 0.92283  0.16355  0.76361  Biso   1.000  U
  U8       1.0000 0.97956  0.47535  0.57560  Biso   1.000  U
  O28      1.0000 0.64610  0.27360  0.72070  Biso   1.000  O
  O29      1.0000 0.68560  0.18450  0.69310  Biso   1.000  O
  O30      1.0000 0.53630  0.10300  0.49380  Biso   1.000  O
  O31      1.0000 0.54330  0.02200  0.55580  Biso   1.000  O
  O32      1.0000 0.66620  0.10940  0.57400  Biso   1.000  O
  O33      1.0000 0.72760  0.06810  0.63020  Biso   1.000  O
  O34      1.0000 0.54900  0.12110  0.70710  Biso   1.000  O
  O35      1.0000 0.51090  0.07600  0.63530  Biso   1.000  O
  O36      1.0000 0.79310  0.25370  0.55250  Biso   1.000  O
  O37      1.0000 0.81550  0.25930  0.48860  Biso   1.000  O
  O38      1.0000 0.94680  0.23260  0.70600  Biso   1.000  O
  O39      1.0000 0.00940  0.21630  0.68520  Biso   1.000  O
  O40      1.0000 0.81020  0.12310  0.62520  Biso   1.000  O
  O41      1.0000 0.86750  0.12100  0.69050  Biso   1.000  O
  O42      1.0000 0.93310  0.47830  0.62920  Biso   1.000  O
  O43      1.0000 0.91000  0.39340  0.57030  Biso   1.000  O
  O44      1.0000 0.91470  0.11100  0.83750  Biso   1.000  O
  O45      1.0000 0.85960  0.07840  0.77330  Biso   1.000  O
  O46      1.0000 0.81140  0.98840  0.98520  Biso   1.000  O
  O47      1.0000 0.85430  0.09920  0.98890  Biso   1.000  O
  O48      1.0000 0.80380  0.18870  0.81620  Biso   1.000  O
  O49      1.0000 0.77410  0.27270  0.85580  Biso   1.000  O
  O50      1.0000 0.97420  0.07780  0.00240  Biso   1.000  O
  O51      1.0000 0.94630  0.02120  0.93970  Biso   1.000  O
  C49      1.0000 0.59800  0.15460  0.61480  Biso   1.000  C
  C50      1.0000 0.61310  0.22940  0.64000  Biso   1.000  C
  C51      1.0000 0.59890  0.30740  0.62130  Biso   1.000  C
  H19      1.0000 0.60750  0.35650  0.64000  Biso   1.000  H
  C52      1.0000 0.57170  0.31310  0.57450  Biso   1.000  C
  H20      1.0000 0.56230  0.36690  0.56130  Biso   1.000  H
  C53      1.0000 0.55840  0.24350  0.54760  Biso   1.000  C
  H21      1.0000 0.54210  0.24880  0.51520  Biso   1.000  H
  C54      1.0000 0.56890  0.16370  0.56800  Biso   1.000  C
  C55      1.0000 0.64910  0.22740  0.68700  Biso   1.000  C
  C56      1.0000 0.54920  0.09080  0.53770  Biso   1.000  C
  C57      1.0000 0.61270  0.07300  0.63860  Biso   1.000  C
  C58      1.0000 0.65410  0.03510  0.63840  Biso   1.000  C
  C59      1.0000 0.67050  0.96330  0.66710  Biso   1.000  C
  H22      1.0000 0.69910  0.93880  0.66780  Biso   1.000  H
  C60      1.0000 0.64560  0.92890  0.69360  Biso   1.000  C
  H23      1.0000 0.65580  0.87900  0.71120  Biso   1.000  H
  C61      1.0000 0.60570  0.96810  0.69430  Biso   1.000  C
  H24      1.0000 0.58860  0.94560  0.71320  Biso   1.000  H
  C62      1.0000 0.58960  0.04070  0.66750  Biso   1.000  C
  C63      1.0000 0.68340  0.07160  0.61300  Biso   1.000  C
  C64      1.0000 0.54650  0.08220  0.67000  Biso   1.000  C
  C65      1.0000 0.89330  0.23300  0.60500  Biso   1.000  C
  C66      1.0000 0.87100  0.21250  0.55800  Biso   1.000  C
  C67      1.0000 0.89250  0.16390  0.53250  Biso   1.000  C
  H25      1.0000 0.87690  0.15080  0.50060  Biso   1.000  H
  C68      1.0000 0.93630  0.13470  0.55350  Biso   1.000  C
  H26      1.0000 0.95090  0.10130  0.53600  Biso   1.000  H
  C69      1.0000 0.95890  0.15300  0.59880  Biso   1.000  C
  H27      1.0000 0.98900  0.13150  0.61300  Biso   1.000  H
  C70      1.0000 0.93810  0.20340  0.62500  Biso   1.000  C
  C71      1.0000 0.82380  0.24400  0.53150  Biso   1.000  C
  C72      1.0000 0.96630  0.21880  0.67570  Biso   1.000  C
  C73      1.0000 0.87090  0.29030  0.63160  Biso   1.000  C
  C74      1.0000 0.84390  0.25590  0.65600  Biso   1.000  C
  C75      1.0000 0.82210  0.30540  0.68160  Biso   1.000  C
  H28      1.0000 0.80420  0.28010  0.69890  Biso   1.000  H
  C76      1.0000 0.82730  0.39350  0.68120  Biso   1.000  C
  H29      1.0000 0.81170  0.42870  0.69690  Biso   1.000  H
  C77      1.0000 0.85490  0.42760  0.65800  Biso   1.000  C
  H30      1.0000 0.85920  0.48680  0.65870  Biso   1.000  H
  C78      1.0000 0.87750  0.37700  0.63300  Biso   1.000  C
  C79      1.0000 0.83970  0.16150  0.65760  Biso   1.000  C
  C80      1.0000 0.90850  0.41790  0.60980  Biso   1.000  C
  C81      1.0000 0.85040  0.06600  0.89000  Biso   1.000  C
  C82      1.0000 0.84890  0.03460  0.84560  Biso   1.000  C
  C83      1.0000 0.82250  0.96670  0.82610  Biso   1.000  C
  H31      1.0000 0.82110  0.94870  0.79540  Biso   1.000  H
  C84      1.0000 0.79790  0.92380  0.85080  Biso   1.000  C
  H32      1.0000 0.77990  0.87610  0.83740  Biso   1.000  H
  C85      1.0000 0.79980  0.95140  0.89540  Biso   1.000  C
  H33      1.0000 0.78380  0.92130  0.91290  Biso   1.000  H
  C86      1.0000 0.82470  0.02210  0.91440  Biso   1.000  C
  C87      1.0000 0.87580  0.07730  0.81830  Biso   1.000  C
  C88      1.0000 0.82590  0.04720  0.96350  Biso   1.000  C
  C89      1.0000 0.87410  0.14750  0.90880  Biso   1.000  C
  C90      1.0000 0.85130  0.22350  0.89440  Biso   1.000  C
  C91      1.0000 0.86930  0.29790  0.91430  Biso   1.000  C
  H34      1.0000 0.85250  0.34840  0.90450  Biso   1.000  H
  C92      1.0000 0.91240  0.30120  0.94920  Biso   1.000  C
  H35      1.0000 0.92550  0.35340  0.96210  Biso   1.000  H
  C93      1.0000 0.93520  0.22690  0.96430  Biso   1.000  C
  H36      1.0000 0.96390  0.22760  0.98850  Biso   1.000  H
  C94      1.0000 0.91660  0.15110  0.94460  Biso   1.000  C
  C95      1.0000 0.80650  0.22750  0.85440  Biso   1.000  C
  C96      1.0000 0.94320  0.08220  0.96470  Biso   1.000  C
  O52      1.0000 0.51200  0.27880  0.80160  Biso   1.000  O
  O53      1.0000 0.45530  0.09940  0.70150  Biso   1.000  O
  Dy2      1.0000 0.48533  0.16536  0.73986  Biso   1.000  Dy
  O54      1.0000 0.46860  0.02430  0.72200  Biso   1.000  O
  U9       1.0000 0.77372  0.73009  0.72737  Biso   1.000  U
  U10      1.0000 0.76151  0.67059  0.92814  Biso   1.000  U
  U11      1.0000 0.57717  0.66355  0.73639  Biso   1.000  U
  U12      1.0000 0.52044  0.97535  0.92440  Biso   1.000  U
  O55      1.0000 0.85390  0.77360  0.77930  Biso   1.000  O
  O56      1.0000 0.81440  0.68450  0.80690  Biso   1.000  O
  O57      1.0000 0.96370  0.60300  0.00620  Biso   1.000  O
  O58      1.0000 0.95670  0.52200  0.94420  Biso   1.000  O
  O59      1.0000 0.83380  0.60940  0.92600  Biso   1.000  O
  O60      1.0000 0.77240  0.56810  0.86980  Biso   1.000  O
  O61      1.0000 0.95100  0.62110  0.79290  Biso   1.000  O
  O62      1.0000 0.98910  0.57600  0.86470  Biso   1.000  O
  O63      1.0000 0.70690  0.75370  0.94750  Biso   1.000  O
  O64      1.0000 0.68450  0.75930  0.01140  Biso   1.000  O
  O65      1.0000 0.55320  0.73260  0.79400  Biso   1.000  O
  O66      1.0000 0.49060  0.71630  0.81480  Biso   1.000  O
  O67      1.0000 0.68980  0.62310  0.87480  Biso   1.000  O
  O68      1.0000 0.63250  0.62100  0.80950  Biso   1.000  O
  O69      1.0000 0.56690  0.97830  0.87080  Biso   1.000  O
  O70      1.0000 0.59000  0.89340  0.92970  Biso   1.000  O
  O71      1.0000 0.58530  0.61100  0.66250  Biso   1.000  O
  O72      1.0000 0.64040  0.57840  0.72670  Biso   1.000  O
  O73      1.0000 0.68860  0.48840  0.51480  Biso   1.000  O
  O74      1.0000 0.64570  0.59920  0.51110  Biso   1.000  O
  O75      1.0000 0.69620  0.68870  0.68380  Biso   1.000  O
  O76      1.0000 0.72590  0.77270  0.64420  Biso   1.000  O
  O77      1.0000 0.52580  0.57780  0.49760  Biso   1.000  O
  O78      1.0000 0.55370  0.52120  0.56030  Biso   1.000  O
  C97      1.0000 0.90200  0.65460  0.88520  Biso   1.000  C
  C98      1.0000 0.88690  0.72940  0.86000  Biso   1.000  C
  C99      1.0000 0.90110  0.80740  0.87870  Biso   1.000  C
  H37      1.0000 0.89250  0.85650  0.86000  Biso   1.000  H
  C100     1.0000 0.92830  0.81310  0.92550  Biso   1.000  C
  H38      1.0000 0.93770  0.86690  0.93870  Biso   1.000  H
  C101     1.0000 0.94160  0.74350  0.95240  Biso   1.000  C
  H39      1.0000 0.95790  0.74880  0.98480  Biso   1.000  H
  C102     1.0000 0.93110  0.66370  0.93200  Biso   1.000  C
  C103     1.0000 0.85090  0.72740  0.81300  Biso   1.000  C
  C104     1.0000 0.95080  0.59080  0.96230  Biso   1.000  C
  C105     1.0000 0.88730  0.57300  0.86140  Biso   1.000  C
  C106     1.0000 0.84590  0.53510  0.86160  Biso   1.000  C
  C107     1.0000 0.82950  0.46330  0.83290  Biso   1.000  C
  H40      1.0000 0.80090  0.43880  0.83220  Biso   1.000  H
  C108     1.0000 0.85440  0.42890  0.80640  Biso   1.000  C
  H41      1.0000 0.84420  0.37900  0.78880  Biso   1.000  H
  C109     1.0000 0.89430  0.46810  0.80570  Biso   1.000  C
  H42      1.0000 0.91140  0.44560  0.78680  Biso   1.000  H
  C110     1.0000 0.91040  0.54070  0.83250  Biso   1.000  C
  C111     1.0000 0.81660  0.57160  0.88700  Biso   1.000  C
  C112     1.0000 0.95350  0.58220  0.83000  Biso   1.000  C
  C113     1.0000 0.60670  0.73300  0.89500  Biso   1.000  C
  C114     1.0000 0.62900  0.71250  0.94200  Biso   1.000  C
  C115     1.0000 0.60750  0.66390  0.96750  Biso   1.000  C
  H43      1.0000 0.62310  0.65080  0.99940  Biso   1.000  H
  C116     1.0000 0.56370  0.63470  0.94650  Biso   1.000  C
  H44      1.0000 0.54910  0.60130  0.96400  Biso   1.000  H
  C117     1.0000 0.54110  0.65300  0.90120  Biso   1.000  C
  H45      1.0000 0.51100  0.63150  0.88700  Biso   1.000  H
  C118     1.0000 0.56190  0.70340  0.87500  Biso   1.000  C
  C119     1.0000 0.67620  0.74400  0.96850  Biso   1.000  C
  C120     1.0000 0.53370  0.71880  0.82430  Biso   1.000  C
  C121     1.0000 0.62910  0.79030  0.86840  Biso   1.000  C
  C122     1.0000 0.65610  0.75590  0.84400  Biso   1.000  C
  C123     1.0000 0.67790  0.80540  0.81840  Biso   1.000  C
  H46      1.0000 0.69580  0.78010  0.80110  Biso   1.000  H
  C124     1.0000 0.67270  0.89350  0.81880  Biso   1.000  C
  H47      1.0000 0.68830  0.92870  0.80310  Biso   1.000  H
  C125     1.0000 0.64510  0.92760  0.84200  Biso   1.000  C
  H48      1.0000 0.64080  0.98680  0.84130  Biso   1.000  H
  C126     1.0000 0.62250  0.87700  0.86700  Biso   1.000  C
  C127     1.0000 0.66030  0.66150  0.84240  Biso   1.000  C
  C128     1.0000 0.59150  0.91790  0.89020  Biso   1.000  C
  C129     1.0000 0.64960  0.56600  0.61000  Biso   1.000  C
  C130     1.0000 0.65110  0.53460  0.65440  Biso   1.000  C
  C131     1.0000 0.67750  0.46670  0.67390  Biso   1.000  C
  H49      1.0000 0.67890  0.44870  0.70460  Biso   1.000  H
  C132     1.0000 0.70210  0.42380  0.64920  Biso   1.000  C
  H50      1.0000 0.72010  0.37610  0.66260  Biso   1.000  H
  C133     1.0000 0.70020  0.45140  0.60460  Biso   1.000  C
  H51      1.0000 0.71620  0.42130  0.58710  Biso   1.000  H
  C134     1.0000 0.67530  0.52210  0.58560  Biso   1.000  C
  C135     1.0000 0.62420  0.57730  0.68170  Biso   1.000  C
  C136     1.0000 0.67410  0.54720  0.53650  Biso   1.000  C
  C137     1.0000 0.62590  0.64750  0.59120  Biso   1.000  C
  C138     1.0000 0.64870  0.72350  0.60560  Biso   1.000  C
  C139     1.0000 0.63070  0.79790  0.58570  Biso   1.000  C
  H52      1.0000 0.64750  0.84840  0.59550  Biso   1.000  H
  C140     1.0000 0.58760  0.80120  0.55080  Biso   1.000  C
  H53      1.0000 0.57450  0.85340  0.53790  Biso   1.000  H
  C141     1.0000 0.56480  0.72690  0.53570  Biso   1.000  C
  H54      1.0000 0.53610  0.72760  0.51150  Biso   1.000  H
  C142     1.0000 0.58340  0.65110  0.55540  Biso   1.000  C
  C143     1.0000 0.69350  0.72750  0.64560  Biso   1.000  C
  C144     1.0000 0.55680  0.58220  0.53530  Biso   1.000  C
  O79      1.0000 0.98800  0.77880  0.69840  Biso   1.000  O
  O80      1.0000 0.04470  0.59940  0.79850  Biso   1.000  O
  Dy3      1.0000 0.01467  0.66536  0.76014  Biso   1.000  Dy
  O81      1.0000 0.03140  0.52430  0.77800  Biso   1.000  O
  U13      1.0000 0.27372  0.23009  0.72737  Biso   1.000  U
  U14      1.0000 0.26151  0.17059  0.92814  Biso   1.000  U
  U15      1.0000 0.07717  0.16355  0.73639  Biso   1.000  U
  U16      1.0000 0.02044  0.47535  0.92440  Biso   1.000  U
  O82      1.0000 0.35390  0.27360  0.77930  Biso   1.000  O
  O83      1.0000 0.31440  0.18450  0.80690  Biso   1.000  O
  O84      1.0000 0.46370  0.10300  0.00620  Biso   1.000  O
  O85      1.0000 0.45670  0.02200  0.94420  Biso   1.000  O
  O86      1.0000 0.33380  0.10940  0.92600  Biso   1.000  O
  O87      1.0000 0.27240  0.06810  0.86980  Biso   1.000  O
  O88      1.0000 0.45100  0.12110  0.79290  Biso   1.000  O
  O89      1.0000 0.48910  0.07600  0.86470  Biso   1.000  O
  O90      1.0000 0.20690  0.25370  0.94750  Biso   1.000  O
  O91      1.0000 0.18450  0.25930  0.01140  Biso   1.000  O
  O92      1.0000 0.05320  0.23260  0.79400  Biso   1.000  O
  O93      1.0000 0.99060  0.21630  0.81480  Biso   1.000  O
  O94      1.0000 0.18980  0.12310  0.87480  Biso   1.000  O
  O95      1.0000 0.13250  0.12100  0.80950  Biso   1.000  O
  O96      1.0000 0.06690  0.47830  0.87080  Biso   1.000  O
  O97      1.0000 0.09000  0.39340  0.92970  Biso   1.000  O
  O98      1.0000 0.08530  0.11100  0.66250  Biso   1.000  O
  O99      1.0000 0.14040  0.07840  0.72670  Biso   1.000  O
  O100     1.0000 0.18860  0.98840  0.51480  Biso   1.000  O
  O101     1.0000 0.14570  0.09920  0.51110  Biso   1.000  O
  O102     1.0000 0.19620  0.18870  0.68380  Biso   1.000  O
  O103     1.0000 0.22590  0.27270  0.64420  Biso   1.000  O
  O104     1.0000 0.02580  0.07780  0.49760  Biso   1.000  O
  O105     1.0000 0.05370  0.02120  0.56030  Biso   1.000  O
  C145     1.0000 0.40200  0.15460  0.88520  Biso   1.000  C
  C146     1.0000 0.38690  0.22940  0.86000  Biso   1.000  C
  C147     1.0000 0.40110  0.30740  0.87870  Biso   1.000  C
  H55      1.0000 0.39250  0.35650  0.86000  Biso   1.000  H
  C148     1.0000 0.42830  0.31310  0.92550  Biso   1.000  C
  H56      1.0000 0.43770  0.36690  0.93870  Biso   1.000  H
  C149     1.0000 0.44160  0.24350  0.95240  Biso   1.000  C
  H57      1.0000 0.45790  0.24880  0.98480  Biso   1.000  H
  C150     1.0000 0.43110  0.16370  0.93200  Biso   1.000  C
  C151     1.0000 0.35090  0.22740  0.81300  Biso   1.000  C
  C152     1.0000 0.45080  0.09080  0.96230  Biso   1.000  C
  C153     1.0000 0.38730  0.07300  0.86140  Biso   1.000  C
  C154     1.0000 0.34590  0.03510  0.86160  Biso   1.000  C
  C155     1.0000 0.32950  0.96330  0.83290  Biso   1.000  C
  H58      1.0000 0.30090  0.93880  0.83220  Biso   1.000  H
  C156     1.0000 0.35440  0.92890  0.80640  Biso   1.000  C
  H59      1.0000 0.34420  0.87900  0.78880  Biso   1.000  H
  C157     1.0000 0.39430  0.96810  0.80570  Biso   1.000  C
  H60      1.0000 0.41140  0.94560  0.78680  Biso   1.000  H
  C158     1.0000 0.41040  0.04070  0.83250  Biso   1.000  C
  C159     1.0000 0.31660  0.07160  0.88700  Biso   1.000  C
  C160     1.0000 0.45350  0.08220  0.83000  Biso   1.000  C
  C161     1.0000 0.10670  0.23300  0.89500  Biso   1.000  C
  C162     1.0000 0.12900  0.21250  0.94200  Biso   1.000  C
  C163     1.0000 0.10750  0.16390  0.96750  Biso   1.000  C
  H61      1.0000 0.12310  0.15080  0.99940  Biso   1.000  H
  C164     1.0000 0.06370  0.13470  0.94650  Biso   1.000  C
  H62      1.0000 0.04910  0.10130  0.96400  Biso   1.000  H
  C165     1.0000 0.04110  0.15300  0.90120  Biso   1.000  C
  H63      1.0000 0.01100  0.13150  0.88700  Biso   1.000  H
  C166     1.0000 0.06190  0.20340  0.87500  Biso   1.000  C
  C167     1.0000 0.17620  0.24400  0.96850  Biso   1.000  C
  C168     1.0000 0.03370  0.21880  0.82430  Biso   1.000  C
  C169     1.0000 0.12910  0.29030  0.86840  Biso   1.000  C
  C170     1.0000 0.15610  0.25590  0.84400  Biso   1.000  C
  C171     1.0000 0.17790  0.30540  0.81840  Biso   1.000  C
  H64      1.0000 0.19580  0.28010  0.80110  Biso   1.000  H
  C172     1.0000 0.17270  0.39350  0.81880  Biso   1.000  C
  H65      1.0000 0.18830  0.42870  0.80310  Biso   1.000  H
  C173     1.0000 0.14510  0.42760  0.84200  Biso   1.000  C
  H66      1.0000 0.14080  0.48680  0.84130  Biso   1.000  H
  C174     1.0000 0.12250  0.37700  0.86700  Biso   1.000  C
  C175     1.0000 0.16030  0.16150  0.84240  Biso   1.000  C
  C176     1.0000 0.09150  0.41790  0.89020  Biso   1.000  C
  C177     1.0000 0.14960  0.06600  0.61000  Biso   1.000  C
  C178     1.0000 0.15110  0.03460  0.65440  Biso   1.000  C
  C179     1.0000 0.17750  0.96670  0.67390  Biso   1.000  C
  H67      1.0000 0.17890  0.94870  0.70460  Biso   1.000  H
  C180     1.0000 0.20210  0.92380  0.64920  Biso   1.000  C
  H68      1.0000 0.22010  0.87610  0.66260  Biso   1.000  H
  C181     1.0000 0.20020  0.95140  0.60460  Biso   1.000  C
  H69      1.0000 0.21620  0.92130  0.58710  Biso   1.000  H
  C182     1.0000 0.17530  0.02210  0.58560  Biso   1.000  C
  C183     1.0000 0.12420  0.07730  0.68170  Biso   1.000  C
  C184     1.0000 0.17410  0.04720  0.53650  Biso   1.000  C
  C185     1.0000 0.12590  0.14750  0.59120  Biso   1.000  C
  C186     1.0000 0.14870  0.22350  0.60560  Biso   1.000  C
  C187     1.0000 0.13070  0.29790  0.58570  Biso   1.000  C
  H70      1.0000 0.14750  0.34840  0.59550  Biso   1.000  H
  C188     1.0000 0.08760  0.30120  0.55080  Biso   1.000  C
  H71      1.0000 0.07450  0.35340  0.53790  Biso   1.000  H
  C189     1.0000 0.06480  0.22690  0.53570  Biso   1.000  C
  H72      1.0000 0.03610  0.22760  0.51150  Biso   1.000  H
  C190     1.0000 0.08340  0.15110  0.55540  Biso   1.000  C
  C191     1.0000 0.19350  0.22750  0.64560  Biso   1.000  C
  C192     1.0000 0.05680  0.08220  0.53530  Biso   1.000  C
  O106     1.0000 0.48800  0.27880  0.69840  Biso   1.000  O
  O107     1.0000 0.54470  0.09940  0.79850  Biso   1.000  O
  Dy4      1.0000 0.51467  0.16536  0.76014  Biso   1.000  Dy
  O108     1.0000 0.53140  0.02430  0.77800  Biso   1.000  O
  U17      1.0000 0.77372  0.26991  0.22737  Biso   1.000  U
  U18      1.0000 0.76151  0.32941  0.42814  Biso   1.000  U
  U19      1.0000 0.57717  0.33645  0.23639  Biso   1.000  U
  U20      1.0000 0.52044  0.02465  0.42440  Biso   1.000  U
  O109     1.0000 0.85390  0.22640  0.27930  Biso   1.000  O
  O110     1.0000 0.81440  0.31550  0.30690  Biso   1.000  O
  O111     1.0000 0.96370  0.39700  0.50620  Biso   1.000  O
  O112     1.0000 0.95670  0.47800  0.44420  Biso   1.000  O
  O113     1.0000 0.83380  0.39060  0.42600  Biso   1.000  O
  O114     1.0000 0.77240  0.43190  0.36980  Biso   1.000  O
  O115     1.0000 0.95100  0.37890  0.29290  Biso   1.000  O
  O116     1.0000 0.98910  0.42400  0.36470  Biso   1.000  O
  O117     1.0000 0.70690  0.24630  0.44750  Biso   1.000  O
  O118     1.0000 0.68450  0.24070  0.51140  Biso   1.000  O
  O119     1.0000 0.55320  0.26740  0.29400  Biso   1.000  O
  O120     1.0000 0.49060  0.28370  0.31480  Biso   1.000  O
  O121     1.0000 0.68980  0.37690  0.37480  Biso   1.000  O
  O122     1.0000 0.63250  0.37900  0.30950  Biso   1.000  O
  O123     1.0000 0.56690  0.02170  0.37080  Biso   1.000  O
  O124     1.0000 0.59000  0.10660  0.42970  Biso   1.000  O
  O125     1.0000 0.58530  0.38900  0.16250  Biso   1.000  O
  O126     1.0000 0.64040  0.42160  0.22670  Biso   1.000  O
  O127     1.0000 0.68860  0.51160  0.01480  Biso   1.000  O
  O128     1.0000 0.64570  0.40080  0.01110  Biso   1.000  O
  O129     1.0000 0.69620  0.31130  0.18380  Biso   1.000  O
  O130     1.0000 0.72590  0.22730  0.14420  Biso   1.000  O
  O131     1.0000 0.52580  0.42220  0.99760  Biso   1.000  O
  O132     1.0000 0.55370  0.47880  0.06030  Biso   1.000  O
  C193     1.0000 0.90200  0.34540  0.38520  Biso   1.000  C
  C194     1.0000 0.88690  0.27060  0.36000  Biso   1.000  C
  C195     1.0000 0.90110  0.19260  0.37870  Biso   1.000  C
  H73      1.0000 0.89250  0.14350  0.36000  Biso   1.000  H
  C196     1.0000 0.92830  0.18690  0.42550  Biso   1.000  C
  H74      1.0000 0.93770  0.13310  0.43870  Biso   1.000  H
  C197     1.0000 0.94160  0.25650  0.45240  Biso   1.000  C
  H75      1.0000 0.95790  0.25120  0.48480  Biso   1.000  H
  C198     1.0000 0.93110  0.33630  0.43200  Biso   1.000  C
  C199     1.0000 0.85090  0.27260  0.31300  Biso   1.000  C
  C200     1.0000 0.95080  0.40920  0.46230  Biso   1.000  C
  C201     1.0000 0.88730  0.42700  0.36140  Biso   1.000  C
  C202     1.0000 0.84590  0.46490  0.36160  Biso   1.000  C
  C203     1.0000 0.82950  0.53670  0.33290  Biso   1.000  C
  H76      1.0000 0.80090  0.56120  0.33220  Biso   1.000  H
  C204     1.0000 0.85440  0.57110  0.30640  Biso   1.000  C
  H77      1.0000 0.84420  0.62100  0.28880  Biso   1.000  H
  C205     1.0000 0.89430  0.53190  0.30570  Biso   1.000  C
  H78      1.0000 0.91140  0.55440  0.28680  Biso   1.000  H
  C206     1.0000 0.91040  0.45930  0.33250  Biso   1.000  C
  C207     1.0000 0.81660  0.42840  0.38700  Biso   1.000  C
  C208     1.0000 0.95350  0.41780  0.33000  Biso   1.000  C
  C209     1.0000 0.60670  0.26700  0.39500  Biso   1.000  C
  C210     1.0000 0.62900  0.28750  0.44200  Biso   1.000  C
  C211     1.0000 0.60750  0.33610  0.46750  Biso   1.000  C
  H79      1.0000 0.62310  0.34920  0.49940  Biso   1.000  H
  C212     1.0000 0.56370  0.36530  0.44650  Biso   1.000  C
  H80      1.0000 0.54910  0.39870  0.46400  Biso   1.000  H
  C213     1.0000 0.54110  0.34700  0.40120  Biso   1.000  C
  H81      1.0000 0.51100  0.36850  0.38700  Biso   1.000  H
  C214     1.0000 0.56190  0.29660  0.37500  Biso   1.000  C
  C215     1.0000 0.67620  0.25600  0.46850  Biso   1.000  C
  C216     1.0000 0.53370  0.28120  0.32430  Biso   1.000  C
  C217     1.0000 0.62910  0.20970  0.36840  Biso   1.000  C
  C218     1.0000 0.65610  0.24410  0.34400  Biso   1.000  C
  C219     1.0000 0.67790  0.19460  0.31840  Biso   1.000  C
  H82      1.0000 0.69580  0.21990  0.30110  Biso   1.000  H
  C220     1.0000 0.67270  0.10650  0.31880  Biso   1.000  C
  H83      1.0000 0.68830  0.07130  0.30310  Biso   1.000  H
  C221     1.0000 0.64510  0.07240  0.34200  Biso   1.000  C
  H84      1.0000 0.64080  0.01320  0.34130  Biso   1.000  H
  C222     1.0000 0.62250  0.12300  0.36700  Biso   1.000  C
  C223     1.0000 0.66030  0.33850  0.34240  Biso   1.000  C
  C224     1.0000 0.59150  0.08210  0.39020  Biso   1.000  C
  C225     1.0000 0.64960  0.43400  0.11000  Biso   1.000  C
  C226     1.0000 0.65110  0.46540  0.15440  Biso   1.000  C
  C227     1.0000 0.67750  0.53330  0.17390  Biso   1.000  C
  H85      1.0000 0.67890  0.55130  0.20460  Biso   1.000  H
  C228     1.0000 0.70210  0.57620  0.14920  Biso   1.000  C
  H86      1.0000 0.72010  0.62390  0.16260  Biso   1.000  H
  C229     1.0000 0.70020  0.54860  0.10460  Biso   1.000  C
  H87      1.0000 0.71620  0.57870  0.08710  Biso   1.000  H
  C230     1.0000 0.67530  0.47790  0.08560  Biso   1.000  C
  C231     1.0000 0.62420  0.42270  0.18170  Biso   1.000  C
  C232     1.0000 0.67410  0.45280  0.03650  Biso   1.000  C
  C233     1.0000 0.62590  0.35250  0.09120  Biso   1.000  C
  C234     1.0000 0.64870  0.27650  0.10560  Biso   1.000  C
  C235     1.0000 0.63070  0.20210  0.08570  Biso   1.000  C
  H88      1.0000 0.64750  0.15160  0.09550  Biso   1.000  H
  C236     1.0000 0.58760  0.19880  0.05080  Biso   1.000  C
  H89      1.0000 0.57450  0.14660  0.03790  Biso   1.000  H
  C237     1.0000 0.56480  0.27310  0.03570  Biso   1.000  C
  H90      1.0000 0.53610  0.27240  0.01150  Biso   1.000  H
  C238     1.0000 0.58340  0.34890  0.05540  Biso   1.000  C
  C239     1.0000 0.69350  0.27250  0.14560  Biso   1.000  C
  C240     1.0000 0.55680  0.41780  0.03530  Biso   1.000  C
  O133     1.0000 0.98800  0.22120  0.19840  Biso   1.000  O
  O134     1.0000 0.04470  0.40060  0.29850  Biso   1.000  O
  Dy5      1.0000 0.01467  0.33464  0.26014  Biso   1.000  Dy
  O135     1.0000 0.03140  0.47570  0.27800  Biso   1.000  O
  U21      1.0000 0.27372  0.76991  0.22737  Biso   1.000  U
  U22      1.0000 0.26151  0.82941  0.42814  Biso   1.000  U
  U23      1.0000 0.07717  0.83645  0.23639  Biso   1.000  U
  U24      1.0000 0.02044  0.52465  0.42440  Biso   1.000  U
  O136     1.0000 0.35390  0.72640  0.27930  Biso   1.000  O
  O137     1.0000 0.31440  0.81550  0.30690  Biso   1.000  O
  O138     1.0000 0.46370  0.89700  0.50620  Biso   1.000  O
  O139     1.0000 0.45670  0.97800  0.44420  Biso   1.000  O
  O140     1.0000 0.33380  0.89060  0.42600  Biso   1.000  O
  O141     1.0000 0.27240  0.93190  0.36980  Biso   1.000  O
  O142     1.0000 0.45100  0.87890  0.29290  Biso   1.000  O
  O143     1.0000 0.48910  0.92400  0.36470  Biso   1.000  O
  O144     1.0000 0.20690  0.74630  0.44750  Biso   1.000  O
  O145     1.0000 0.18450  0.74070  0.51140  Biso   1.000  O
  O146     1.0000 0.05320  0.76740  0.29400  Biso   1.000  O
  O147     1.0000 0.99060  0.78370  0.31480  Biso   1.000  O
  O148     1.0000 0.18980  0.87690  0.37480  Biso   1.000  O
  O149     1.0000 0.13250  0.87900  0.30950  Biso   1.000  O
  O150     1.0000 0.06690  0.52170  0.37080  Biso   1.000  O
  O151     1.0000 0.09000  0.60660  0.42970  Biso   1.000  O
  O152     1.0000 0.08530  0.88900  0.16250  Biso   1.000  O
  O153     1.0000 0.14040  0.92160  0.22670  Biso   1.000  O
  O154     1.0000 0.18860  0.01160  0.01480  Biso   1.000  O
  O155     1.0000 0.14570  0.90080  0.01110  Biso   1.000  O
  O156     1.0000 0.19620  0.81130  0.18380  Biso   1.000  O
  O157     1.0000 0.22590  0.72730  0.14420  Biso   1.000  O
  O158     1.0000 0.02580  0.92220  0.99760  Biso   1.000  O
  O159     1.0000 0.05370  0.97880  0.06030  Biso   1.000  O
  C241     1.0000 0.40200  0.84540  0.38520  Biso   1.000  C
  C242     1.0000 0.38690  0.77060  0.36000  Biso   1.000  C
  C243     1.0000 0.40110  0.69260  0.37870  Biso   1.000  C
  H91      1.0000 0.39250  0.64350  0.36000  Biso   1.000  H
  C244     1.0000 0.42830  0.68690  0.42550  Biso   1.000  C
  H92      1.0000 0.43770  0.63310  0.43870  Biso   1.000  H
  C245     1.0000 0.44160  0.75650  0.45240  Biso   1.000  C
  H93      1.0000 0.45790  0.75120  0.48480  Biso   1.000  H
  C246     1.0000 0.43110  0.83630  0.43200  Biso   1.000  C
  C247     1.0000 0.35090  0.77260  0.31300  Biso   1.000  C
  C248     1.0000 0.45080  0.90920  0.46230  Biso   1.000  C
  C249     1.0000 0.38730  0.92700  0.36140  Biso   1.000  C
  C250     1.0000 0.34590  0.96490  0.36160  Biso   1.000  C
  C251     1.0000 0.32950  0.03670  0.33290  Biso   1.000  C
  H94      1.0000 0.30090  0.06120  0.33220  Biso   1.000  H
  C252     1.0000 0.35440  0.07110  0.30640  Biso   1.000  C
  H95      1.0000 0.34420  0.12100  0.28880  Biso   1.000  H
  C253     1.0000 0.39430  0.03190  0.30570  Biso   1.000  C
  H96      1.0000 0.41140  0.05440  0.28680  Biso   1.000  H
  C254     1.0000 0.41040  0.95930  0.33250  Biso   1.000  C
  C255     1.0000 0.31660  0.92840  0.38700  Biso   1.000  C
  C256     1.0000 0.45350  0.91780  0.33000  Biso   1.000  C
  C257     1.0000 0.10670  0.76700  0.39500  Biso   1.000  C
  C258     1.0000 0.12900  0.78750  0.44200  Biso   1.000  C
  C259     1.0000 0.10750  0.83610  0.46750  Biso   1.000  C
  H97      1.0000 0.12310  0.84920  0.49940  Biso   1.000  H
  C260     1.0000 0.06370  0.86530  0.44650  Biso   1.000  C
  H98      1.0000 0.04910  0.89870  0.46400  Biso   1.000  H
  C261     1.0000 0.04110  0.84700  0.40120  Biso   1.000  C
  H99      1.0000 0.01100  0.86850  0.38700  Biso   1.000  H
  C262     1.0000 0.06190  0.79660  0.37500  Biso   1.000  C
  C263     1.0000 0.17620  0.75600  0.46850  Biso   1.000  C
  C264     1.0000 0.03370  0.78120  0.32430  Biso   1.000  C
  C265     1.0000 0.12910  0.70970  0.36840  Biso   1.000  C
  C266     1.0000 0.15610  0.74410  0.34400  Biso   1.000  C
  C267     1.0000 0.17790  0.69460  0.31840  Biso   1.000  C
  H100     1.0000 0.19580  0.71990  0.30110  Biso   1.000  H
  C268     1.0000 0.17270  0.60650  0.31880  Biso   1.000  C
  H101     1.0000 0.18830  0.57130  0.30310  Biso   1.000  H
  C269     1.0000 0.14510  0.57240  0.34200  Biso   1.000  C
  H102     1.0000 0.14080  0.51320  0.34130  Biso   1.000  H
  C270     1.0000 0.12250  0.62300  0.36700  Biso   1.000  C
  C271     1.0000 0.16030  0.83850  0.34240  Biso   1.000  C
  C272     1.0000 0.09150  0.58210  0.39020  Biso   1.000  C
  C273     1.0000 0.14960  0.93400  0.11000  Biso   1.000  C
  C274     1.0000 0.15110  0.96540  0.15440  Biso   1.000  C
  C275     1.0000 0.17750  0.03330  0.17390  Biso   1.000  C
  H103     1.0000 0.17890  0.05130  0.20460  Biso   1.000  H
  C276     1.0000 0.20210  0.07620  0.14920  Biso   1.000  C
  H104     1.0000 0.22010  0.12390  0.16260  Biso   1.000  H
  C277     1.0000 0.20020  0.04860  0.10460  Biso   1.000  C
  H105     1.0000 0.21620  0.07870  0.08710  Biso   1.000  H
  C278     1.0000 0.17530  0.97790  0.08560  Biso   1.000  C
  C279     1.0000 0.12420  0.92270  0.18170  Biso   1.000  C
  C280     1.0000 0.17410  0.95280  0.03650  Biso   1.000  C
  C281     1.0000 0.12590  0.85250  0.09120  Biso   1.000  C
  C282     1.0000 0.14870  0.77650  0.10560  Biso   1.000  C
  C283     1.0000 0.13070  0.70210  0.08570  Biso   1.000  C
  H106     1.0000 0.14750  0.65160  0.09550  Biso   1.000  H
  C284     1.0000 0.08760  0.69880  0.05080  Biso   1.000  C
  H107     1.0000 0.07450  0.64660  0.03790  Biso   1.000  H
  C285     1.0000 0.06480  0.77310  0.03570  Biso   1.000  C
  H108     1.0000 0.03610  0.77240  0.01150  Biso   1.000  H
  C286     1.0000 0.08340  0.84890  0.05540  Biso   1.000  C
  C287     1.0000 0.19350  0.77250  0.14560  Biso   1.000  C
  C288     1.0000 0.05680  0.91780  0.03530  Biso   1.000  C
  O160     1.0000 0.48800  0.72120  0.19840  Biso   1.000  O
  O161     1.0000 0.54470  0.90060  0.29850  Biso   1.000  O
  Dy6      1.0000 0.51467  0.83464  0.26014  Biso   1.000  Dy
  O162     1.0000 0.53140  0.97570  0.27800  Biso   1.000  O
  U25      1.0000 0.22628  0.26991  0.27263  Biso   1.000  U
  U26      1.0000 0.23849  0.32941  0.07186  Biso   1.000  U
  U27      1.0000 0.42283  0.33645  0.26361  Biso   1.000  U
  U28      1.0000 0.47956  0.02465  0.07560  Biso   1.000  U
  O163     1.0000 0.14610  0.22640  0.22070  Biso   1.000  O
  O164     1.0000 0.18560  0.31550  0.19310  Biso   1.000  O
  O165     1.0000 0.03630  0.39700  0.99380  Biso   1.000  O
  O166     1.0000 0.04330  0.47800  0.05580  Biso   1.000  O
  O167     1.0000 0.16620  0.39060  0.07400  Biso   1.000  O
  O168     1.0000 0.22760  0.43190  0.13020  Biso   1.000  O
  O169     1.0000 0.04900  0.37890  0.20710  Biso   1.000  O
  O170     1.0000 0.01090  0.42400  0.13530  Biso   1.000  O
  O171     1.0000 0.29310  0.24630  0.05250  Biso   1.000  O
  O172     1.0000 0.31550  0.24070  0.98860  Biso   1.000  O
  O173     1.0000 0.44680  0.26740  0.20600  Biso   1.000  O
  O174     1.0000 0.50940  0.28370  0.18520  Biso   1.000  O
  O175     1.0000 0.31020  0.37690  0.12520  Biso   1.000  O
  O176     1.0000 0.36750  0.37900  0.19050  Biso   1.000  O
  O177     1.0000 0.43310  0.02170  0.12920  Biso   1.000  O
  O178     1.0000 0.41000  0.10660  0.07030  Biso   1.000  O
  O179     1.0000 0.41470  0.38900  0.33750  Biso   1.000  O
  O180     1.0000 0.35960  0.42160  0.27330  Biso   1.000  O
  O181     1.0000 0.31140  0.51160  0.48520  Biso   1.000  O
  O182     1.0000 0.35430  0.40080  0.48890  Biso   1.000  O
  O183     1.0000 0.30380  0.31130  0.31620  Biso   1.000  O
  O184     1.0000 0.27410  0.22730  0.35580  Biso   1.000  O
  O185     1.0000 0.47420  0.42220  0.50240  Biso   1.000  O
  O186     1.0000 0.44630  0.47880  0.43970  Biso   1.000  O
  C289     1.0000 0.09800  0.34540  0.11480  Biso   1.000  C
  C290     1.0000 0.11310  0.27060  0.14000  Biso   1.000  C
  C291     1.0000 0.09890  0.19260  0.12130  Biso   1.000  C
  H109     1.0000 0.10750  0.14350  0.14000  Biso   1.000  H
  C292     1.0000 0.07170  0.18690  0.07450  Biso   1.000  C
  H110     1.0000 0.06230  0.13310  0.06130  Biso   1.000  H
  C293     1.0000 0.05840  0.25650  0.04760  Biso   1.000  C
  H111     1.0000 0.04210  0.25120  0.01520  Biso   1.000  H
  C294     1.0000 0.06890  0.33630  0.06800  Biso   1.000  C
  C295     1.0000 0.14910  0.27260  0.18700  Biso   1.000  C
  C296     1.0000 0.04920  0.40920  0.03770  Biso   1.000  C
  C297     1.0000 0.11270  0.42700  0.13860  Biso   1.000  C
  C298     1.0000 0.15410  0.46490  0.13840  Biso   1.000  C
  C299     1.0000 0.17050  0.53670  0.16710  Biso   1.000  C
  H112     1.0000 0.19910  0.56120  0.16780  Biso   1.000  H
  C300     1.0000 0.14560  0.57110  0.19360  Biso   1.000  C
  H113     1.0000 0.15580  0.62100  0.21120  Biso   1.000  H
  C301     1.0000 0.10570  0.53190  0.19430  Biso   1.000  C
  H114     1.0000 0.08860  0.55440  0.21320  Biso   1.000  H
  C302     1.0000 0.08960  0.45930  0.16750  Biso   1.000  C
  C303     1.0000 0.18340  0.42840  0.11300  Biso   1.000  C
  C304     1.0000 0.04650  0.41780  0.17000  Biso   1.000  C
  C305     1.0000 0.39330  0.26700  0.10500  Biso   1.000  C
  C306     1.0000 0.37100  0.28750  0.05800  Biso   1.000  C
  C307     1.0000 0.39250  0.33610  0.03250  Biso   1.000  C
  H115     1.0000 0.37690  0.34920  0.00060  Biso   1.000  H
  C308     1.0000 0.43630  0.36530  0.05350  Biso   1.000  C
  H116     1.0000 0.45090  0.39870  0.03600  Biso   1.000  H
  C309     1.0000 0.45890  0.34700  0.09880  Biso   1.000  C
  H117     1.0000 0.48900  0.36850  0.11300  Biso   1.000  H
  C310     1.0000 0.43810  0.29660  0.12500  Biso   1.000  C
  C311     1.0000 0.32380  0.25600  0.03150  Biso   1.000  C
  C312     1.0000 0.46630  0.28120  0.17570  Biso   1.000  C
  C313     1.0000 0.37090  0.20970  0.13160  Biso   1.000  C
  C314     1.0000 0.34390  0.24410  0.15600  Biso   1.000  C
  C315     1.0000 0.32210  0.19460  0.18160  Biso   1.000  C
  H118     1.0000 0.30420  0.21990  0.19890  Biso   1.000  H
  C316     1.0000 0.32730  0.10650  0.18120  Biso   1.000  C
  H119     1.0000 0.31170  0.07130  0.19690  Biso   1.000  H
  C317     1.0000 0.35490  0.07240  0.15800  Biso   1.000  C
  H120     1.0000 0.35920  0.01320  0.15870  Biso   1.000  H
  C318     1.0000 0.37750  0.12300  0.13300  Biso   1.000  C
  C319     1.0000 0.33970  0.33850  0.15760  Biso   1.000  C
  C320     1.0000 0.40850  0.08210  0.10980  Biso   1.000  C
  C321     1.0000 0.35040  0.43400  0.39000  Biso   1.000  C
  C322     1.0000 0.34890  0.46540  0.34560  Biso   1.000  C
  C323     1.0000 0.32250  0.53330  0.32610  Biso   1.000  C
  H121     1.0000 0.32110  0.55130  0.29540  Biso   1.000  H
  C324     1.0000 0.29790  0.57620  0.35080  Biso   1.000  C
  H122     1.0000 0.27990  0.62390  0.33740  Biso   1.000  H
  C325     1.0000 0.29980  0.54860  0.39540  Biso   1.000  C
  H123     1.0000 0.28380  0.57870  0.41290  Biso   1.000  H
  C326     1.0000 0.32470  0.47790  0.41440  Biso   1.000  C
  C327     1.0000 0.37580  0.42270  0.31830  Biso   1.000  C
  C328     1.0000 0.32590  0.45280  0.46350  Biso   1.000  C
  C329     1.0000 0.37410  0.35250  0.40880  Biso   1.000  C
  C330     1.0000 0.35130  0.27650  0.39440  Biso   1.000  C
  C331     1.0000 0.36930  0.20210  0.41430  Biso   1.000  C
  H124     1.0000 0.35250  0.15160  0.40450  Biso   1.000  H
  C332     1.0000 0.41240  0.19880  0.44920  Biso   1.000  C
  H125     1.0000 0.42550  0.14660  0.46210  Biso   1.000  H
  C333     1.0000 0.43520  0.27310  0.46430  Biso   1.000  C
  H126     1.0000 0.46390  0.27240  0.48850  Biso   1.000  H
  C334     1.0000 0.41660  0.34890  0.44460  Biso   1.000  C
  C335     1.0000 0.30650  0.27250  0.35440  Biso   1.000  C
  C336     1.0000 0.44320  0.41780  0.46470  Biso   1.000  C
  O187     1.0000 0.01200  0.22120  0.30160  Biso   1.000  O
  O188     1.0000 0.95530  0.40060  0.20150  Biso   1.000  O
  Dy7      1.0000 0.98533  0.33464  0.23986  Biso   1.000  Dy
  O189     1.0000 0.96860  0.47570  0.22200  Biso   1.000  O
  U29      1.0000 0.72628  0.76991  0.27263  Biso   1.000  U
  U30      1.0000 0.73849  0.82941  0.07186  Biso   1.000  U
  U31      1.0000 0.92283  0.83645  0.26361  Biso   1.000  U
  U32      1.0000 0.97956  0.52465  0.07560  Biso   1.000  U
  O190     1.0000 0.64610  0.72640  0.22070  Biso   1.000  O
  O191     1.0000 0.68560  0.81550  0.19310  Biso   1.000  O
  O192     1.0000 0.53630  0.89700  0.99380  Biso   1.000  O
  O193     1.0000 0.54330  0.97800  0.05580  Biso   1.000  O
  O194     1.0000 0.66620  0.89060  0.07400  Biso   1.000  O
  O195     1.0000 0.72760  0.93190  0.13020  Biso   1.000  O
  O196     1.0000 0.54900  0.87890  0.20710  Biso   1.000  O
  O197     1.0000 0.51090  0.92400  0.13530  Biso   1.000  O
  O198     1.0000 0.79310  0.74630  0.05250  Biso   1.000  O
  O199     1.0000 0.81550  0.74070  0.98860  Biso   1.000  O
  O200     1.0000 0.94680  0.76740  0.20600  Biso   1.000  O
  O201     1.0000 0.00940  0.78370  0.18520  Biso   1.000  O
  O202     1.0000 0.81020  0.87690  0.12520  Biso   1.000  O
  O203     1.0000 0.86750  0.87900  0.19050  Biso   1.000  O
  O204     1.0000 0.93310  0.52170  0.12920  Biso   1.000  O
  O205     1.0000 0.91000  0.60660  0.07030  Biso   1.000  O
  O206     1.0000 0.91470  0.88900  0.33750  Biso   1.000  O
  O207     1.0000 0.85960  0.92160  0.27330  Biso   1.000  O
  O208     1.0000 0.81140  0.01160  0.48520  Biso   1.000  O
  O209     1.0000 0.85430  0.90080  0.48890  Biso   1.000  O
  O210     1.0000 0.80380  0.81130  0.31620  Biso   1.000  O
  O211     1.0000 0.77410  0.72730  0.35580  Biso   1.000  O
  O212     1.0000 0.97420  0.92220  0.50240  Biso   1.000  O
  O213     1.0000 0.94630  0.97880  0.43970  Biso   1.000  O
  C337     1.0000 0.59800  0.84540  0.11480  Biso   1.000  C
  C338     1.0000 0.61310  0.77060  0.14000  Biso   1.000  C
  C339     1.0000 0.59890  0.69260  0.12130  Biso   1.000  C
  H127     1.0000 0.60750  0.64350  0.14000  Biso   1.000  H
  C340     1.0000 0.57170  0.68690  0.07450  Biso   1.000  C
  H128     1.0000 0.56230  0.63310  0.06130  Biso   1.000  H
  C341     1.0000 0.55840  0.75650  0.04760  Biso   1.000  C
  H129     1.0000 0.54210  0.75120  0.01520  Biso   1.000  H
  C342     1.0000 0.56890  0.83630  0.06800  Biso   1.000  C
  C343     1.0000 0.64910  0.77260  0.18700  Biso   1.000  C
  C344     1.0000 0.54920  0.90920  0.03770  Biso   1.000  C
  C345     1.0000 0.61270  0.92700  0.13860  Biso   1.000  C
  C346     1.0000 0.65410  0.96490  0.13840  Biso   1.000  C
  C347     1.0000 0.67050  0.03670  0.16710  Biso   1.000  C
  H130     1.0000 0.69910  0.06120  0.16780  Biso   1.000  H
  C348     1.0000 0.64560  0.07110  0.19360  Biso   1.000  C
  H131     1.0000 0.65580  0.12100  0.21120  Biso   1.000  H
  C349     1.0000 0.60570  0.03190  0.19430  Biso   1.000  C
  H132     1.0000 0.58860  0.05440  0.21320  Biso   1.000  H
  C350     1.0000 0.58960  0.95930  0.16750  Biso   1.000  C
  C351     1.0000 0.68340  0.92840  0.11300  Biso   1.000  C
  C352     1.0000 0.54650  0.91780  0.17000  Biso   1.000  C
  C353     1.0000 0.89330  0.76700  0.10500  Biso   1.000  C
  C354     1.0000 0.87100  0.78750  0.05800  Biso   1.000  C
  C355     1.0000 0.89250  0.83610  0.03250  Biso   1.000  C
  H133     1.0000 0.87690  0.84920  0.00060  Biso   1.000  H
  C356     1.0000 0.93630  0.86530  0.05350  Biso   1.000  C
  H134     1.0000 0.95090  0.89870  0.03600  Biso   1.000  H
  C357     1.0000 0.95890  0.84700  0.09880  Biso   1.000  C
  H135     1.0000 0.98900  0.86850  0.11300  Biso   1.000  H
  C358     1.0000 0.93810  0.79660  0.12500  Biso   1.000  C
  C359     1.0000 0.82380  0.75600  0.03150  Biso   1.000  C
  C360     1.0000 0.96630  0.78120  0.17570  Biso   1.000  C
  C361     1.0000 0.87090  0.70970  0.13160  Biso   1.000  C
  C362     1.0000 0.84390  0.74410  0.15600  Biso   1.000  C
  C363     1.0000 0.82210  0.69460  0.18160  Biso   1.000  C
  H136     1.0000 0.80420  0.71990  0.19890  Biso   1.000  H
  C364     1.0000 0.82730  0.60650  0.18120  Biso   1.000  C
  H137     1.0000 0.81170  0.57130  0.19690  Biso   1.000  H
  C365     1.0000 0.85490  0.57240  0.15800  Biso   1.000  C
  H138     1.0000 0.85920  0.51320  0.15870  Biso   1.000  H
  C366     1.0000 0.87750  0.62300  0.13300  Biso   1.000  C
  C367     1.0000 0.83970  0.83850  0.15760  Biso   1.000  C
  C368     1.0000 0.90850  0.58210  0.10980  Biso   1.000  C
  C369     1.0000 0.85040  0.93400  0.39000  Biso   1.000  C
  C370     1.0000 0.84890  0.96540  0.34560  Biso   1.000  C
  C371     1.0000 0.82250  0.03330  0.32610  Biso   1.000  C
  H139     1.0000 0.82110  0.05130  0.29540  Biso   1.000  H
  C372     1.0000 0.79790  0.07620  0.35080  Biso   1.000  C
  H140     1.0000 0.77990  0.12390  0.33740  Biso   1.000  H
  C373     1.0000 0.79980  0.04860  0.39540  Biso   1.000  C
  H141     1.0000 0.78380  0.07870  0.41290  Biso   1.000  H
  C374     1.0000 0.82470  0.97790  0.41440  Biso   1.000  C
  C375     1.0000 0.87580  0.92270  0.31830  Biso   1.000  C
  C376     1.0000 0.82590  0.95280  0.46350  Biso   1.000  C
  C377     1.0000 0.87410  0.85250  0.40880  Biso   1.000  C
  C378     1.0000 0.85130  0.77650  0.39440  Biso   1.000  C
  C379     1.0000 0.86930  0.70210  0.41430  Biso   1.000  C
  H142     1.0000 0.85250  0.65160  0.40450  Biso   1.000  H
  C380     1.0000 0.91240  0.69880  0.44920  Biso   1.000  C
  H143     1.0000 0.92550  0.64660  0.46210  Biso   1.000  H
  C381     1.0000 0.93520  0.77310  0.46430  Biso   1.000  C
  H144     1.0000 0.96390  0.77240  0.48850  Biso   1.000  H
  C382     1.0000 0.91660  0.84890  0.44460  Biso   1.000  C
  C383     1.0000 0.80650  0.77250  0.35440  Biso   1.000  C
  C384     1.0000 0.94320  0.91780  0.46470  Biso   1.000  C
  O214     1.0000 0.51200  0.72120  0.30160  Biso   1.000  O
  O215     1.0000 0.45530  0.90060  0.20150  Biso   1.000  O
  Dy8      1.0000 0.48533  0.83464  0.23986  Biso   1.000  Dy
  O216     1.0000 0.46860  0.97570  0.22200  Biso   1.000  O
