data_image0
_cell_length_a       52.022
_cell_length_b       52.022
_cell_length_c       42.316
_cell_angle_alpha    90
_cell_angle_beta     90
_cell_angle_gamma    120

_symmetry_space_group_name_H-M    "P 1"
_symmetry_int_tables_number       1

loop_
  _symmetry_equiv_pos_as_xyz
  'x, y, z'

loop_
  _atom_site_label
  _atom_site_occupancy
  _atom_site_fract_x
  _atom_site_fract_y
  _atom_site_fract_z
  _atom_site_thermal_displace_type
  _atom_site_B_iso_or_equiv
  _atom_site_type_symbol
  Zn1      1.0000 0.20796  0.35671  0.25799  Biso   1.000  Zn
  Zn2      1.0000 0.14742  0.30703  0.28706  Biso   1.000  Zn
  Zn3      1.0000 0.36516  0.66092  0.72810  Biso   1.000  Zn
  O1       1.0000 0.17654  0.32442  0.32146  Biso   1.000  O
  O2       1.0000 0.21832  0.35699  0.30295  Biso   1.000  O
  O3       1.0000 0.23388  0.34757  0.23179  Biso   1.000  O
  O4       1.0000 0.11605  0.31443  0.29999  Biso   1.000  O
  O5       1.0000 0.33101  0.62854  0.69092  Biso   1.000  O
  O6       1.0000 0.33910  0.61155  0.73345  Biso   1.000  O
  O7       1.0000 0.22039  0.39862  0.24841  Biso   1.000  O
  O8       1.0000 0.12827  0.26587  0.27560  Biso   1.000  O
  O9       1.0000 0.18239  0.31056  0.26933  Biso   1.000  O
  C1       1.0000 0.28431  0.39102  0.54708  Biso   1.000  C
  C2       1.0000 0.28979  0.37105  0.56337  Biso   1.000  C
  H1       1.0000 0.28680  0.35380  0.55350  Biso   1.000  H
  C3       1.0000 0.29979  0.37688  0.59442  Biso   1.000  C
  C4       1.0000 0.30431  0.40268  0.60919  Biso   1.000  C
  H2       1.0000 0.31100  0.40660  0.63000  Biso   1.000  H
  C5       1.0000 0.29883  0.42265  0.59290  Biso   1.000  C
  C6       1.0000 0.28883  0.41682  0.56185  Biso   1.000  C
  H3       1.0000 0.28520  0.43020  0.55090  Biso   1.000  H
  C7       1.0000 0.24957  0.37122  0.45209  Biso   1.000  C
  C8       1.0000 0.24170  0.34820  0.47351  Biso   1.000  C
  H4       1.0000 0.22910  0.32870  0.46730  Biso   1.000  H
  C9       1.0000 0.25263  0.35439  0.50420  Biso   1.000  C
  H5       1.0000 0.24740  0.33900  0.51850  Biso   1.000  H
  C10      1.0000 0.27143  0.38358  0.51350  Biso   1.000  C
  C11      1.0000 0.27929  0.40658  0.49209  Biso   1.000  C
  H6       1.0000 0.29190  0.42610  0.49830  Biso   1.000  H
  C12      1.0000 0.26837  0.40041  0.46138  Biso   1.000  C
  H7       1.0000 0.27360  0.41580  0.44710  Biso   1.000  H
  C13      1.0000 0.21481  0.35098  0.35695  Biso   1.000  C
  C14      1.0000 0.19745  0.33527  0.38269  Biso   1.000  C
  H8       1.0000 0.17790  0.32040  0.37960  Biso   1.000  H
  C15      1.0000 0.20933  0.34187  0.41300  Biso   1.000  C
  H9       1.0000 0.19770  0.33140  0.43020  Biso   1.000  H
  C16      1.0000 0.23856  0.36418  0.41756  Biso   1.000  C
  C17      1.0000 0.25592  0.37989  0.39182  Biso   1.000  C
  H10      1.0000 0.27550  0.39480  0.39490  Biso   1.000  H
  C18      1.0000 0.24405  0.37329  0.36151  Biso   1.000  C
  H11      1.0000 0.25570  0.38380  0.34430  Biso   1.000  H
  C19      1.0000 0.20020  0.34619  0.32480  Biso   1.000  C
  C20      1.0000 0.30605  0.35645  0.61265  Biso   1.000  C
  C21      1.0000 0.29349  0.32782  0.60060  Biso   1.000  C
  H12      1.0000 0.28270  0.32300  0.58190  Biso   1.000  H
  C22      1.0000 0.29709  0.30646  0.61652  Biso   1.000  C
  H13      1.0000 0.28870  0.28730  0.60850  Biso   1.000  H
  C23      1.0000 0.31324  0.31372  0.64449  Biso   1.000  C
  C24      1.0000 0.32580  0.34235  0.65654  Biso   1.000  C
  H14      1.0000 0.33660  0.34720  0.67530  Biso   1.000  H
  C25      1.0000 0.32220  0.36372  0.64062  Biso   1.000  C
  H15      1.0000 0.33060  0.38290  0.64870  Biso   1.000  H
  C26      1.0000 0.31712  0.28841  0.65852  Biso   1.000  C
  C27      1.0000 0.30435  0.25865  0.65027  Biso   1.000  C
  H16      1.0000 0.29210  0.25140  0.63260  Biso   1.000  H
  C28      1.0000 0.30987  0.23965  0.66839  Biso   1.000  C
  H17      1.0000 0.30130  0.21970  0.66290  Biso   1.000  H
  C29      1.0000 0.32816  0.25040  0.69477  Biso   1.000  C
  C30      1.0000 0.34093  0.28017  0.70302  Biso   1.000  C
  H18      1.0000 0.35320  0.28740  0.72070  Biso   1.000  H
  C31      1.0000 0.33541  0.29917  0.68490  Biso   1.000  C
  H19      1.0000 0.34400  0.31910  0.69040  Biso   1.000  H
  C32      1.0000 0.22500  0.32991  0.21005  Biso   1.000  C
  C33      1.0000 0.30530  0.45231  0.60860  Biso   1.000  C
  C34      1.0000 0.32890  0.46710  0.62940  Biso   1.000  C
  H20      1.0000 0.34160  0.45970  0.63340  Biso   1.000  H
  C35      1.0000 0.33360  0.49290  0.64430  Biso   1.000  C
  H21      1.0000 0.34940  0.50280  0.65820  Biso   1.000  H
  C36      1.0000 0.31460  0.50390  0.63840  Biso   1.000  C
  C37      1.0000 0.29100  0.48910  0.61750  Biso   1.000  C
  H22      1.0000 0.27830  0.49650  0.61350  Biso   1.000  H
  C38      1.0000 0.28640  0.46330  0.60260  Biso   1.000  C
  H23      1.0000 0.27060  0.45350  0.58870  Biso   1.000  H
  C39      1.0000 0.31676  0.52858  0.65497  Biso   1.000  C
  C40      1.0000 0.34114  0.54427  0.67465  Biso   1.000  C
  H24      1.0000 0.35430  0.53740  0.67810  Biso   1.000  H
  C41      1.0000 0.34581  0.57024  0.68914  Biso   1.000  C
  H25      1.0000 0.36210  0.58070  0.70230  Biso   1.000  H
  C42      1.0000 0.32612  0.58053  0.68395  Biso   1.000  C
  C43      1.0000 0.30175  0.56484  0.66427  Biso   1.000  C
  H26      1.0000 0.28860  0.57170  0.66080  Biso   1.000  H
  C44      1.0000 0.29707  0.53886  0.64979  Biso   1.000  C
  H27      1.0000 0.28080  0.52840  0.63660  Biso   1.000  H
  C45      1.0000 0.33040  0.60620  0.70440  Biso   1.000  C
  C46      1.0000 0.25154  0.45922  0.24744  Biso   1.000  C
  H28      1.0000 0.26190  0.44900  0.24560  Biso   1.000  H
  C47      1.0000 0.26733  0.48989  0.24739  Biso   1.000  C
  H29      1.0000 0.28790  0.49960  0.24560  Biso   1.000  H
  C48      1.0000 0.30049  0.55750  0.24500  Biso   1.000  C
  H30      1.0000 0.31060  0.54760  0.23990  Biso   1.000  H
  C49      1.0000 0.31591  0.58787  0.24730  Biso   1.000  C
  H31      1.0000 0.33650  0.59800  0.24690  Biso   1.000  H
  C50      1.0000 0.10700  0.20630  0.22281  Biso   1.000  C
  H32      1.0000 0.11540  0.21670  0.20430  Biso   1.000  H
  C51      1.0000 0.09090  0.17520  0.22279  Biso   1.000  C
  H33      1.0000 0.08760  0.16510  0.20380  Biso   1.000  H
  C52      1.0000 0.03344  0.10950  0.25790  Biso   1.000  C
  H34      1.0000 0.02320  0.11950  0.26200  Biso   1.000  H
  C53      1.0000 0.01900  0.07940  0.25980  Biso   1.000  C
  H35      1.0000 0.99980  0.06900  0.26790  Biso   1.000  H
  O10      1.0000 0.30530  0.60720  0.70460  Biso   1.000  O
  O11      1.0000 0.35290  0.62476  0.70980  Biso   1.000  O
  C54      1.0000 0.30570  0.45520  0.64060  Biso   1.000  C
  H36      1.0000 0.30270  0.43970  0.65390  Biso   1.000  H
  C55      1.0000 0.31090  0.48220  0.65240  Biso   1.000  C
  H37      1.0000 0.31150  0.48370  0.67430  Biso   1.000  H
  C56      1.0000 0.30770  0.49920  0.60870  Biso   1.000  C
  H38      1.0000 0.30190  0.51120  0.59830  Biso   1.000  H
  C57      1.0000 0.30860  0.47660  0.59160  Biso   1.000  C
  H39      1.0000 0.31130  0.47780  0.56990  Biso   1.000  H
  Zn4      1.0000 0.64329  0.85126  0.25799  Biso   1.000  Zn
  Zn5      1.0000 0.69297  0.84038  0.28706  Biso   1.000  Zn
  Zn6      1.0000 0.33908  0.70424  0.72810  Biso   1.000  Zn
  O12      1.0000 0.67558  0.85212  0.32146  Biso   1.000  O
  O13      1.0000 0.64301  0.86133  0.30295  Biso   1.000  O
  O14      1.0000 0.65243  0.88631  0.23179  Biso   1.000  O
  O15      1.0000 0.68557  0.80162  0.29999  Biso   1.000  O
  O16      1.0000 0.37146  0.70247  0.69092  Biso   1.000  O
  O17      1.0000 0.38845  0.72755  0.73345  Biso   1.000  O
  O18      1.0000 0.60138  0.82177  0.24841  Biso   1.000  O
  O19      1.0000 0.73413  0.86240  0.27560  Biso   1.000  O
  O20      1.0000 0.68944  0.87183  0.26933  Biso   1.000  O
  C58      1.0000 0.60898  0.89329  0.54708  Biso   1.000  C
  C59      1.0000 0.62895  0.91874  0.56337  Biso   1.000  C
  H40      1.0000 0.64620  0.93300  0.55350  Biso   1.000  H
  C60      1.0000 0.62312  0.92291  0.59442  Biso   1.000  C
  C61      1.0000 0.59732  0.90163  0.60919  Biso   1.000  C
  H41      1.0000 0.59340  0.90440  0.63000  Biso   1.000  H
  C62      1.0000 0.57735  0.87618  0.59290  Biso   1.000  C
  C63      1.0000 0.58318  0.87201  0.56185  Biso   1.000  C
  H42      1.0000 0.56980  0.85500  0.55090  Biso   1.000  H
  C64      1.0000 0.62878  0.87835  0.45209  Biso   1.000  C
  C65      1.0000 0.65180  0.89350  0.47351  Biso   1.000  C
  H43      1.0000 0.67130  0.90040  0.46730  Biso   1.000  H
  C66      1.0000 0.64561  0.89824  0.50420  Biso   1.000  C
  H44      1.0000 0.66100  0.90840  0.51850  Biso   1.000  H
  C67      1.0000 0.61642  0.88785  0.51350  Biso   1.000  C
  C68      1.0000 0.59342  0.87271  0.49209  Biso   1.000  C
  H45      1.0000 0.57390  0.86580  0.49830  Biso   1.000  H
  C69      1.0000 0.59959  0.86796  0.46138  Biso   1.000  C
  H46      1.0000 0.58420  0.85780  0.44710  Biso   1.000  H
  C70      1.0000 0.64902  0.86383  0.35695  Biso   1.000  C
  C71      1.0000 0.66473  0.86218  0.38269  Biso   1.000  C
  H47      1.0000 0.67960  0.85750  0.37960  Biso   1.000  H
  C72      1.0000 0.65813  0.86746  0.41300  Biso   1.000  C
  H48      1.0000 0.66860  0.86630  0.43020  Biso   1.000  H
  C73      1.0000 0.63582  0.87438  0.41756  Biso   1.000  C
  C74      1.0000 0.62011  0.87603  0.39182  Biso   1.000  C
  H49      1.0000 0.60520  0.88070  0.39490  Biso   1.000  H
  C75      1.0000 0.62671  0.87076  0.36151  Biso   1.000  C
  H50      1.0000 0.61620  0.87190  0.34430  Biso   1.000  H
  C76      1.0000 0.65381  0.85401  0.32480  Biso   1.000  C
  C77      1.0000 0.64355  0.94960  0.61265  Biso   1.000  C
  C78      1.0000 0.67218  0.96567  0.60060  Biso   1.000  C
  H51      1.0000 0.67700  0.95970  0.58190  Biso   1.000  H
  C79      1.0000 0.69354  0.99063  0.61652  Biso   1.000  C
  H52      1.0000 0.71270  0.00140  0.60850  Biso   1.000  H
  C80      1.0000 0.68628  0.99952  0.64449  Biso   1.000  C
  C81      1.0000 0.65765  0.98345  0.65654  Biso   1.000  C
  H53      1.0000 0.65280  0.98940  0.67530  Biso   1.000  H
  C82      1.0000 0.63628  0.95848  0.64062  Biso   1.000  C
  H54      1.0000 0.61710  0.94770  0.64870  Biso   1.000  H
  C83      1.0000 0.71159  0.02871  0.65852  Biso   1.000  C
  C84      1.0000 0.74135  0.04570  0.65027  Biso   1.000  C
  H55      1.0000 0.74860  0.04070  0.63260  Biso   1.000  H
  C85      1.0000 0.76035  0.07022  0.66839  Biso   1.000  C
  H56      1.0000 0.78030  0.08160  0.66290  Biso   1.000  H
  C86      1.0000 0.74960  0.07776  0.69477  Biso   1.000  C
  C87      1.0000 0.71983  0.06076  0.70302  Biso   1.000  C
  H57      1.0000 0.71260  0.06580  0.72070  Biso   1.000  H
  C88      1.0000 0.70083  0.03624  0.68490  Biso   1.000  C
  H58      1.0000 0.68090  0.02490  0.69040  Biso   1.000  H
  C89      1.0000 0.67009  0.89509  0.21005  Biso   1.000  C
  C90      1.0000 0.54769  0.85299  0.60860  Biso   1.000  C
  C91      1.0000 0.53290  0.86180  0.62940  Biso   1.000  C
  H59      1.0000 0.54030  0.88190  0.63340  Biso   1.000  H
  C92      1.0000 0.50710  0.84070  0.64430  Biso   1.000  C
  H60      1.0000 0.49720  0.84660  0.65820  Biso   1.000  H
  C93      1.0000 0.49610  0.81070  0.63840  Biso   1.000  C
  C94      1.0000 0.51090  0.80190  0.61750  Biso   1.000  C
  H61      1.0000 0.50350  0.78180  0.61350  Biso   1.000  H
  C95      1.0000 0.53670  0.82310  0.60260  Biso   1.000  C
  H62      1.0000 0.54650  0.81710  0.58870  Biso   1.000  H
  C96      1.0000 0.47142  0.78818  0.65497  Biso   1.000  C
  C97      1.0000 0.45573  0.79687  0.67465  Biso   1.000  C
  H63      1.0000 0.46260  0.81690  0.67810  Biso   1.000  H
  C98      1.0000 0.42976  0.77557  0.68914  Biso   1.000  C
  H64      1.0000 0.41930  0.78140  0.70230  Biso   1.000  H
  C99      1.0000 0.41947  0.74559  0.68395  Biso   1.000  C
  C100     1.0000 0.43516  0.73691  0.66427  Biso   1.000  C
  H65      1.0000 0.42830  0.71690  0.66080  Biso   1.000  H
  C101     1.0000 0.46114  0.75821  0.64979  Biso   1.000  C
  H66      1.0000 0.47160  0.75240  0.63660  Biso   1.000  H
  C102     1.0000 0.39380  0.72420  0.70440  Biso   1.000  C
  C103     1.0000 0.54078  0.79232  0.24744  Biso   1.000  C
  H67      1.0000 0.55100  0.81290  0.24560  Biso   1.000  H
  C104     1.0000 0.51011  0.77744  0.24739  Biso   1.000  C
  H68      1.0000 0.50040  0.78830  0.24560  Biso   1.000  H
  C105     1.0000 0.44250  0.74299  0.24500  Biso   1.000  C
  H69      1.0000 0.45240  0.76300  0.23990  Biso   1.000  H
  C106     1.0000 0.41213  0.72804  0.24730  Biso   1.000  C
  H70      1.0000 0.40200  0.73850  0.24690  Biso   1.000  H
  C107     1.0000 0.79370  0.90070  0.22281  Biso   1.000  C
  H71      1.0000 0.78330  0.89870  0.20430  Biso   1.000  H
  C108     1.0000 0.82480  0.91570  0.22279  Biso   1.000  C
  H72      1.0000 0.83490  0.92250  0.20380  Biso   1.000  H
  C109     1.0000 0.89050  0.92394  0.25790  Biso   1.000  C
  H73      1.0000 0.88050  0.90370  0.26200  Biso   1.000  H
  C110     1.0000 0.92060  0.93960  0.25980  Biso   1.000  C
  H74      1.0000 0.93100  0.93080  0.26790  Biso   1.000  H
  O21      1.0000 0.39280  0.69810  0.70460  Biso   1.000  O
  O22      1.0000 0.37524  0.72814  0.70980  Biso   1.000  O
  C111     1.0000 0.54480  0.85050  0.64060  Biso   1.000  C
  H75      1.0000 0.56030  0.86300  0.65390  Biso   1.000  H
  C112     1.0000 0.51780  0.82870  0.65240  Biso   1.000  C
  H76      1.0000 0.51630  0.82780  0.67430  Biso   1.000  H
  C113     1.0000 0.50080  0.80850  0.60870  Biso   1.000  C
  H77      1.0000 0.48880  0.79070  0.59830  Biso   1.000  H
  C114     1.0000 0.52340  0.83200  0.59160  Biso   1.000  C
  H78      1.0000 0.52220  0.83350  0.56990  Biso   1.000  H
  Zn7      1.0000 0.14874  0.79204  0.25799  Biso   1.000  Zn
  Zn8      1.0000 0.15962  0.85258  0.28706  Biso   1.000  Zn
  Zn9      1.0000 0.29576  0.63484  0.72810  Biso   1.000  Zn
  O23      1.0000 0.14788  0.82346  0.32146  Biso   1.000  O
  O24      1.0000 0.13867  0.78168  0.30295  Biso   1.000  O
  O25      1.0000 0.11369  0.76612  0.23179  Biso   1.000  O
  O26      1.0000 0.19838  0.88395  0.29999  Biso   1.000  O
  O27      1.0000 0.29753  0.66899  0.69092  Biso   1.000  O
  O28      1.0000 0.27245  0.66090  0.73345  Biso   1.000  O
  O29      1.0000 0.17823  0.77961  0.24841  Biso   1.000  O
  O30      1.0000 0.13760  0.87173  0.27560  Biso   1.000  O
  O31      1.0000 0.12817  0.81761  0.26933  Biso   1.000  O
  C115     1.0000 0.10671  0.71569  0.54708  Biso   1.000  C
  C116     1.0000 0.08126  0.71021  0.56337  Biso   1.000  C
  H79      1.0000 0.06700  0.71320  0.55350  Biso   1.000  H
  C117     1.0000 0.07709  0.70021  0.59442  Biso   1.000  C
  C118     1.0000 0.09837  0.69569  0.60919  Biso   1.000  C
  H80      1.0000 0.09560  0.68900  0.63000  Biso   1.000  H
  C119     1.0000 0.12382  0.70117  0.59290  Biso   1.000  C
  C120     1.0000 0.12799  0.71117  0.56185  Biso   1.000  C
  H81      1.0000 0.14500  0.71480  0.55090  Biso   1.000  H
  C121     1.0000 0.12165  0.75043  0.45209  Biso   1.000  C
  C122     1.0000 0.10650  0.75830  0.47351  Biso   1.000  C
  H82      1.0000 0.09960  0.77090  0.46730  Biso   1.000  H
  C123     1.0000 0.10176  0.74737  0.50420  Biso   1.000  C
  H83      1.0000 0.09160  0.75260  0.51850  Biso   1.000  H
  C124     1.0000 0.11215  0.72857  0.51350  Biso   1.000  C
  C125     1.0000 0.12729  0.72071  0.49209  Biso   1.000  C
  H84      1.0000 0.13420  0.70810  0.49830  Biso   1.000  H
  C126     1.0000 0.13204  0.73163  0.46138  Biso   1.000  C
  H85      1.0000 0.14220  0.72640  0.44710  Biso   1.000  H
  C127     1.0000 0.13617  0.78519  0.35695  Biso   1.000  C
  C128     1.0000 0.13782  0.80255  0.38269  Biso   1.000  C
  H86      1.0000 0.14250  0.82210  0.37960  Biso   1.000  H
  C129     1.0000 0.13254  0.79067  0.41300  Biso   1.000  C
  H87      1.0000 0.13370  0.80230  0.43020  Biso   1.000  H
  C130     1.0000 0.12562  0.76144  0.41756  Biso   1.000  C
  C131     1.0000 0.12397  0.74408  0.39182  Biso   1.000  C
  H88      1.0000 0.11930  0.72450  0.39490  Biso   1.000  H
  C132     1.0000 0.12924  0.75595  0.36151  Biso   1.000  C
  H89      1.0000 0.12810  0.74430  0.34430  Biso   1.000  H
  C133     1.0000 0.14599  0.79980  0.32480  Biso   1.000  C
  C134     1.0000 0.05040  0.69395  0.61265  Biso   1.000  C
  C135     1.0000 0.03433  0.70651  0.60060  Biso   1.000  C
  H90      1.0000 0.04030  0.71730  0.58190  Biso   1.000  H
  C136     1.0000 0.00937  0.70291  0.61652  Biso   1.000  C
  H91      1.0000 0.99860  0.71130  0.60850  Biso   1.000  H
  C137     1.0000 0.00048  0.68676  0.64449  Biso   1.000  C
  C138     1.0000 0.01655  0.67420  0.65654  Biso   1.000  C
  H92      1.0000 0.01060  0.66340  0.67530  Biso   1.000  H
  C139     1.0000 0.04152  0.67780  0.64062  Biso   1.000  C
  H93      1.0000 0.05230  0.66940  0.64870  Biso   1.000  H
  C140     1.0000 0.97129  0.68288  0.65852  Biso   1.000  C
  C141     1.0000 0.95430  0.69565  0.65027  Biso   1.000  C
  H94      1.0000 0.95930  0.70790  0.63260  Biso   1.000  H
  C142     1.0000 0.92978  0.69013  0.66839  Biso   1.000  C
  H95      1.0000 0.91840  0.69870  0.66290  Biso   1.000  H
  C143     1.0000 0.92224  0.67184  0.69477  Biso   1.000  C
  C144     1.0000 0.93924  0.65907  0.70302  Biso   1.000  C
  H96      1.0000 0.93420  0.64680  0.72070  Biso   1.000  H
  C145     1.0000 0.96376  0.66459  0.68490  Biso   1.000  C
  H97      1.0000 0.97510  0.65600  0.69040  Biso   1.000  H
  C146     1.0000 0.10491  0.77500  0.21005  Biso   1.000  C
  C147     1.0000 0.14701  0.69470  0.60860  Biso   1.000  C
  C148     1.0000 0.13820  0.67110  0.62940  Biso   1.000  C
  H98      1.0000 0.11810  0.65840  0.63340  Biso   1.000  H
  C149     1.0000 0.15930  0.66640  0.64430  Biso   1.000  C
  H99      1.0000 0.15340  0.65060  0.65820  Biso   1.000  H
  C150     1.0000 0.18930  0.68540  0.63840  Biso   1.000  C
  C151     1.0000 0.19810  0.70900  0.61750  Biso   1.000  C
  H100     1.0000 0.21820  0.72170  0.61350  Biso   1.000  H
  C152     1.0000 0.17690  0.71360  0.60260  Biso   1.000  C
  H101     1.0000 0.18290  0.72940  0.58870  Biso   1.000  H
  C153     1.0000 0.21182  0.68324  0.65497  Biso   1.000  C
  C154     1.0000 0.20313  0.65886  0.67465  Biso   1.000  C
  H102     1.0000 0.18310  0.64570  0.67810  Biso   1.000  H
  C155     1.0000 0.22443  0.65419  0.68914  Biso   1.000  C
  H103     1.0000 0.21860  0.63790  0.70230  Biso   1.000  H
  C156     1.0000 0.25441  0.67388  0.68395  Biso   1.000  C
  C157     1.0000 0.26309  0.69825  0.66427  Biso   1.000  C
  H104     1.0000 0.28310  0.71140  0.66080  Biso   1.000  H
  C158     1.0000 0.24179  0.70293  0.64979  Biso   1.000  C
  H105     1.0000 0.24760  0.71920  0.63660  Biso   1.000  H
  C159     1.0000 0.27580  0.66960  0.70440  Biso   1.000  C
  C160     1.0000 0.20768  0.74846  0.24744  Biso   1.000  C
  H106     1.0000 0.18710  0.73810  0.24560  Biso   1.000  H
  C161     1.0000 0.22256  0.73267  0.24739  Biso   1.000  C
  H107     1.0000 0.21170  0.71210  0.24560  Biso   1.000  H
  C162     1.0000 0.25701  0.69951  0.24500  Biso   1.000  C
  H108     1.0000 0.23700  0.68940  0.23990  Biso   1.000  H
  C163     1.0000 0.27196  0.68409  0.24730  Biso   1.000  C
  H109     1.0000 0.26150  0.66350  0.24690  Biso   1.000  H
  C164     1.0000 0.09930  0.89300  0.22281  Biso   1.000  C
  H110     1.0000 0.10130  0.88460  0.20430  Biso   1.000  H
  C165     1.0000 0.08430  0.90910  0.22279  Biso   1.000  C
  H111     1.0000 0.07750  0.91240  0.20380  Biso   1.000  H
  C166     1.0000 0.07606  0.96656  0.25790  Biso   1.000  C
  H112     1.0000 0.09630  0.97680  0.26200  Biso   1.000  H
  C167     1.0000 0.06040  0.98100  0.25980  Biso   1.000  C
  H113     1.0000 0.06920  0.00020  0.26790  Biso   1.000  H
  O32      1.0000 0.30190  0.69470  0.70460  Biso   1.000  O
  O33      1.0000 0.27186  0.64710  0.70980  Biso   1.000  O
  C168     1.0000 0.14950  0.69430  0.64060  Biso   1.000  C
  H114     1.0000 0.13700  0.69730  0.65390  Biso   1.000  H
  C169     1.0000 0.17130  0.68910  0.65240  Biso   1.000  C
  H115     1.0000 0.17220  0.68850  0.67430  Biso   1.000  H
  C170     1.0000 0.19150  0.69230  0.60870  Biso   1.000  C
  H116     1.0000 0.20930  0.69810  0.59830  Biso   1.000  H
  C171     1.0000 0.16800  0.69140  0.59160  Biso   1.000  C
  H117     1.0000 0.16650  0.68870  0.56990  Biso   1.000  H
  Zn10     1.0000 0.64329  0.79204  0.24201  Biso   1.000  Zn
  Zn11     1.0000 0.69297  0.85258  0.21294  Biso   1.000  Zn
  Zn12     1.0000 0.33908  0.63484  0.77190  Biso   1.000  Zn
  O34      1.0000 0.67558  0.82346  0.17854  Biso   1.000  O
  O35      1.0000 0.64301  0.78168  0.19705  Biso   1.000  O
  O36      1.0000 0.65243  0.76612  0.26821  Biso   1.000  O
  O37      1.0000 0.68557  0.88395  0.20001  Biso   1.000  O
  O38      1.0000 0.37146  0.66899  0.80908  Biso   1.000  O
  O39      1.0000 0.38845  0.66090  0.76655  Biso   1.000  O
  O40      1.0000 0.60138  0.77961  0.25159  Biso   1.000  O
  O41      1.0000 0.73413  0.87173  0.22440  Biso   1.000  O
  O42      1.0000 0.68944  0.81761  0.23067  Biso   1.000  O
  C172     1.0000 0.60898  0.71569  0.95292  Biso   1.000  C
  C173     1.0000 0.62895  0.71021  0.93663  Biso   1.000  C
  H118     1.0000 0.64620  0.71320  0.94650  Biso   1.000  H
  C174     1.0000 0.62312  0.70021  0.90558  Biso   1.000  C
  C175     1.0000 0.59732  0.69569  0.89081  Biso   1.000  C
  H119     1.0000 0.59340  0.68900  0.87000  Biso   1.000  H
  C176     1.0000 0.57735  0.70117  0.90710  Biso   1.000  C
  C177     1.0000 0.58318  0.71117  0.93815  Biso   1.000  C
  H120     1.0000 0.56980  0.71480  0.94910  Biso   1.000  H
  C178     1.0000 0.62878  0.75043  0.04791  Biso   1.000  C
  C179     1.0000 0.65180  0.75830  0.02649  Biso   1.000  C
  H121     1.0000 0.67130  0.77090  0.03270  Biso   1.000  H
  C180     1.0000 0.64561  0.74737  0.99580  Biso   1.000  C
  H122     1.0000 0.66100  0.75260  0.98150  Biso   1.000  H
  C181     1.0000 0.61642  0.72857  0.98650  Biso   1.000  C
  C182     1.0000 0.59342  0.72071  0.00791  Biso   1.000  C
  H123     1.0000 0.57390  0.70810  0.00170  Biso   1.000  H
  C183     1.0000 0.59959  0.73163  0.03862  Biso   1.000  C
  H124     1.0000 0.58420  0.72640  0.05290  Biso   1.000  H
  C184     1.0000 0.64902  0.78519  0.14305  Biso   1.000  C
  C185     1.0000 0.66473  0.80255  0.11731  Biso   1.000  C
  H125     1.0000 0.67960  0.82210  0.12040  Biso   1.000  H
  C186     1.0000 0.65813  0.79067  0.08700  Biso   1.000  C
  H126     1.0000 0.66860  0.80230  0.06980  Biso   1.000  H
  C187     1.0000 0.63582  0.76144  0.08244  Biso   1.000  C
  C188     1.0000 0.62011  0.74408  0.10818  Biso   1.000  C
  H127     1.0000 0.60520  0.72450  0.10510  Biso   1.000  H
  C189     1.0000 0.62671  0.75595  0.13849  Biso   1.000  C
  H128     1.0000 0.61620  0.74430  0.15570  Biso   1.000  H
  C190     1.0000 0.65381  0.79980  0.17520  Biso   1.000  C
  C191     1.0000 0.64355  0.69395  0.88735  Biso   1.000  C
  C192     1.0000 0.67218  0.70651  0.89940  Biso   1.000  C
  H129     1.0000 0.67700  0.71730  0.91810  Biso   1.000  H
  C193     1.0000 0.69354  0.70291  0.88348  Biso   1.000  C
  H130     1.0000 0.71270  0.71130  0.89150  Biso   1.000  H
  C194     1.0000 0.68628  0.68676  0.85551  Biso   1.000  C
  C195     1.0000 0.65765  0.67420  0.84346  Biso   1.000  C
  H131     1.0000 0.65280  0.66340  0.82470  Biso   1.000  H
  C196     1.0000 0.63628  0.67780  0.85938  Biso   1.000  C
  H132     1.0000 0.61710  0.66940  0.85130  Biso   1.000  H
  C197     1.0000 0.71159  0.68288  0.84148  Biso   1.000  C
  C198     1.0000 0.74135  0.69565  0.84973  Biso   1.000  C
  H133     1.0000 0.74860  0.70790  0.86740  Biso   1.000  H
  C199     1.0000 0.76035  0.69013  0.83161  Biso   1.000  C
  H134     1.0000 0.78030  0.69870  0.83710  Biso   1.000  H
  C200     1.0000 0.74960  0.67184  0.80523  Biso   1.000  C
  C201     1.0000 0.71983  0.65907  0.79698  Biso   1.000  C
  H135     1.0000 0.71260  0.64680  0.77930  Biso   1.000  H
  C202     1.0000 0.70083  0.66459  0.81510  Biso   1.000  C
  H136     1.0000 0.68090  0.65600  0.80960  Biso   1.000  H
  C203     1.0000 0.67009  0.77500  0.28995  Biso   1.000  C
  C204     1.0000 0.54769  0.69470  0.89140  Biso   1.000  C
  C205     1.0000 0.53290  0.67110  0.87060  Biso   1.000  C
  H137     1.0000 0.54030  0.65840  0.86660  Biso   1.000  H
  C206     1.0000 0.50710  0.66640  0.85570  Biso   1.000  C
  H138     1.0000 0.49720  0.65060  0.84180  Biso   1.000  H
  C207     1.0000 0.49610  0.68540  0.86160  Biso   1.000  C
  C208     1.0000 0.51090  0.70900  0.88250  Biso   1.000  C
  H139     1.0000 0.50350  0.72170  0.88650  Biso   1.000  H
  C209     1.0000 0.53670  0.71360  0.89740  Biso   1.000  C
  H140     1.0000 0.54650  0.72940  0.91130  Biso   1.000  H
  C210     1.0000 0.47142  0.68324  0.84503  Biso   1.000  C
  C211     1.0000 0.45573  0.65886  0.82535  Biso   1.000  C
  H141     1.0000 0.46260  0.64570  0.82190  Biso   1.000  H
  C212     1.0000 0.42976  0.65419  0.81086  Biso   1.000  C
  H142     1.0000 0.41930  0.63790  0.79770  Biso   1.000  H
  C213     1.0000 0.41947  0.67388  0.81605  Biso   1.000  C
  C214     1.0000 0.43516  0.69825  0.83573  Biso   1.000  C
  H143     1.0000 0.42830  0.71140  0.83920  Biso   1.000  H
  C215     1.0000 0.46114  0.70293  0.85021  Biso   1.000  C
  H144     1.0000 0.47160  0.71920  0.86340  Biso   1.000  H
  C216     1.0000 0.39380  0.66960  0.79560  Biso   1.000  C
  C217     1.0000 0.54078  0.74846  0.25256  Biso   1.000  C
  H145     1.0000 0.55100  0.73810  0.25440  Biso   1.000  H
  C218     1.0000 0.51011  0.73267  0.25261  Biso   1.000  C
  H146     1.0000 0.50040  0.71210  0.25440  Biso   1.000  H
  C219     1.0000 0.44250  0.69951  0.25500  Biso   1.000  C
  H147     1.0000 0.45240  0.68940  0.26010  Biso   1.000  H
  C220     1.0000 0.41213  0.68409  0.25270  Biso   1.000  C
  H148     1.0000 0.40200  0.66350  0.25310  Biso   1.000  H
  C221     1.0000 0.79370  0.89300  0.27719  Biso   1.000  C
  H149     1.0000 0.78330  0.88460  0.29570  Biso   1.000  H
  C222     1.0000 0.82480  0.90910  0.27721  Biso   1.000  C
  H150     1.0000 0.83490  0.91240  0.29620  Biso   1.000  H
  C223     1.0000 0.89050  0.96656  0.24210  Biso   1.000  C
  H151     1.0000 0.88050  0.97680  0.23800  Biso   1.000  H
  C224     1.0000 0.92060  0.98100  0.24020  Biso   1.000  C
  H152     1.0000 0.93100  0.00020  0.23210  Biso   1.000  H
  O43      1.0000 0.39280  0.69470  0.79540  Biso   1.000  O
  O44      1.0000 0.37524  0.64710  0.79020  Biso   1.000  O
  C225     1.0000 0.54480  0.69430  0.85940  Biso   1.000  C
  H153     1.0000 0.56030  0.69730  0.84610  Biso   1.000  H
  C226     1.0000 0.51780  0.68910  0.84760  Biso   1.000  C
  H154     1.0000 0.51630  0.68850  0.82570  Biso   1.000  H
  C227     1.0000 0.50080  0.69230  0.89130  Biso   1.000  C
  H155     1.0000 0.48880  0.69810  0.90170  Biso   1.000  H
  C228     1.0000 0.52340  0.69140  0.90840  Biso   1.000  C
  H156     1.0000 0.52220  0.68870  0.93010  Biso   1.000  H
  Zn13     1.0000 0.14874  0.35671  0.24201  Biso   1.000  Zn
  Zn14     1.0000 0.15962  0.30703  0.21294  Biso   1.000  Zn
  Zn15     1.0000 0.29576  0.66092  0.77190  Biso   1.000  Zn
  O45      1.0000 0.14788  0.32442  0.17854  Biso   1.000  O
  O46      1.0000 0.13867  0.35699  0.19705  Biso   1.000  O
  O47      1.0000 0.11369  0.34757  0.26821  Biso   1.000  O
  O48      1.0000 0.19838  0.31443  0.20001  Biso   1.000  O
  O49      1.0000 0.29753  0.62854  0.80908  Biso   1.000  O
  O50      1.0000 0.27245  0.61155  0.76655  Biso   1.000  O
  O51      1.0000 0.17823  0.39862  0.25159  Biso   1.000  O
  O52      1.0000 0.13760  0.26587  0.22440  Biso   1.000  O
  O53      1.0000 0.12817  0.31056  0.23067  Biso   1.000  O
  C229     1.0000 0.10671  0.39102  0.95292  Biso   1.000  C
  C230     1.0000 0.08126  0.37105  0.93663  Biso   1.000  C
  H157     1.0000 0.06700  0.35380  0.94650  Biso   1.000  H
  C231     1.0000 0.07709  0.37688  0.90558  Biso   1.000  C
  C232     1.0000 0.09837  0.40268  0.89081  Biso   1.000  C
  H158     1.0000 0.09560  0.40660  0.87000  Biso   1.000  H
  C233     1.0000 0.12382  0.42265  0.90710  Biso   1.000  C
  C234     1.0000 0.12799  0.41682  0.93815  Biso   1.000  C
  H159     1.0000 0.14500  0.43020  0.94910  Biso   1.000  H
  C235     1.0000 0.12165  0.37122  0.04791  Biso   1.000  C
  C236     1.0000 0.10650  0.34820  0.02649  Biso   1.000  C
  H160     1.0000 0.09960  0.32870  0.03270  Biso   1.000  H
  C237     1.0000 0.10176  0.35439  0.99580  Biso   1.000  C
  H161     1.0000 0.09160  0.33900  0.98150  Biso   1.000  H
  C238     1.0000 0.11215  0.38358  0.98650  Biso   1.000  C
  C239     1.0000 0.12729  0.40658  0.00791  Biso   1.000  C
  H162     1.0000 0.13420  0.42610  0.00170  Biso   1.000  H
  C240     1.0000 0.13204  0.40041  0.03862  Biso   1.000  C
  H163     1.0000 0.14220  0.41580  0.05290  Biso   1.000  H
  C241     1.0000 0.13617  0.35098  0.14305  Biso   1.000  C
  C242     1.0000 0.13782  0.33527  0.11731  Biso   1.000  C
  H164     1.0000 0.14250  0.32040  0.12040  Biso   1.000  H
  C243     1.0000 0.13254  0.34187  0.08700  Biso   1.000  C
  H165     1.0000 0.13370  0.33140  0.06980  Biso   1.000  H
  C244     1.0000 0.12562  0.36418  0.08244  Biso   1.000  C
  C245     1.0000 0.12397  0.37989  0.10818  Biso   1.000  C
  H166     1.0000 0.11930  0.39480  0.10510  Biso   1.000  H
  C246     1.0000 0.12924  0.37329  0.13849  Biso   1.000  C
  H167     1.0000 0.12810  0.38380  0.15570  Biso   1.000  H
  C247     1.0000 0.14599  0.34619  0.17520  Biso   1.000  C
  C248     1.0000 0.05040  0.35645  0.88735  Biso   1.000  C
  C249     1.0000 0.03433  0.32782  0.89940  Biso   1.000  C
  H168     1.0000 0.04030  0.32300  0.91810  Biso   1.000  H
  C250     1.0000 0.00937  0.30646  0.88348  Biso   1.000  C
  H169     1.0000 0.99860  0.28730  0.89150  Biso   1.000  H
  C251     1.0000 0.00048  0.31372  0.85551  Biso   1.000  C
  C252     1.0000 0.01655  0.34235  0.84346  Biso   1.000  C
  H170     1.0000 0.01060  0.34720  0.82470  Biso   1.000  H
  C253     1.0000 0.04152  0.36372  0.85938  Biso   1.000  C
  H171     1.0000 0.05230  0.38290  0.85130  Biso   1.000  H
  C254     1.0000 0.97129  0.28841  0.84148  Biso   1.000  C
  C255     1.0000 0.95430  0.25865  0.84973  Biso   1.000  C
  H172     1.0000 0.95930  0.25140  0.86740  Biso   1.000  H
  C256     1.0000 0.92978  0.23965  0.83161  Biso   1.000  C
  H173     1.0000 0.91840  0.21970  0.83710  Biso   1.000  H
  C257     1.0000 0.92224  0.25040  0.80523  Biso   1.000  C
  C258     1.0000 0.93924  0.28017  0.79698  Biso   1.000  C
  H174     1.0000 0.93420  0.28740  0.77930  Biso   1.000  H
  C259     1.0000 0.96376  0.29917  0.81510  Biso   1.000  C
  H175     1.0000 0.97510  0.31910  0.80960  Biso   1.000  H
  C260     1.0000 0.10491  0.32991  0.28995  Biso   1.000  C
  C261     1.0000 0.14701  0.45231  0.89140  Biso   1.000  C
  C262     1.0000 0.13820  0.46710  0.87060  Biso   1.000  C
  H176     1.0000 0.11810  0.45970  0.86660  Biso   1.000  H
  C263     1.0000 0.15930  0.49290  0.85570  Biso   1.000  C
  H177     1.0000 0.15340  0.50280  0.84180  Biso   1.000  H
  C264     1.0000 0.18930  0.50390  0.86160  Biso   1.000  C
  C265     1.0000 0.19810  0.48910  0.88250  Biso   1.000  C
  H178     1.0000 0.21820  0.49650  0.88650  Biso   1.000  H
  C266     1.0000 0.17690  0.46330  0.89740  Biso   1.000  C
  H179     1.0000 0.18290  0.45350  0.91130  Biso   1.000  H
  C267     1.0000 0.21182  0.52858  0.84503  Biso   1.000  C
  C268     1.0000 0.20313  0.54427  0.82535  Biso   1.000  C
  H180     1.0000 0.18310  0.53740  0.82190  Biso   1.000  H
  C269     1.0000 0.22443  0.57024  0.81086  Biso   1.000  C
  H181     1.0000 0.21860  0.58070  0.79770  Biso   1.000  H
  C270     1.0000 0.25441  0.58053  0.81605  Biso   1.000  C
  C271     1.0000 0.26309  0.56484  0.83573  Biso   1.000  C
  H182     1.0000 0.28310  0.57170  0.83920  Biso   1.000  H
  C272     1.0000 0.24179  0.53886  0.85021  Biso   1.000  C
  H183     1.0000 0.24760  0.52840  0.86340  Biso   1.000  H
  C273     1.0000 0.27580  0.60620  0.79560  Biso   1.000  C
  C274     1.0000 0.20768  0.45922  0.25256  Biso   1.000  C
  H184     1.0000 0.18710  0.44900  0.25440  Biso   1.000  H
  C275     1.0000 0.22256  0.48989  0.25261  Biso   1.000  C
  H185     1.0000 0.21170  0.49960  0.25440  Biso   1.000  H
  C276     1.0000 0.25701  0.55750  0.25500  Biso   1.000  C
  H186     1.0000 0.23700  0.54760  0.26010  Biso   1.000  H
  C277     1.0000 0.27196  0.58787  0.25270  Biso   1.000  C
  H187     1.0000 0.26150  0.59800  0.25310  Biso   1.000  H
  C278     1.0000 0.09930  0.20630  0.27719  Biso   1.000  C
  H188     1.0000 0.10130  0.21670  0.29570  Biso   1.000  H
  C279     1.0000 0.08430  0.17520  0.27721  Biso   1.000  C
  H189     1.0000 0.07750  0.16510  0.29620  Biso   1.000  H
  C280     1.0000 0.07606  0.10950  0.24210  Biso   1.000  C
  H190     1.0000 0.09630  0.11950  0.23800  Biso   1.000  H
  C281     1.0000 0.06040  0.07940  0.24020  Biso   1.000  C
  H191     1.0000 0.06920  0.06900  0.23210  Biso   1.000  H
  O54      1.0000 0.30190  0.60720  0.79540  Biso   1.000  O
  O55      1.0000 0.27186  0.62476  0.79020  Biso   1.000  O
  C282     1.0000 0.14950  0.45520  0.85940  Biso   1.000  C
  H192     1.0000 0.13700  0.43970  0.84610  Biso   1.000  H
  C283     1.0000 0.17130  0.48220  0.84760  Biso   1.000  C
  H193     1.0000 0.17220  0.48370  0.82570  Biso   1.000  H
  C284     1.0000 0.19150  0.49920  0.89130  Biso   1.000  C
  H194     1.0000 0.20930  0.51120  0.90170  Biso   1.000  H
  C285     1.0000 0.16800  0.47660  0.90840  Biso   1.000  C
  H195     1.0000 0.16650  0.47780  0.93010  Biso   1.000  H
  Zn16     1.0000 0.20796  0.85126  0.24201  Biso   1.000  Zn
  Zn17     1.0000 0.14742  0.84038  0.21294  Biso   1.000  Zn
  Zn18     1.0000 0.36516  0.70424  0.77190  Biso   1.000  Zn
  O56      1.0000 0.17654  0.85212  0.17854  Biso   1.000  O
  O57      1.0000 0.21832  0.86133  0.19705  Biso   1.000  O
  O58      1.0000 0.23388  0.88631  0.26821  Biso   1.000  O
  O59      1.0000 0.11605  0.80162  0.20001  Biso   1.000  O
  O60      1.0000 0.33101  0.70247  0.80908  Biso   1.000  O
  O61      1.0000 0.33910  0.72755  0.76655  Biso   1.000  O
  O62      1.0000 0.22039  0.82177  0.25159  Biso   1.000  O
  O63      1.0000 0.12827  0.86240  0.22440  Biso   1.000  O
  O64      1.0000 0.18239  0.87183  0.23067  Biso   1.000  O
  C286     1.0000 0.28431  0.89329  0.95292  Biso   1.000  C
  C287     1.0000 0.28979  0.91874  0.93663  Biso   1.000  C
  H196     1.0000 0.28680  0.93300  0.94650  Biso   1.000  H
  C288     1.0000 0.29979  0.92291  0.90558  Biso   1.000  C
  C289     1.0000 0.30431  0.90163  0.89081  Biso   1.000  C
  H197     1.0000 0.31100  0.90440  0.87000  Biso   1.000  H
  C290     1.0000 0.29883  0.87618  0.90710  Biso   1.000  C
  C291     1.0000 0.28883  0.87201  0.93815  Biso   1.000  C
  H198     1.0000 0.28520  0.85500  0.94910  Biso   1.000  H
  C292     1.0000 0.24957  0.87835  0.04791  Biso   1.000  C
  C293     1.0000 0.24170  0.89350  0.02649  Biso   1.000  C
  H199     1.0000 0.22910  0.90040  0.03270  Biso   1.000  H
  C294     1.0000 0.25263  0.89824  0.99580  Biso   1.000  C
  H200     1.0000 0.24740  0.90840  0.98150  Biso   1.000  H
  C295     1.0000 0.27143  0.88785  0.98650  Biso   1.000  C
  C296     1.0000 0.27929  0.87271  0.00791  Biso   1.000  C
  H201     1.0000 0.29190  0.86580  0.00170  Biso   1.000  H
  C297     1.0000 0.26837  0.86796  0.03862  Biso   1.000  C
  H202     1.0000 0.27360  0.85780  0.05290  Biso   1.000  H
  C298     1.0000 0.21481  0.86383  0.14305  Biso   1.000  C
  C299     1.0000 0.19745  0.86218  0.11731  Biso   1.000  C
  H203     1.0000 0.17790  0.85750  0.12040  Biso   1.000  H
  C300     1.0000 0.20933  0.86746  0.08700  Biso   1.000  C
  H204     1.0000 0.19770  0.86630  0.06980  Biso   1.000  H
  C301     1.0000 0.23856  0.87438  0.08244  Biso   1.000  C
  C302     1.0000 0.25592  0.87603  0.10818  Biso   1.000  C
  H205     1.0000 0.27550  0.88070  0.10510  Biso   1.000  H
  C303     1.0000 0.24405  0.87076  0.13849  Biso   1.000  C
  H206     1.0000 0.25570  0.87190  0.15570  Biso   1.000  H
  C304     1.0000 0.20020  0.85401  0.17520  Biso   1.000  C
  C305     1.0000 0.30605  0.94960  0.88735  Biso   1.000  C
  C306     1.0000 0.29349  0.96567  0.89940  Biso   1.000  C
  H207     1.0000 0.28270  0.95970  0.91810  Biso   1.000  H
  C307     1.0000 0.29709  0.99063  0.88348  Biso   1.000  C
  H208     1.0000 0.28870  0.00140  0.89150  Biso   1.000  H
  C308     1.0000 0.31324  0.99952  0.85551  Biso   1.000  C
  C309     1.0000 0.32580  0.98345  0.84346  Biso   1.000  C
  H209     1.0000 0.33660  0.98940  0.82470  Biso   1.000  H
  C310     1.0000 0.32220  0.95848  0.85938  Biso   1.000  C
  H210     1.0000 0.33060  0.94770  0.85130  Biso   1.000  H
  C311     1.0000 0.31712  0.02871  0.84148  Biso   1.000  C
  C312     1.0000 0.30435  0.04570  0.84973  Biso   1.000  C
  H211     1.0000 0.29210  0.04070  0.86740  Biso   1.000  H
  C313     1.0000 0.30987  0.07022  0.83161  Biso   1.000  C
  H212     1.0000 0.30130  0.08160  0.83710  Biso   1.000  H
  C314     1.0000 0.32816  0.07776  0.80523  Biso   1.000  C
  C315     1.0000 0.34093  0.06076  0.79698  Biso   1.000  C
  H213     1.0000 0.35320  0.06580  0.77930  Biso   1.000  H
  C316     1.0000 0.33541  0.03624  0.81510  Biso   1.000  C
  H214     1.0000 0.34400  0.02490  0.80960  Biso   1.000  H
  C317     1.0000 0.22500  0.89509  0.28995  Biso   1.000  C
  C318     1.0000 0.30530  0.85299  0.89140  Biso   1.000  C
  C319     1.0000 0.32890  0.86180  0.87060  Biso   1.000  C
  H215     1.0000 0.34160  0.88190  0.86660  Biso   1.000  H
  C320     1.0000 0.33360  0.84070  0.85570  Biso   1.000  C
  H216     1.0000 0.34940  0.84660  0.84180  Biso   1.000  H
  C321     1.0000 0.31460  0.81070  0.86160  Biso   1.000  C
  C322     1.0000 0.29100  0.80190  0.88250  Biso   1.000  C
  H217     1.0000 0.27830  0.78180  0.88650  Biso   1.000  H
  C323     1.0000 0.28640  0.82310  0.89740  Biso   1.000  C
  H218     1.0000 0.27060  0.81710  0.91130  Biso   1.000  H
  C324     1.0000 0.31676  0.78818  0.84503  Biso   1.000  C
  C325     1.0000 0.34114  0.79687  0.82535  Biso   1.000  C
  H219     1.0000 0.35430  0.81690  0.82190  Biso   1.000  H
  C326     1.0000 0.34581  0.77557  0.81086  Biso   1.000  C
  H220     1.0000 0.36210  0.78140  0.79770  Biso   1.000  H
  C327     1.0000 0.32612  0.74559  0.81605  Biso   1.000  C
  C328     1.0000 0.30175  0.73691  0.83573  Biso   1.000  C
  H221     1.0000 0.28860  0.71690  0.83920  Biso   1.000  H
  C329     1.0000 0.29707  0.75821  0.85021  Biso   1.000  C
  H222     1.0000 0.28080  0.75240  0.86340  Biso   1.000  H
  C330     1.0000 0.33040  0.72420  0.79560  Biso   1.000  C
  C331     1.0000 0.25154  0.79232  0.25256  Biso   1.000  C
  H223     1.0000 0.26190  0.81290  0.25440  Biso   1.000  H
  C332     1.0000 0.26733  0.77744  0.25261  Biso   1.000  C
  H224     1.0000 0.28790  0.78830  0.25440  Biso   1.000  H
  C333     1.0000 0.30049  0.74299  0.25500  Biso   1.000  C
  H225     1.0000 0.31060  0.76300  0.26010  Biso   1.000  H
  C334     1.0000 0.31591  0.72804  0.25270  Biso   1.000  C
  H226     1.0000 0.33650  0.73850  0.25310  Biso   1.000  H
  C335     1.0000 0.10700  0.90070  0.27719  Biso   1.000  C
  H227     1.0000 0.11540  0.89870  0.29570  Biso   1.000  H
  C336     1.0000 0.09090  0.91570  0.27721  Biso   1.000  C
  H228     1.0000 0.08760  0.92250  0.29620  Biso   1.000  H
  C337     1.0000 0.03344  0.92394  0.24210  Biso   1.000  C
  H229     1.0000 0.02320  0.90370  0.23800  Biso   1.000  H
  C338     1.0000 0.01900  0.93960  0.24020  Biso   1.000  C
  H230     1.0000 0.99980  0.93080  0.23210  Biso   1.000  H
  O65      1.0000 0.30530  0.69810  0.79540  Biso   1.000  O
  O66      1.0000 0.35290  0.72814  0.79020  Biso   1.000  O
  C339     1.0000 0.30570  0.85050  0.85940  Biso   1.000  C
  H231     1.0000 0.30270  0.86300  0.84610  Biso   1.000  H
  C340     1.0000 0.31090  0.82870  0.84760  Biso   1.000  C
  H232     1.0000 0.31150  0.82780  0.82570  Biso   1.000  H
  C341     1.0000 0.30770  0.80850  0.89130  Biso   1.000  C
  H233     1.0000 0.30190  0.79070  0.90170  Biso   1.000  H
  C342     1.0000 0.30860  0.83200  0.90840  Biso   1.000  C
  H234     1.0000 0.31130  0.83350  0.93010  Biso   1.000  H
  Zn19     1.0000 0.79204  0.64329  0.74201  Biso   1.000  Zn
  Zn20     1.0000 0.85258  0.69297  0.71294  Biso   1.000  Zn
  Zn21     1.0000 0.63484  0.33908  0.27190  Biso   1.000  Zn
  O67      1.0000 0.82346  0.67558  0.67854  Biso   1.000  O
  O68      1.0000 0.78168  0.64301  0.69705  Biso   1.000  O
  O69      1.0000 0.76612  0.65243  0.76821  Biso   1.000  O
  O70      1.0000 0.88395  0.68557  0.70001  Biso   1.000  O
  O71      1.0000 0.66899  0.37146  0.30908  Biso   1.000  O
  O72      1.0000 0.66090  0.38845  0.26655  Biso   1.000  O
  O73      1.0000 0.77961  0.60138  0.75159  Biso   1.000  O
  O74      1.0000 0.87173  0.73413  0.72440  Biso   1.000  O
  O75      1.0000 0.81761  0.68944  0.73067  Biso   1.000  O
  C343     1.0000 0.71569  0.60898  0.45292  Biso   1.000  C
  C344     1.0000 0.71021  0.62895  0.43663  Biso   1.000  C
  H235     1.0000 0.71320  0.64620  0.44650  Biso   1.000  H
  C345     1.0000 0.70021  0.62312  0.40558  Biso   1.000  C
  C346     1.0000 0.69569  0.59732  0.39081  Biso   1.000  C
  H236     1.0000 0.68900  0.59340  0.37000  Biso   1.000  H
  C347     1.0000 0.70117  0.57735  0.40710  Biso   1.000  C
  C348     1.0000 0.71117  0.58318  0.43815  Biso   1.000  C
  H237     1.0000 0.71480  0.56980  0.44910  Biso   1.000  H
  C349     1.0000 0.75043  0.62878  0.54791  Biso   1.000  C
  C350     1.0000 0.75830  0.65180  0.52649  Biso   1.000  C
  H238     1.0000 0.77090  0.67130  0.53270  Biso   1.000  H
  C351     1.0000 0.74737  0.64561  0.49580  Biso   1.000  C
  H239     1.0000 0.75260  0.66100  0.48150  Biso   1.000  H
  C352     1.0000 0.72857  0.61642  0.48650  Biso   1.000  C
  C353     1.0000 0.72071  0.59342  0.50791  Biso   1.000  C
  H240     1.0000 0.70810  0.57390  0.50170  Biso   1.000  H
  C354     1.0000 0.73163  0.59959  0.53862  Biso   1.000  C
  H241     1.0000 0.72640  0.58420  0.55290  Biso   1.000  H
  C355     1.0000 0.78519  0.64902  0.64305  Biso   1.000  C
  C356     1.0000 0.80255  0.66473  0.61731  Biso   1.000  C
  H242     1.0000 0.82210  0.67960  0.62040  Biso   1.000  H
  C357     1.0000 0.79067  0.65813  0.58700  Biso   1.000  C
  H243     1.0000 0.80230  0.66860  0.56980  Biso   1.000  H
  C358     1.0000 0.76144  0.63582  0.58244  Biso   1.000  C
  C359     1.0000 0.74408  0.62011  0.60818  Biso   1.000  C
  H244     1.0000 0.72450  0.60520  0.60510  Biso   1.000  H
  C360     1.0000 0.75595  0.62671  0.63849  Biso   1.000  C
  H245     1.0000 0.74430  0.61620  0.65570  Biso   1.000  H
  C361     1.0000 0.79980  0.65381  0.67520  Biso   1.000  C
  C362     1.0000 0.69395  0.64355  0.38735  Biso   1.000  C
  C363     1.0000 0.70651  0.67218  0.39940  Biso   1.000  C
  H246     1.0000 0.71730  0.67700  0.41810  Biso   1.000  H
  C364     1.0000 0.70291  0.69354  0.38348  Biso   1.000  C
  H247     1.0000 0.71130  0.71270  0.39150  Biso   1.000  H
  C365     1.0000 0.68676  0.68628  0.35551  Biso   1.000  C
  C366     1.0000 0.67420  0.65765  0.34346  Biso   1.000  C
  H248     1.0000 0.66340  0.65280  0.32470  Biso   1.000  H
  C367     1.0000 0.67780  0.63628  0.35938  Biso   1.000  C
  H249     1.0000 0.66940  0.61710  0.35130  Biso   1.000  H
  C368     1.0000 0.68288  0.71159  0.34148  Biso   1.000  C
  C369     1.0000 0.69565  0.74135  0.34973  Biso   1.000  C
  H250     1.0000 0.70790  0.74860  0.36740  Biso   1.000  H
  C370     1.0000 0.69013  0.76035  0.33161  Biso   1.000  C
  H251     1.0000 0.69870  0.78030  0.33710  Biso   1.000  H
  C371     1.0000 0.67184  0.74960  0.30523  Biso   1.000  C
  C372     1.0000 0.65907  0.71983  0.29698  Biso   1.000  C
  H252     1.0000 0.64680  0.71260  0.27930  Biso   1.000  H
  C373     1.0000 0.66459  0.70083  0.31510  Biso   1.000  C
  H253     1.0000 0.65600  0.68090  0.30960  Biso   1.000  H
  C374     1.0000 0.77500  0.67009  0.78995  Biso   1.000  C
  C375     1.0000 0.69470  0.54769  0.39140  Biso   1.000  C
  C376     1.0000 0.67110  0.53290  0.37060  Biso   1.000  C
  H254     1.0000 0.65840  0.54030  0.36660  Biso   1.000  H
  C377     1.0000 0.66640  0.50710  0.35570  Biso   1.000  C
  H255     1.0000 0.65060  0.49720  0.34180  Biso   1.000  H
  C378     1.0000 0.68540  0.49610  0.36160  Biso   1.000  C
  C379     1.0000 0.70900  0.51090  0.38250  Biso   1.000  C
  H256     1.0000 0.72170  0.50350  0.38650  Biso   1.000  H
  C380     1.0000 0.71360  0.53670  0.39740  Biso   1.000  C
  H257     1.0000 0.72940  0.54650  0.41130  Biso   1.000  H
  C381     1.0000 0.68324  0.47142  0.34503  Biso   1.000  C
  C382     1.0000 0.65886  0.45573  0.32535  Biso   1.000  C
  H258     1.0000 0.64570  0.46260  0.32190  Biso   1.000  H
  C383     1.0000 0.65419  0.42976  0.31086  Biso   1.000  C
  H259     1.0000 0.63790  0.41930  0.29770  Biso   1.000  H
  C384     1.0000 0.67388  0.41947  0.31605  Biso   1.000  C
  C385     1.0000 0.69825  0.43516  0.33573  Biso   1.000  C
  H260     1.0000 0.71140  0.42830  0.33920  Biso   1.000  H
  C386     1.0000 0.70293  0.46114  0.35021  Biso   1.000  C
  H261     1.0000 0.71920  0.47160  0.36340  Biso   1.000  H
  C387     1.0000 0.66960  0.39380  0.29560  Biso   1.000  C
  C388     1.0000 0.74846  0.54078  0.75256  Biso   1.000  C
  H262     1.0000 0.73810  0.55100  0.75440  Biso   1.000  H
  C389     1.0000 0.73267  0.51011  0.75261  Biso   1.000  C
  H263     1.0000 0.71210  0.50040  0.75440  Biso   1.000  H
  C390     1.0000 0.69951  0.44250  0.75500  Biso   1.000  C
  H264     1.0000 0.68940  0.45240  0.76010  Biso   1.000  H
  C391     1.0000 0.68409  0.41213  0.75270  Biso   1.000  C
  H265     1.0000 0.66350  0.40200  0.75310  Biso   1.000  H
  C392     1.0000 0.89300  0.79370  0.77719  Biso   1.000  C
  H266     1.0000 0.88460  0.78330  0.79570  Biso   1.000  H
  C393     1.0000 0.90910  0.82480  0.77721  Biso   1.000  C
  H267     1.0000 0.91240  0.83490  0.79620  Biso   1.000  H
  C394     1.0000 0.96656  0.89050  0.74210  Biso   1.000  C
  H268     1.0000 0.97680  0.88050  0.73800  Biso   1.000  H
  C395     1.0000 0.98100  0.92060  0.74020  Biso   1.000  C
  H269     1.0000 0.00020  0.93100  0.73210  Biso   1.000  H
  O76      1.0000 0.69470  0.39280  0.29540  Biso   1.000  O
  O77      1.0000 0.64710  0.37524  0.29020  Biso   1.000  O
  C396     1.0000 0.69430  0.54480  0.35940  Biso   1.000  C
  H270     1.0000 0.69730  0.56030  0.34610  Biso   1.000  H
  C397     1.0000 0.68910  0.51780  0.34760  Biso   1.000  C
  H271     1.0000 0.68850  0.51630  0.32570  Biso   1.000  H
  C398     1.0000 0.69230  0.50080  0.39130  Biso   1.000  C
  H272     1.0000 0.69810  0.48880  0.40170  Biso   1.000  H
  C399     1.0000 0.69140  0.52340  0.40840  Biso   1.000  C
  H273     1.0000 0.68870  0.52220  0.43010  Biso   1.000  H
  Zn22     1.0000 0.35671  0.14874  0.74201  Biso   1.000  Zn
  Zn23     1.0000 0.30703  0.15962  0.71294  Biso   1.000  Zn
  Zn24     1.0000 0.66092  0.29576  0.27190  Biso   1.000  Zn
  O78      1.0000 0.32442  0.14788  0.67854  Biso   1.000  O
  O79      1.0000 0.35699  0.13867  0.69705  Biso   1.000  O
  O80      1.0000 0.34757  0.11369  0.76821  Biso   1.000  O
  O81      1.0000 0.31443  0.19838  0.70001  Biso   1.000  O
  O82      1.0000 0.62854  0.29753  0.30908  Biso   1.000  O
  O83      1.0000 0.61155  0.27245  0.26655  Biso   1.000  O
  O84      1.0000 0.39862  0.17823  0.75159  Biso   1.000  O
  O85      1.0000 0.26587  0.13760  0.72440  Biso   1.000  O
  O86      1.0000 0.31056  0.12817  0.73067  Biso   1.000  O
  C400     1.0000 0.39102  0.10671  0.45292  Biso   1.000  C
  C401     1.0000 0.37105  0.08126  0.43663  Biso   1.000  C
  H274     1.0000 0.35380  0.06700  0.44650  Biso   1.000  H
  C402     1.0000 0.37688  0.07709  0.40558  Biso   1.000  C
  C403     1.0000 0.40268  0.09837  0.39081  Biso   1.000  C
  H275     1.0000 0.40660  0.09560  0.37000  Biso   1.000  H
  C404     1.0000 0.42265  0.12382  0.40710  Biso   1.000  C
  C405     1.0000 0.41682  0.12799  0.43815  Biso   1.000  C
  H276     1.0000 0.43020  0.14500  0.44910  Biso   1.000  H
  C406     1.0000 0.37122  0.12165  0.54791  Biso   1.000  C
  C407     1.0000 0.34820  0.10650  0.52649  Biso   1.000  C
  H277     1.0000 0.32870  0.09960  0.53270  Biso   1.000  H
  C408     1.0000 0.35439  0.10176  0.49580  Biso   1.000  C
  H278     1.0000 0.33900  0.09160  0.48150  Biso   1.000  H
  C409     1.0000 0.38358  0.11215  0.48650  Biso   1.000  C
  C410     1.0000 0.40658  0.12729  0.50791  Biso   1.000  C
  H279     1.0000 0.42610  0.13420  0.50170  Biso   1.000  H
  C411     1.0000 0.40041  0.13204  0.53862  Biso   1.000  C
  H280     1.0000 0.41580  0.14220  0.55290  Biso   1.000  H
  C412     1.0000 0.35098  0.13617  0.64305  Biso   1.000  C
  C413     1.0000 0.33527  0.13782  0.61731  Biso   1.000  C
  H281     1.0000 0.32040  0.14250  0.62040  Biso   1.000  H
  C414     1.0000 0.34187  0.13254  0.58700  Biso   1.000  C
  H282     1.0000 0.33140  0.13370  0.56980  Biso   1.000  H
  C415     1.0000 0.36418  0.12562  0.58244  Biso   1.000  C
  C416     1.0000 0.37989  0.12397  0.60818  Biso   1.000  C
  H283     1.0000 0.39480  0.11930  0.60510  Biso   1.000  H
  C417     1.0000 0.37329  0.12924  0.63849  Biso   1.000  C
  H284     1.0000 0.38380  0.12810  0.65570  Biso   1.000  H
  C418     1.0000 0.34619  0.14599  0.67520  Biso   1.000  C
  C419     1.0000 0.35645  0.05040  0.38735  Biso   1.000  C
  C420     1.0000 0.32782  0.03433  0.39940  Biso   1.000  C
  H285     1.0000 0.32300  0.04030  0.41810  Biso   1.000  H
  C421     1.0000 0.30646  0.00937  0.38348  Biso   1.000  C
  H286     1.0000 0.28730  0.99860  0.39150  Biso   1.000  H
  C422     1.0000 0.31372  0.00048  0.35551  Biso   1.000  C
  C423     1.0000 0.34235  0.01655  0.34346  Biso   1.000  C
  H287     1.0000 0.34720  0.01060  0.32470  Biso   1.000  H
  C424     1.0000 0.36372  0.04152  0.35938  Biso   1.000  C
  H288     1.0000 0.38290  0.05230  0.35130  Biso   1.000  H
  C425     1.0000 0.28841  0.97129  0.34148  Biso   1.000  C
  C426     1.0000 0.25865  0.95430  0.34973  Biso   1.000  C
  H289     1.0000 0.25140  0.95930  0.36740  Biso   1.000  H
  C427     1.0000 0.23965  0.92978  0.33161  Biso   1.000  C
  H290     1.0000 0.21970  0.91840  0.33710  Biso   1.000  H
  C428     1.0000 0.25040  0.92224  0.30523  Biso   1.000  C
  C429     1.0000 0.28017  0.93924  0.29698  Biso   1.000  C
  H291     1.0000 0.28740  0.93420  0.27930  Biso   1.000  H
  C430     1.0000 0.29917  0.96376  0.31510  Biso   1.000  C
  H292     1.0000 0.31910  0.97510  0.30960  Biso   1.000  H
  C431     1.0000 0.32991  0.10491  0.78995  Biso   1.000  C
  C432     1.0000 0.45231  0.14701  0.39140  Biso   1.000  C
  C433     1.0000 0.46710  0.13820  0.37060  Biso   1.000  C
  H293     1.0000 0.45970  0.11810  0.36660  Biso   1.000  H
  C434     1.0000 0.49290  0.15930  0.35570  Biso   1.000  C
  H294     1.0000 0.50280  0.15340  0.34180  Biso   1.000  H
  C435     1.0000 0.50390  0.18930  0.36160  Biso   1.000  C
  C436     1.0000 0.48910  0.19810  0.38250  Biso   1.000  C
  H295     1.0000 0.49650  0.21820  0.38650  Biso   1.000  H
  C437     1.0000 0.46330  0.17690  0.39740  Biso   1.000  C
  H296     1.0000 0.45350  0.18290  0.41130  Biso   1.000  H
  C438     1.0000 0.52858  0.21182  0.34503  Biso   1.000  C
  C439     1.0000 0.54427  0.20313  0.32535  Biso   1.000  C
  H297     1.0000 0.53740  0.18310  0.32190  Biso   1.000  H
  C440     1.0000 0.57024  0.22443  0.31086  Biso   1.000  C
  H298     1.0000 0.58070  0.21860  0.29770  Biso   1.000  H
  C441     1.0000 0.58053  0.25441  0.31605  Biso   1.000  C
  C442     1.0000 0.56484  0.26309  0.33573  Biso   1.000  C
  H299     1.0000 0.57170  0.28310  0.33920  Biso   1.000  H
  C443     1.0000 0.53886  0.24179  0.35021  Biso   1.000  C
  H300     1.0000 0.52840  0.24760  0.36340  Biso   1.000  H
  C444     1.0000 0.60620  0.27580  0.29560  Biso   1.000  C
  C445     1.0000 0.45922  0.20768  0.75256  Biso   1.000  C
  H301     1.0000 0.44900  0.18710  0.75440  Biso   1.000  H
  C446     1.0000 0.48989  0.22256  0.75261  Biso   1.000  C
  H302     1.0000 0.49960  0.21170  0.75440  Biso   1.000  H
  C447     1.0000 0.55750  0.25701  0.75500  Biso   1.000  C
  H303     1.0000 0.54760  0.23700  0.76010  Biso   1.000  H
  C448     1.0000 0.58787  0.27196  0.75270  Biso   1.000  C
  H304     1.0000 0.59800  0.26150  0.75310  Biso   1.000  H
  C449     1.0000 0.20630  0.09930  0.77719  Biso   1.000  C
  H305     1.0000 0.21670  0.10130  0.79570  Biso   1.000  H
  C450     1.0000 0.17520  0.08430  0.77721  Biso   1.000  C
  H306     1.0000 0.16510  0.07750  0.79620  Biso   1.000  H
  C451     1.0000 0.10950  0.07606  0.74210  Biso   1.000  C
  H307     1.0000 0.11950  0.09630  0.73800  Biso   1.000  H
  C452     1.0000 0.07940  0.06040  0.74020  Biso   1.000  C
  H308     1.0000 0.06900  0.06920  0.73210  Biso   1.000  H
  O87      1.0000 0.60720  0.30190  0.29540  Biso   1.000  O
  O88      1.0000 0.62476  0.27186  0.29020  Biso   1.000  O
  C453     1.0000 0.45520  0.14950  0.35940  Biso   1.000  C
  H309     1.0000 0.43970  0.13700  0.34610  Biso   1.000  H
  C454     1.0000 0.48220  0.17130  0.34760  Biso   1.000  C
  H310     1.0000 0.48370  0.17220  0.32570  Biso   1.000  H
  C455     1.0000 0.49920  0.19150  0.39130  Biso   1.000  C
  H311     1.0000 0.51120  0.20930  0.40170  Biso   1.000  H
  C456     1.0000 0.47660  0.16800  0.40840  Biso   1.000  C
  H312     1.0000 0.47780  0.16650  0.43010  Biso   1.000  H
  Zn25     1.0000 0.85126  0.20796  0.74201  Biso   1.000  Zn
  Zn26     1.0000 0.84038  0.14742  0.71294  Biso   1.000  Zn
  Zn27     1.0000 0.70424  0.36516  0.27190  Biso   1.000  Zn
  O89      1.0000 0.85212  0.17654  0.67854  Biso   1.000  O
  O90      1.0000 0.86133  0.21832  0.69705  Biso   1.000  O
  O91      1.0000 0.88631  0.23388  0.76821  Biso   1.000  O
  O92      1.0000 0.80162  0.11605  0.70001  Biso   1.000  O
  O93      1.0000 0.70247  0.33101  0.30908  Biso   1.000  O
  O94      1.0000 0.72755  0.33910  0.26655  Biso   1.000  O
  O95      1.0000 0.82177  0.22039  0.75159  Biso   1.000  O
  O96      1.0000 0.86240  0.12827  0.72440  Biso   1.000  O
  O97      1.0000 0.87183  0.18239  0.73067  Biso   1.000  O
  C457     1.0000 0.89329  0.28431  0.45292  Biso   1.000  C
  C458     1.0000 0.91874  0.28979  0.43663  Biso   1.000  C
  H313     1.0000 0.93300  0.28680  0.44650  Biso   1.000  H
  C459     1.0000 0.92291  0.29979  0.40558  Biso   1.000  C
  C460     1.0000 0.90163  0.30431  0.39081  Biso   1.000  C
  H314     1.0000 0.90440  0.31100  0.37000  Biso   1.000  H
  C461     1.0000 0.87618  0.29883  0.40710  Biso   1.000  C
  C462     1.0000 0.87201  0.28883  0.43815  Biso   1.000  C
  H315     1.0000 0.85500  0.28520  0.44910  Biso   1.000  H
  C463     1.0000 0.87835  0.24957  0.54791  Biso   1.000  C
  C464     1.0000 0.89350  0.24170  0.52649  Biso   1.000  C
  H316     1.0000 0.90040  0.22910  0.53270  Biso   1.000  H
  C465     1.0000 0.89824  0.25263  0.49580  Biso   1.000  C
  H317     1.0000 0.90840  0.24740  0.48150  Biso   1.000  H
  C466     1.0000 0.88785  0.27143  0.48650  Biso   1.000  C
  C467     1.0000 0.87271  0.27929  0.50791  Biso   1.000  C
  H318     1.0000 0.86580  0.29190  0.50170  Biso   1.000  H
  C468     1.0000 0.86796  0.26837  0.53862  Biso   1.000  C
  H319     1.0000 0.85780  0.27360  0.55290  Biso   1.000  H
  C469     1.0000 0.86383  0.21481  0.64305  Biso   1.000  C
  C470     1.0000 0.86218  0.19745  0.61731  Biso   1.000  C
  H320     1.0000 0.85750  0.17790  0.62040  Biso   1.000  H
  C471     1.0000 0.86746  0.20933  0.58700  Biso   1.000  C
  H321     1.0000 0.86630  0.19770  0.56980  Biso   1.000  H
  C472     1.0000 0.87438  0.23856  0.58244  Biso   1.000  C
  C473     1.0000 0.87603  0.25592  0.60818  Biso   1.000  C
  H322     1.0000 0.88070  0.27550  0.60510  Biso   1.000  H
  C474     1.0000 0.87076  0.24405  0.63849  Biso   1.000  C
  H323     1.0000 0.87190  0.25570  0.65570  Biso   1.000  H
  C475     1.0000 0.85401  0.20020  0.67520  Biso   1.000  C
  C476     1.0000 0.94960  0.30605  0.38735  Biso   1.000  C
  C477     1.0000 0.96567  0.29349  0.39940  Biso   1.000  C
  H324     1.0000 0.95970  0.28270  0.41810  Biso   1.000  H
  C478     1.0000 0.99063  0.29709  0.38348  Biso   1.000  C
  H325     1.0000 0.00140  0.28870  0.39150  Biso   1.000  H
  C479     1.0000 0.99952  0.31324  0.35551  Biso   1.000  C
  C480     1.0000 0.98345  0.32580  0.34346  Biso   1.000  C
  H326     1.0000 0.98940  0.33660  0.32470  Biso   1.000  H
  C481     1.0000 0.95848  0.32220  0.35938  Biso   1.000  C
  H327     1.0000 0.94770  0.33060  0.35130  Biso   1.000  H
  C482     1.0000 0.02871  0.31712  0.34148  Biso   1.000  C
  C483     1.0000 0.04570  0.30435  0.34973  Biso   1.000  C
  H328     1.0000 0.04070  0.29210  0.36740  Biso   1.000  H
  C484     1.0000 0.07022  0.30987  0.33161  Biso   1.000  C
  H329     1.0000 0.08160  0.30130  0.33710  Biso   1.000  H
  C485     1.0000 0.07776  0.32816  0.30523  Biso   1.000  C
  C486     1.0000 0.06076  0.34093  0.29698  Biso   1.000  C
  H330     1.0000 0.06580  0.35320  0.27930  Biso   1.000  H
  C487     1.0000 0.03624  0.33541  0.31510  Biso   1.000  C
  H331     1.0000 0.02490  0.34400  0.30960  Biso   1.000  H
  C488     1.0000 0.89509  0.22500  0.78995  Biso   1.000  C
  C489     1.0000 0.85299  0.30530  0.39140  Biso   1.000  C
  C490     1.0000 0.86180  0.32890  0.37060  Biso   1.000  C
  H332     1.0000 0.88190  0.34160  0.36660  Biso   1.000  H
  C491     1.0000 0.84070  0.33360  0.35570  Biso   1.000  C
  H333     1.0000 0.84660  0.34940  0.34180  Biso   1.000  H
  C492     1.0000 0.81070  0.31460  0.36160  Biso   1.000  C
  C493     1.0000 0.80190  0.29100  0.38250  Biso   1.000  C
  H334     1.0000 0.78180  0.27830  0.38650  Biso   1.000  H
  C494     1.0000 0.82310  0.28640  0.39740  Biso   1.000  C
  H335     1.0000 0.81710  0.27060  0.41130  Biso   1.000  H
  C495     1.0000 0.78818  0.31676  0.34503  Biso   1.000  C
  C496     1.0000 0.79687  0.34114  0.32535  Biso   1.000  C
  H336     1.0000 0.81690  0.35430  0.32190  Biso   1.000  H
  C497     1.0000 0.77557  0.34581  0.31086  Biso   1.000  C
  H337     1.0000 0.78140  0.36210  0.29770  Biso   1.000  H
  C498     1.0000 0.74559  0.32612  0.31605  Biso   1.000  C
  C499     1.0000 0.73691  0.30175  0.33573  Biso   1.000  C
  H338     1.0000 0.71690  0.28860  0.33920  Biso   1.000  H
  C500     1.0000 0.75821  0.29707  0.35021  Biso   1.000  C
  H339     1.0000 0.75240  0.28080  0.36340  Biso   1.000  H
  C501     1.0000 0.72420  0.33040  0.29560  Biso   1.000  C
  C502     1.0000 0.79232  0.25154  0.75256  Biso   1.000  C
  H340     1.0000 0.81290  0.26190  0.75440  Biso   1.000  H
  C503     1.0000 0.77744  0.26733  0.75261  Biso   1.000  C
  H341     1.0000 0.78830  0.28790  0.75440  Biso   1.000  H
  C504     1.0000 0.74299  0.30049  0.75500  Biso   1.000  C
  H342     1.0000 0.76300  0.31060  0.76010  Biso   1.000  H
  C505     1.0000 0.72804  0.31591  0.75270  Biso   1.000  C
  H343     1.0000 0.73850  0.33650  0.75310  Biso   1.000  H
  C506     1.0000 0.90070  0.10700  0.77719  Biso   1.000  C
  H344     1.0000 0.89870  0.11540  0.79570  Biso   1.000  H
  C507     1.0000 0.91570  0.09090  0.77721  Biso   1.000  C
  H345     1.0000 0.92250  0.08760  0.79620  Biso   1.000  H
  C508     1.0000 0.92394  0.03344  0.74210  Biso   1.000  C
  H346     1.0000 0.90370  0.02320  0.73800  Biso   1.000  H
  C509     1.0000 0.93960  0.01900  0.74020  Biso   1.000  C
  H347     1.0000 0.93080  0.99980  0.73210  Biso   1.000  H
  O98      1.0000 0.69810  0.30530  0.29540  Biso   1.000  O
  O99      1.0000 0.72814  0.35290  0.29020  Biso   1.000  O
  C510     1.0000 0.85050  0.30570  0.35940  Biso   1.000  C
  H348     1.0000 0.86300  0.30270  0.34610  Biso   1.000  H
  C511     1.0000 0.82870  0.31090  0.34760  Biso   1.000  C
  H349     1.0000 0.82780  0.31150  0.32570  Biso   1.000  H
  C512     1.0000 0.80850  0.30770  0.39130  Biso   1.000  C
  H350     1.0000 0.79070  0.30190  0.40170  Biso   1.000  H
  C513     1.0000 0.83200  0.30860  0.40840  Biso   1.000  C
  H351     1.0000 0.83350  0.31130  0.43010  Biso   1.000  H
  Zn28     1.0000 0.35671  0.20796  0.75799  Biso   1.000  Zn
  Zn29     1.0000 0.30703  0.14742  0.78706  Biso   1.000  Zn
  Zn30     1.0000 0.66092  0.36516  0.22810  Biso   1.000  Zn
  O100     1.0000 0.32442  0.17654  0.82146  Biso   1.000  O
  O101     1.0000 0.35699  0.21832  0.80295  Biso   1.000  O
  O102     1.0000 0.34757  0.23388  0.73179  Biso   1.000  O
  O103     1.0000 0.31443  0.11605  0.79999  Biso   1.000  O
  O104     1.0000 0.62854  0.33101  0.19092  Biso   1.000  O
  O105     1.0000 0.61155  0.33910  0.23345  Biso   1.000  O
  O106     1.0000 0.39862  0.22039  0.74841  Biso   1.000  O
  O107     1.0000 0.26587  0.12827  0.77560  Biso   1.000  O
  O108     1.0000 0.31056  0.18239  0.76933  Biso   1.000  O
  C514     1.0000 0.39102  0.28431  0.04708  Biso   1.000  C
  C515     1.0000 0.37105  0.28979  0.06337  Biso   1.000  C
  H352     1.0000 0.35380  0.28680  0.05350  Biso   1.000  H
  C516     1.0000 0.37688  0.29979  0.09442  Biso   1.000  C
  C517     1.0000 0.40268  0.30431  0.10919  Biso   1.000  C
  H353     1.0000 0.40660  0.31100  0.13000  Biso   1.000  H
  C518     1.0000 0.42265  0.29883  0.09290  Biso   1.000  C
  C519     1.0000 0.41682  0.28883  0.06185  Biso   1.000  C
  H354     1.0000 0.43020  0.28520  0.05090  Biso   1.000  H
  C520     1.0000 0.37122  0.24957  0.95209  Biso   1.000  C
  C521     1.0000 0.34820  0.24170  0.97351  Biso   1.000  C
  H355     1.0000 0.32870  0.22910  0.96730  Biso   1.000  H
  C522     1.0000 0.35439  0.25263  0.00420  Biso   1.000  C
  H356     1.0000 0.33900  0.24740  0.01850  Biso   1.000  H
  C523     1.0000 0.38358  0.27143  0.01350  Biso   1.000  C
  C524     1.0000 0.40658  0.27929  0.99209  Biso   1.000  C
  H357     1.0000 0.42610  0.29190  0.99830  Biso   1.000  H
  C525     1.0000 0.40041  0.26837  0.96138  Biso   1.000  C
  H358     1.0000 0.41580  0.27360  0.94710  Biso   1.000  H
  C526     1.0000 0.35098  0.21481  0.85695  Biso   1.000  C
  C527     1.0000 0.33527  0.19745  0.88269  Biso   1.000  C
  H359     1.0000 0.32040  0.17790  0.87960  Biso   1.000  H
  C528     1.0000 0.34187  0.20933  0.91300  Biso   1.000  C
  H360     1.0000 0.33140  0.19770  0.93020  Biso   1.000  H
  C529     1.0000 0.36418  0.23856  0.91756  Biso   1.000  C
  C530     1.0000 0.37989  0.25592  0.89182  Biso   1.000  C
  H361     1.0000 0.39480  0.27550  0.89490  Biso   1.000  H
  C531     1.0000 0.37329  0.24405  0.86151  Biso   1.000  C
  H362     1.0000 0.38380  0.25570  0.84430  Biso   1.000  H
  C532     1.0000 0.34619  0.20020  0.82480  Biso   1.000  C
  C533     1.0000 0.35645  0.30605  0.11265  Biso   1.000  C
  C534     1.0000 0.32782  0.29349  0.10060  Biso   1.000  C
  H363     1.0000 0.32300  0.28270  0.08190  Biso   1.000  H
  C535     1.0000 0.30646  0.29709  0.11652  Biso   1.000  C
  H364     1.0000 0.28730  0.28870  0.10850  Biso   1.000  H
  C536     1.0000 0.31372  0.31324  0.14449  Biso   1.000  C
  C537     1.0000 0.34235  0.32580  0.15654  Biso   1.000  C
  H365     1.0000 0.34720  0.33660  0.17530  Biso   1.000  H
  C538     1.0000 0.36372  0.32220  0.14062  Biso   1.000  C
  H366     1.0000 0.38290  0.33060  0.14870  Biso   1.000  H
  C539     1.0000 0.28841  0.31712  0.15852  Biso   1.000  C
  C540     1.0000 0.25865  0.30435  0.15027  Biso   1.000  C
  H367     1.0000 0.25140  0.29210  0.13260  Biso   1.000  H
  C541     1.0000 0.23965  0.30987  0.16839  Biso   1.000  C
  H368     1.0000 0.21970  0.30130  0.16290  Biso   1.000  H
  C542     1.0000 0.25040  0.32816  0.19477  Biso   1.000  C
  C543     1.0000 0.28017  0.34093  0.20302  Biso   1.000  C
  H369     1.0000 0.28740  0.35320  0.22070  Biso   1.000  H
  C544     1.0000 0.29917  0.33541  0.18490  Biso   1.000  C
  H370     1.0000 0.31910  0.34400  0.19040  Biso   1.000  H
  C545     1.0000 0.32991  0.22500  0.71005  Biso   1.000  C
  C546     1.0000 0.45231  0.30530  0.10860  Biso   1.000  C
  C547     1.0000 0.46710  0.32890  0.12940  Biso   1.000  C
  H371     1.0000 0.45970  0.34160  0.13340  Biso   1.000  H
  C548     1.0000 0.49290  0.33360  0.14430  Biso   1.000  C
  H372     1.0000 0.50280  0.34940  0.15820  Biso   1.000  H
  C549     1.0000 0.50390  0.31460  0.13840  Biso   1.000  C
  C550     1.0000 0.48910  0.29100  0.11750  Biso   1.000  C
  H373     1.0000 0.49650  0.27830  0.11350  Biso   1.000  H
  C551     1.0000 0.46330  0.28640  0.10260  Biso   1.000  C
  H374     1.0000 0.45350  0.27060  0.08870  Biso   1.000  H
  C552     1.0000 0.52858  0.31676  0.15497  Biso   1.000  C
  C553     1.0000 0.54427  0.34114  0.17465  Biso   1.000  C
  H375     1.0000 0.53740  0.35430  0.17810  Biso   1.000  H
  C554     1.0000 0.57024  0.34581  0.18914  Biso   1.000  C
  H376     1.0000 0.58070  0.36210  0.20230  Biso   1.000  H
  C555     1.0000 0.58053  0.32612  0.18395  Biso   1.000  C
  C556     1.0000 0.56484  0.30175  0.16427  Biso   1.000  C
  H377     1.0000 0.57170  0.28860  0.16080  Biso   1.000  H
  C557     1.0000 0.53886  0.29707  0.14979  Biso   1.000  C
  H378     1.0000 0.52840  0.28080  0.13660  Biso   1.000  H
  C558     1.0000 0.60620  0.33040  0.20440  Biso   1.000  C
  C559     1.0000 0.45922  0.25154  0.74744  Biso   1.000  C
  H379     1.0000 0.44900  0.26190  0.74560  Biso   1.000  H
  C560     1.0000 0.48989  0.26733  0.74739  Biso   1.000  C
  H380     1.0000 0.49960  0.28790  0.74560  Biso   1.000  H
  C561     1.0000 0.55750  0.30049  0.74500  Biso   1.000  C
  H381     1.0000 0.54760  0.31060  0.73990  Biso   1.000  H
  C562     1.0000 0.58787  0.31591  0.74730  Biso   1.000  C
  H382     1.0000 0.59800  0.33650  0.74690  Biso   1.000  H
  C563     1.0000 0.20630  0.10700  0.72281  Biso   1.000  C
  H383     1.0000 0.21670  0.11540  0.70430  Biso   1.000  H
  C564     1.0000 0.17520  0.09090  0.72279  Biso   1.000  C
  H384     1.0000 0.16510  0.08760  0.70380  Biso   1.000  H
  C565     1.0000 0.10950  0.03344  0.75790  Biso   1.000  C
  H385     1.0000 0.11950  0.02320  0.76200  Biso   1.000  H
  C566     1.0000 0.07940  0.01900  0.75980  Biso   1.000  C
  H386     1.0000 0.06900  0.99980  0.76790  Biso   1.000  H
  O109     1.0000 0.60720  0.30530  0.20460  Biso   1.000  O
  O110     1.0000 0.62476  0.35290  0.20980  Biso   1.000  O
  C567     1.0000 0.45520  0.30570  0.14060  Biso   1.000  C
  H387     1.0000 0.43970  0.30270  0.15390  Biso   1.000  H
  C568     1.0000 0.48220  0.31090  0.15240  Biso   1.000  C
  H388     1.0000 0.48370  0.31150  0.17430  Biso   1.000  H
  C569     1.0000 0.49920  0.30770  0.10870  Biso   1.000  C
  H389     1.0000 0.51120  0.30190  0.09830  Biso   1.000  H
  C570     1.0000 0.47660  0.30860  0.09160  Biso   1.000  C
  H390     1.0000 0.47780  0.31130  0.06990  Biso   1.000  H
  Zn31     1.0000 0.85126  0.64329  0.75799  Biso   1.000  Zn
  Zn32     1.0000 0.84038  0.69297  0.78706  Biso   1.000  Zn
  Zn33     1.0000 0.70424  0.33908  0.22810  Biso   1.000  Zn
  O111     1.0000 0.85212  0.67558  0.82146  Biso   1.000  O
  O112     1.0000 0.86133  0.64301  0.80295  Biso   1.000  O
  O113     1.0000 0.88631  0.65243  0.73179  Biso   1.000  O
  O114     1.0000 0.80162  0.68557  0.79999  Biso   1.000  O
  O115     1.0000 0.70247  0.37146  0.19092  Biso   1.000  O
  O116     1.0000 0.72755  0.38845  0.23345  Biso   1.000  O
  O117     1.0000 0.82177  0.60138  0.74841  Biso   1.000  O
  O118     1.0000 0.86240  0.73413  0.77560  Biso   1.000  O
  O119     1.0000 0.87183  0.68944  0.76933  Biso   1.000  O
  C571     1.0000 0.89329  0.60898  0.04708  Biso   1.000  C
  C572     1.0000 0.91874  0.62895  0.06337  Biso   1.000  C
  H391     1.0000 0.93300  0.64620  0.05350  Biso   1.000  H
  C573     1.0000 0.92291  0.62312  0.09442  Biso   1.000  C
  C574     1.0000 0.90163  0.59732  0.10919  Biso   1.000  C
  H392     1.0000 0.90440  0.59340  0.13000  Biso   1.000  H
  C575     1.0000 0.87618  0.57735  0.09290  Biso   1.000  C
  C576     1.0000 0.87201  0.58318  0.06185  Biso   1.000  C
  H393     1.0000 0.85500  0.56980  0.05090  Biso   1.000  H
  C577     1.0000 0.87835  0.62878  0.95209  Biso   1.000  C
  C578     1.0000 0.89350  0.65180  0.97351  Biso   1.000  C
  H394     1.0000 0.90040  0.67130  0.96730  Biso   1.000  H
  C579     1.0000 0.89824  0.64561  0.00420  Biso   1.000  C
  H395     1.0000 0.90840  0.66100  0.01850  Biso   1.000  H
  C580     1.0000 0.88785  0.61642  0.01350  Biso   1.000  C
  C581     1.0000 0.87271  0.59342  0.99209  Biso   1.000  C
  H396     1.0000 0.86580  0.57390  0.99830  Biso   1.000  H
  C582     1.0000 0.86796  0.59959  0.96138  Biso   1.000  C
  H397     1.0000 0.85780  0.58420  0.94710  Biso   1.000  H
  C583     1.0000 0.86383  0.64902  0.85695  Biso   1.000  C
  C584     1.0000 0.86218  0.66473  0.88269  Biso   1.000  C
  H398     1.0000 0.85750  0.67960  0.87960  Biso   1.000  H
  C585     1.0000 0.86746  0.65813  0.91300  Biso   1.000  C
  H399     1.0000 0.86630  0.66860  0.93020  Biso   1.000  H
  C586     1.0000 0.87438  0.63582  0.91756  Biso   1.000  C
  C587     1.0000 0.87603  0.62011  0.89182  Biso   1.000  C
  H400     1.0000 0.88070  0.60520  0.89490  Biso   1.000  H
  C588     1.0000 0.87076  0.62671  0.86151  Biso   1.000  C
  H401     1.0000 0.87190  0.61620  0.84430  Biso   1.000  H
  C589     1.0000 0.85401  0.65381  0.82480  Biso   1.000  C
  C590     1.0000 0.94960  0.64355  0.11265  Biso   1.000  C
  C591     1.0000 0.96567  0.67218  0.10060  Biso   1.000  C
  H402     1.0000 0.95970  0.67700  0.08190  Biso   1.000  H
  C592     1.0000 0.99063  0.69354  0.11652  Biso   1.000  C
  H403     1.0000 0.00140  0.71270  0.10850  Biso   1.000  H
  C593     1.0000 0.99952  0.68628  0.14449  Biso   1.000  C
  C594     1.0000 0.98345  0.65765  0.15654  Biso   1.000  C
  H404     1.0000 0.98940  0.65280  0.17530  Biso   1.000  H
  C595     1.0000 0.95848  0.63628  0.14062  Biso   1.000  C
  H405     1.0000 0.94770  0.61710  0.14870  Biso   1.000  H
  C596     1.0000 0.02871  0.71159  0.15852  Biso   1.000  C
  C597     1.0000 0.04570  0.74135  0.15027  Biso   1.000  C
  H406     1.0000 0.04070  0.74860  0.13260  Biso   1.000  H
  C598     1.0000 0.07022  0.76035  0.16839  Biso   1.000  C
  H407     1.0000 0.08160  0.78030  0.16290  Biso   1.000  H
  C599     1.0000 0.07776  0.74960  0.19477  Biso   1.000  C
  C600     1.0000 0.06076  0.71983  0.20302  Biso   1.000  C
  H408     1.0000 0.06580  0.71260  0.22070  Biso   1.000  H
  C601     1.0000 0.03624  0.70083  0.18490  Biso   1.000  C
  H409     1.0000 0.02490  0.68090  0.19040  Biso   1.000  H
  C602     1.0000 0.89509  0.67009  0.71005  Biso   1.000  C
  C603     1.0000 0.85299  0.54769  0.10860  Biso   1.000  C
  C604     1.0000 0.86180  0.53290  0.12940  Biso   1.000  C
  H410     1.0000 0.88190  0.54030  0.13340  Biso   1.000  H
  C605     1.0000 0.84070  0.50710  0.14430  Biso   1.000  C
  H411     1.0000 0.84660  0.49720  0.15820  Biso   1.000  H
  C606     1.0000 0.81070  0.49610  0.13840  Biso   1.000  C
  C607     1.0000 0.80190  0.51090  0.11750  Biso   1.000  C
  H412     1.0000 0.78180  0.50350  0.11350  Biso   1.000  H
  C608     1.0000 0.82310  0.53670  0.10260  Biso   1.000  C
  H413     1.0000 0.81710  0.54650  0.08870  Biso   1.000  H
  C609     1.0000 0.78818  0.47142  0.15497  Biso   1.000  C
  C610     1.0000 0.79687  0.45573  0.17465  Biso   1.000  C
  H414     1.0000 0.81690  0.46260  0.17810  Biso   1.000  H
  C611     1.0000 0.77557  0.42976  0.18914  Biso   1.000  C
  H415     1.0000 0.78140  0.41930  0.20230  Biso   1.000  H
  C612     1.0000 0.74559  0.41947  0.18395  Biso   1.000  C
  C613     1.0000 0.73691  0.43516  0.16427  Biso   1.000  C
  H416     1.0000 0.71690  0.42830  0.16080  Biso   1.000  H
  C614     1.0000 0.75821  0.46114  0.14979  Biso   1.000  C
  H417     1.0000 0.75240  0.47160  0.13660  Biso   1.000  H
  C615     1.0000 0.72420  0.39380  0.20440  Biso   1.000  C
  C616     1.0000 0.79232  0.54078  0.74744  Biso   1.000  C
  H418     1.0000 0.81290  0.55100  0.74560  Biso   1.000  H
  C617     1.0000 0.77744  0.51011  0.74739  Biso   1.000  C
  H419     1.0000 0.78830  0.50040  0.74560  Biso   1.000  H
  C618     1.0000 0.74299  0.44250  0.74500  Biso   1.000  C
  H420     1.0000 0.76300  0.45240  0.73990  Biso   1.000  H
  C619     1.0000 0.72804  0.41213  0.74730  Biso   1.000  C
  H421     1.0000 0.73850  0.40200  0.74690  Biso   1.000  H
  C620     1.0000 0.90070  0.79370  0.72281  Biso   1.000  C
  H422     1.0000 0.89870  0.78330  0.70430  Biso   1.000  H
  C621     1.0000 0.91570  0.82480  0.72279  Biso   1.000  C
  H423     1.0000 0.92250  0.83490  0.70380  Biso   1.000  H
  C622     1.0000 0.92394  0.89050  0.75790  Biso   1.000  C
  H424     1.0000 0.90370  0.88050  0.76200  Biso   1.000  H
  C623     1.0000 0.93960  0.92060  0.75980  Biso   1.000  C
  H425     1.0000 0.93080  0.93100  0.76790  Biso   1.000  H
  O120     1.0000 0.69810  0.39280  0.20460  Biso   1.000  O
  O121     1.0000 0.72814  0.37524  0.20980  Biso   1.000  O
  C624     1.0000 0.85050  0.54480  0.14060  Biso   1.000  C
  H426     1.0000 0.86300  0.56030  0.15390  Biso   1.000  H
  C625     1.0000 0.82870  0.51780  0.15240  Biso   1.000  C
  H427     1.0000 0.82780  0.51630  0.17430  Biso   1.000  H
  C626     1.0000 0.80850  0.50080  0.10870  Biso   1.000  C
  H428     1.0000 0.79070  0.48880  0.09830  Biso   1.000  H
  C627     1.0000 0.83200  0.52340  0.09160  Biso   1.000  C
  H429     1.0000 0.83350  0.52220  0.06990  Biso   1.000  H
  Zn34     1.0000 0.79204  0.14874  0.75799  Biso   1.000  Zn
  Zn35     1.0000 0.85258  0.15962  0.78706  Biso   1.000  Zn
  Zn36     1.0000 0.63484  0.29576  0.22810  Biso   1.000  Zn
  O122     1.0000 0.82346  0.14788  0.82146  Biso   1.000  O
  O123     1.0000 0.78168  0.13867  0.80295  Biso   1.000  O
  O124     1.0000 0.76612  0.11369  0.73179  Biso   1.000  O
  O125     1.0000 0.88395  0.19838  0.79999  Biso   1.000  O
  O126     1.0000 0.66899  0.29753  0.19092  Biso   1.000  O
  O127     1.0000 0.66090  0.27245  0.23345  Biso   1.000  O
  O128     1.0000 0.77961  0.17823  0.74841  Biso   1.000  O
  O129     1.0000 0.87173  0.13760  0.77560  Biso   1.000  O
  O130     1.0000 0.81761  0.12817  0.76933  Biso   1.000  O
  C628     1.0000 0.71569  0.10671  0.04708  Biso   1.000  C
  C629     1.0000 0.71021  0.08126  0.06337  Biso   1.000  C
  H430     1.0000 0.71320  0.06700  0.05350  Biso   1.000  H
  C630     1.0000 0.70021  0.07709  0.09442  Biso   1.000  C
  C631     1.0000 0.69569  0.09837  0.10919  Biso   1.000  C
  H431     1.0000 0.68900  0.09560  0.13000  Biso   1.000  H
  C632     1.0000 0.70117  0.12382  0.09290  Biso   1.000  C
  C633     1.0000 0.71117  0.12799  0.06185  Biso   1.000  C
  H432     1.0000 0.71480  0.14500  0.05090  Biso   1.000  H
  C634     1.0000 0.75043  0.12165  0.95209  Biso   1.000  C
  C635     1.0000 0.75830  0.10650  0.97351  Biso   1.000  C
  H433     1.0000 0.77090  0.09960  0.96730  Biso   1.000  H
  C636     1.0000 0.74737  0.10176  0.00420  Biso   1.000  C
  H434     1.0000 0.75260  0.09160  0.01850  Biso   1.000  H
  C637     1.0000 0.72857  0.11215  0.01350  Biso   1.000  C
  C638     1.0000 0.72071  0.12729  0.99209  Biso   1.000  C
  H435     1.0000 0.70810  0.13420  0.99830  Biso   1.000  H
  C639     1.0000 0.73163  0.13204  0.96138  Biso   1.000  C
  H436     1.0000 0.72640  0.14220  0.94710  Biso   1.000  H
  C640     1.0000 0.78519  0.13617  0.85695  Biso   1.000  C
  C641     1.0000 0.80255  0.13782  0.88269  Biso   1.000  C
  H437     1.0000 0.82210  0.14250  0.87960  Biso   1.000  H
  C642     1.0000 0.79067  0.13254  0.91300  Biso   1.000  C
  H438     1.0000 0.80230  0.13370  0.93020  Biso   1.000  H
  C643     1.0000 0.76144  0.12562  0.91756  Biso   1.000  C
  C644     1.0000 0.74408  0.12397  0.89182  Biso   1.000  C
  H439     1.0000 0.72450  0.11930  0.89490  Biso   1.000  H
  C645     1.0000 0.75595  0.12924  0.86151  Biso   1.000  C
  H440     1.0000 0.74430  0.12810  0.84430  Biso   1.000  H
  C646     1.0000 0.79980  0.14599  0.82480  Biso   1.000  C
  C647     1.0000 0.69395  0.05040  0.11265  Biso   1.000  C
  C648     1.0000 0.70651  0.03433  0.10060  Biso   1.000  C
  H441     1.0000 0.71730  0.04030  0.08190  Biso   1.000  H
  C649     1.0000 0.70291  0.00937  0.11652  Biso   1.000  C
  H442     1.0000 0.71130  0.99860  0.10850  Biso   1.000  H
  C650     1.0000 0.68676  0.00048  0.14449  Biso   1.000  C
  C651     1.0000 0.67420  0.01655  0.15654  Biso   1.000  C
  H443     1.0000 0.66340  0.01060  0.17530  Biso   1.000  H
  C652     1.0000 0.67780  0.04152  0.14062  Biso   1.000  C
  H444     1.0000 0.66940  0.05230  0.14870  Biso   1.000  H
  C653     1.0000 0.68288  0.97129  0.15852  Biso   1.000  C
  C654     1.0000 0.69565  0.95430  0.15027  Biso   1.000  C
  H445     1.0000 0.70790  0.95930  0.13260  Biso   1.000  H
  C655     1.0000 0.69013  0.92978  0.16839  Biso   1.000  C
  H446     1.0000 0.69870  0.91840  0.16290  Biso   1.000  H
  C656     1.0000 0.67184  0.92224  0.19477  Biso   1.000  C
  C657     1.0000 0.65907  0.93924  0.20302  Biso   1.000  C
  H447     1.0000 0.64680  0.93420  0.22070  Biso   1.000  H
  C658     1.0000 0.66459  0.96376  0.18490  Biso   1.000  C
  H448     1.0000 0.65600  0.97510  0.19040  Biso   1.000  H
  C659     1.0000 0.77500  0.10491  0.71005  Biso   1.000  C
  C660     1.0000 0.69470  0.14701  0.10860  Biso   1.000  C
  C661     1.0000 0.67110  0.13820  0.12940  Biso   1.000  C
  H449     1.0000 0.65840  0.11810  0.13340  Biso   1.000  H
  C662     1.0000 0.66640  0.15930  0.14430  Biso   1.000  C
  H450     1.0000 0.65060  0.15340  0.15820  Biso   1.000  H
  C663     1.0000 0.68540  0.18930  0.13840  Biso   1.000  C
  C664     1.0000 0.70900  0.19810  0.11750  Biso   1.000  C
  H451     1.0000 0.72170  0.21820  0.11350  Biso   1.000  H
  C665     1.0000 0.71360  0.17690  0.10260  Biso   1.000  C
  H452     1.0000 0.72940  0.18290  0.08870  Biso   1.000  H
  C666     1.0000 0.68324  0.21182  0.15497  Biso   1.000  C
  C667     1.0000 0.65886  0.20313  0.17465  Biso   1.000  C
  H453     1.0000 0.64570  0.18310  0.17810  Biso   1.000  H
  C668     1.0000 0.65419  0.22443  0.18914  Biso   1.000  C
  H454     1.0000 0.63790  0.21860  0.20230  Biso   1.000  H
  C669     1.0000 0.67388  0.25441  0.18395  Biso   1.000  C
  C670     1.0000 0.69825  0.26309  0.16427  Biso   1.000  C
  H455     1.0000 0.71140  0.28310  0.16080  Biso   1.000  H
  C671     1.0000 0.70293  0.24179  0.14979  Biso   1.000  C
  H456     1.0000 0.71920  0.24760  0.13660  Biso   1.000  H
  C672     1.0000 0.66960  0.27580  0.20440  Biso   1.000  C
  C673     1.0000 0.74846  0.20768  0.74744  Biso   1.000  C
  H457     1.0000 0.73810  0.18710  0.74560  Biso   1.000  H
  C674     1.0000 0.73267  0.22256  0.74739  Biso   1.000  C
  H458     1.0000 0.71210  0.21170  0.74560  Biso   1.000  H
  C675     1.0000 0.69951  0.25701  0.74500  Biso   1.000  C
  H459     1.0000 0.68940  0.23700  0.73990  Biso   1.000  H
  C676     1.0000 0.68409  0.27196  0.74730  Biso   1.000  C
  H460     1.0000 0.66350  0.26150  0.74690  Biso   1.000  H
  C677     1.0000 0.89300  0.09930  0.72281  Biso   1.000  C
  H461     1.0000 0.88460  0.10130  0.70430  Biso   1.000  H
  C678     1.0000 0.90910  0.08430  0.72279  Biso   1.000  C
  H462     1.0000 0.91240  0.07750  0.70380  Biso   1.000  H
  C679     1.0000 0.96656  0.07606  0.75790  Biso   1.000  C
  H463     1.0000 0.97680  0.09630  0.76200  Biso   1.000  H
  C680     1.0000 0.98100  0.06040  0.75980  Biso   1.000  C
  H464     1.0000 0.00020  0.06920  0.76790  Biso   1.000  H
  O131     1.0000 0.69470  0.30190  0.20460  Biso   1.000  O
  O132     1.0000 0.64710  0.27186  0.20980  Biso   1.000  O
  C681     1.0000 0.69430  0.14950  0.14060  Biso   1.000  C
  H465     1.0000 0.69730  0.13700  0.15390  Biso   1.000  H
  C682     1.0000 0.68910  0.17130  0.15240  Biso   1.000  C
  H466     1.0000 0.68850  0.17220  0.17430  Biso   1.000  H
  C683     1.0000 0.69230  0.19150  0.10870  Biso   1.000  C
  H467     1.0000 0.69810  0.20930  0.09830  Biso   1.000  H
  C684     1.0000 0.69140  0.16800  0.09160  Biso   1.000  C
  H468     1.0000 0.68870  0.16650  0.06990  Biso   1.000  H
  Zn37     1.0000 0.33333  0.66667  0.70985  Biso   1.000  Zn
  Zn38     1.0000 0.33333  0.66667  0.79015  Biso   1.000  Zn
  Zn39     1.0000 0.66667  0.33333  0.29015  Biso   1.000  Zn
  Zn40     1.0000 0.66667  0.33333  0.20985  Biso   1.000  Zn
  O133     1.0000 0.33333  0.66667  0.75000  Biso   1.000  O
  O134     1.0000 0.66667  0.33333  0.25000  Biso   1.000  O
  O135     1.0000 0.16660  0.33319  0.25000  Biso   1.000  O
  C685     1.0000 0.20515  0.41030  0.25000  Biso   1.000  C
  C686     1.0000 0.22170  0.44340  0.25000  Biso   1.000  C
  C687     1.0000 0.25335  0.50670  0.25000  Biso   1.000  C
  C688     1.0000 0.27095  0.54190  0.25000  Biso   1.000  C
  C689     1.0000 0.30155  0.60310  0.25000  Biso   1.000  C
  C690     1.0000 0.31829  0.63658  0.25000  Biso   1.000  C
  C691     1.0000 0.12695  0.25390  0.25000  Biso   1.000  C
  C692     1.0000 0.11020  0.22040  0.25000  Biso   1.000  C
  C693     1.0000 0.07975  0.15950  0.25000  Biso   1.000  C
  C694     1.0000 0.06250  0.12500  0.25000  Biso   1.000  C
  C695     1.0000 0.03265  0.06530  0.25000  Biso   1.000  C
  C696     1.0000 0.01497  0.02993  0.25000  Biso   1.000  C
  O136     1.0000 0.66681  0.83341  0.25000  Biso   1.000  O
  C697     1.0000 0.58970  0.79485  0.25000  Biso   1.000  C
  C698     1.0000 0.55660  0.77830  0.25000  Biso   1.000  C
  C699     1.0000 0.49330  0.74665  0.25000  Biso   1.000  C
  C700     1.0000 0.45810  0.72905  0.25000  Biso   1.000  C
  C701     1.0000 0.39690  0.69845  0.25000  Biso   1.000  C
  C702     1.0000 0.36342  0.68171  0.25000  Biso   1.000  C
  C703     1.0000 0.74610  0.87305  0.25000  Biso   1.000  C
  C704     1.0000 0.77960  0.88980  0.25000  Biso   1.000  C
  C705     1.0000 0.84050  0.92025  0.25000  Biso   1.000  C
  C706     1.0000 0.87500  0.93750  0.25000  Biso   1.000  C
  C707     1.0000 0.93470  0.96735  0.25000  Biso   1.000  C
  C708     1.0000 0.97007  0.98504  0.25000  Biso   1.000  C
  O137     1.0000 0.16660  0.83341  0.25000  Biso   1.000  O
  C709     1.0000 0.20515  0.79485  0.25000  Biso   1.000  C
  C710     1.0000 0.22170  0.77830  0.25000  Biso   1.000  C
  C711     1.0000 0.25335  0.74665  0.25000  Biso   1.000  C
  C712     1.0000 0.27095  0.72905  0.25000  Biso   1.000  C
  C713     1.0000 0.30155  0.69845  0.25000  Biso   1.000  C
  C714     1.0000 0.31829  0.68171  0.25000  Biso   1.000  C
  C715     1.0000 0.12695  0.87305  0.25000  Biso   1.000  C
  C716     1.0000 0.11020  0.88980  0.25000  Biso   1.000  C
  C717     1.0000 0.07975  0.92025  0.25000  Biso   1.000  C
  C718     1.0000 0.06250  0.93750  0.25000  Biso   1.000  C
  C719     1.0000 0.03265  0.96735  0.25000  Biso   1.000  C
  C720     1.0000 0.01497  0.98504  0.25000  Biso   1.000  C
  O138     1.0000 0.83340  0.66681  0.75000  Biso   1.000  O
  C721     1.0000 0.79485  0.58970  0.75000  Biso   1.000  C
  C722     1.0000 0.77830  0.55660  0.75000  Biso   1.000  C
  C723     1.0000 0.74665  0.49330  0.75000  Biso   1.000  C
  C724     1.0000 0.72905  0.45810  0.75000  Biso   1.000  C
  C725     1.0000 0.69845  0.39690  0.75000  Biso   1.000  C
  C726     1.0000 0.68171  0.36342  0.75000  Biso   1.000  C
  C727     1.0000 0.87305  0.74610  0.75000  Biso   1.000  C
  C728     1.0000 0.88980  0.77960  0.75000  Biso   1.000  C
  C729     1.0000 0.92025  0.84050  0.75000  Biso   1.000  C
  C730     1.0000 0.93750  0.87500  0.75000  Biso   1.000  C
  C731     1.0000 0.96735  0.93470  0.75000  Biso   1.000  C
  C732     1.0000 0.98503  0.97007  0.75000  Biso   1.000  C
  O139     1.0000 0.33319  0.16660  0.75000  Biso   1.000  O
  C733     1.0000 0.41030  0.20515  0.75000  Biso   1.000  C
  C734     1.0000 0.44340  0.22170  0.75000  Biso   1.000  C
  C735     1.0000 0.50670  0.25335  0.75000  Biso   1.000  C
  C736     1.0000 0.54190  0.27095  0.75000  Biso   1.000  C
  C737     1.0000 0.60310  0.30155  0.75000  Biso   1.000  C
  C738     1.0000 0.63658  0.31829  0.75000  Biso   1.000  C
  C739     1.0000 0.25390  0.12695  0.75000  Biso   1.000  C
  C740     1.0000 0.22040  0.11020  0.75000  Biso   1.000  C
  C741     1.0000 0.15950  0.07975  0.75000  Biso   1.000  C
  C742     1.0000 0.12500  0.06250  0.75000  Biso   1.000  C
  C743     1.0000 0.06530  0.03265  0.75000  Biso   1.000  C
  C744     1.0000 0.02993  0.01497  0.75000  Biso   1.000  C
  O140     1.0000 0.83340  0.16660  0.75000  Biso   1.000  O
  C745     1.0000 0.79485  0.20515  0.75000  Biso   1.000  C
  C746     1.0000 0.77830  0.22170  0.75000  Biso   1.000  C
  C747     1.0000 0.74665  0.25335  0.75000  Biso   1.000  C
  C748     1.0000 0.72905  0.27095  0.75000  Biso   1.000  C
  C749     1.0000 0.69845  0.30155  0.75000  Biso   1.000  C
  C750     1.0000 0.68171  0.31829  0.75000  Biso   1.000  C
  C751     1.0000 0.87305  0.12695  0.75000  Biso   1.000  C
  C752     1.0000 0.88980  0.11020  0.75000  Biso   1.000  C
  C753     1.0000 0.92025  0.07975  0.75000  Biso   1.000  C
  C754     1.0000 0.93750  0.06250  0.75000  Biso   1.000  C
  C755     1.0000 0.96735  0.03265  0.75000  Biso   1.000  C
  C756     1.0000 0.98503  0.01496  0.75000  Biso   1.000  C
  C757     1.0000 0.34837  0.65163  0.25000  Biso   1.000  C
  H469     1.0000 0.35870  0.64130  0.25000  Biso   1.000  H
  C758     1.0000 0.34837  0.69674  0.25000  Biso   1.000  C
  H470     1.0000 0.35870  0.71740  0.25000  Biso   1.000  H
  C759     1.0000 0.30326  0.65163  0.25000  Biso   1.000  C
  H471     1.0000 0.28260  0.64130  0.25000  Biso   1.000  H
  C760     1.0000 0.65163  0.34837  0.75000  Biso   1.000  C
  H472     1.0000 0.64130  0.35870  0.75000  Biso   1.000  H
  C761     1.0000 0.65163  0.30326  0.75000  Biso   1.000  C
  H473     1.0000 0.64130  0.28260  0.75000  Biso   1.000  H
  C762     1.0000 0.69674  0.34837  0.75000  Biso   1.000  C
  H474     1.0000 0.71740  0.35870  0.75000  Biso   1.000  H
  C763     1.0000 0.03016  0.01508  0.25000  Biso   1.000  C
  H475     1.0000 0.05080  0.02540  0.25000  Biso   1.000  H
  C764     1.0000 0.98492  0.01508  0.25000  Biso   1.000  C
  H476     1.0000 0.97460  0.02540  0.25000  Biso   1.000  H
  C765     1.0000 0.98492  0.96984  0.25000  Biso   1.000  C
  H477     1.0000 0.97460  0.94920  0.25000  Biso   1.000  H
  C766     1.0000 0.96984  0.98492  0.75000  Biso   1.000  C
  H478     1.0000 0.94920  0.97460  0.75000  Biso   1.000  H
  C767     1.0000 0.01508  0.98492  0.75000  Biso   1.000  C
  H479     1.0000 0.02540  0.97460  0.75000  Biso   1.000  H
  C768     1.0000 0.01508  0.03016  0.75000  Biso   1.000  C
  H480     1.0000 0.02540  0.05080  0.75000  Biso   1.000  H
