data_image0
_cell_length_a       45.846
_cell_length_b       45.846
_cell_length_c       37.11
_cell_angle_alpha    90
_cell_angle_beta     90
_cell_angle_gamma    120

_symmetry_space_group_name_H-M    "P 1"
_symmetry_int_tables_number       1

loop_
  _symmetry_equiv_pos_as_xyz
  'x, y, z'

loop_
  _atom_site_label
  _atom_site_occupancy
  _atom_site_fract_x
  _atom_site_fract_y
  _atom_site_fract_z
  _atom_site_thermal_displace_type
  _atom_site_B_iso_or_equiv
  _atom_site_type_symbol
  Zn1      1.0000 0.15630  0.30302  0.21060  Biso   1.000  Zn
  Zn2      1.0000 0.14869  0.36437  0.24100  Biso   1.000  Zn
  Zn3      1.0000 0.29500  0.63270  0.72850  Biso   1.000  Zn
  O1       1.0000 0.14150  0.36250  0.19640  Biso   1.000  O
  O2       1.0000 0.14830  0.32160  0.17410  Biso   1.000  O
  O3       1.0000 0.89000  0.19590  0.79950  Biso   1.000  O
  O4       1.0000 0.88850  0.23520  0.76650  Biso   1.000  O
  O5       1.0000 0.26930  0.60640  0.76290  Biso   1.000  O
  O6       1.0000 0.29920  0.62940  0.81190  Biso   1.000  O
  O7       1.0000 0.12760  0.26560  0.22110  Biso   1.000  O
  O8       1.0000 0.17760  0.40210  0.25640  Biso   1.000  O
  C1       1.0000 0.10830  0.38900  0.95730  Biso   1.000  C
  C2       1.0000 0.08030  0.36560  0.93720  Biso   1.000  C
  C3       1.0000 0.07590  0.37250  0.90130  Biso   1.000  C
  C4       1.0000 0.09990  0.40310  0.88550  Biso   1.000  C
  C5       1.0000 0.12800  0.42670  0.90530  Biso   1.000  C
  C6       1.0000 0.13210  0.41950  0.94120  Biso   1.000  C
  C7       1.0000 0.11300  0.38150  0.99420  Biso   1.000  C
  C8       1.0000 0.11730  0.37530  0.02490  Biso   1.000  C
  C9       1.0000 0.12280  0.36750  0.06140  Biso   1.000  C
  C10      1.0000 0.12210  0.38640  0.09080  Biso   1.000  C
  C11      1.0000 0.12790  0.37910  0.12600  Biso   1.000  C
  C12      1.0000 0.13480  0.35280  0.13240  Biso   1.000  C
  C13      1.0000 0.13530  0.33380  0.10270  Biso   1.000  C
  C14      1.0000 0.12940  0.34120  0.06760  Biso   1.000  C
  C15      1.0000 0.14190  0.34530  0.16970  Biso   1.000  C
  C16      1.0000 0.04690  0.34800  0.88070  Biso   1.000  C
  C17      1.0000 0.02260  0.32720  0.86380  Biso   1.000  C
  C18      1.0000 0.99330  0.30200  0.84410  Biso   1.000  C
  C19      1.0000 0.97970  0.26770  0.85210  Biso   1.000  C
  C20      1.0000 0.95080  0.24330  0.83400  Biso   1.000  C
  C21      1.0000 0.93490  0.25260  0.80750  Biso   1.000  C
  C22      1.0000 0.94910  0.28710  0.79930  Biso   1.000  C
  C23      1.0000 0.97800  0.31150  0.81740  Biso   1.000  C
  C24      1.0000 0.90290  0.22650  0.78980  Biso   1.000  C
  C25      1.0000 0.15310  0.45810  0.88870  Biso   1.000  C
  C26      1.0000 0.17410  0.48420  0.87470  Biso   1.000  C
  C27      1.0000 0.19930  0.51500  0.85740  Biso   1.000  C
  C28      1.0000 0.19510  0.52180  0.81900  Biso   1.000  C
  C29      1.0000 0.21870  0.55060  0.80000  Biso   1.000  C
  C30      1.0000 0.24870  0.57410  0.82190  Biso   1.000  C
  C31      1.0000 0.25150  0.57220  0.85500  Biso   1.000  C
  C32      1.0000 0.22770  0.54320  0.87300  Biso   1.000  C
  C33      1.0000 0.27480  0.60400  0.80140  Biso   1.000  C
  C34      1.0000 0.10240  0.19340  0.28240  Biso   1.000  C
  C35      1.0000 0.08440  0.15850  0.27940  Biso   1.000  C
  C36      1.0000 0.21120  0.47400  0.25690  Biso   1.000  C
  C37      1.0000 0.22890  0.50940  0.25690  Biso   1.000  C
  H1       1.0000 0.06400  0.34500  0.94800  Biso   1.000  H
  H2       1.0000 0.09700  0.40800  0.86100  Biso   1.000  H
  H3       1.0000 0.15100  0.43600  0.95500  Biso   1.000  H
  H4       1.0000 0.11700  0.40400  0.08700  Biso   1.000  H
  H5       1.0000 0.12700  0.39200  0.14600  Biso   1.000  H
  H6       1.0000 0.14000  0.31600  0.10600  Biso   1.000  H
  H7       1.0000 0.13000  0.32800  0.04800  Biso   1.000  H
  H8       1.0000 0.99000  0.26100  0.87000  Biso   1.000  H
  H9       1.0000 0.94200  0.22000  0.84000  Biso   1.000  H
  H10      1.0000 0.93900  0.29400  0.78100  Biso   1.000  H
  H11      1.0000 0.98700  0.33500  0.81200  Biso   1.000  H
  H12      1.0000 0.17100  0.50200  0.80400  Biso   1.000  H
  H13      1.0000 0.21700  0.55700  0.77100  Biso   1.000  H
  H14      1.0000 0.27300  0.59400  0.87000  Biso   1.000  H
  H15      1.0000 0.23300  0.54300  0.90300  Biso   1.000  H
  H16      1.0000 0.11200  0.20400  0.30500  Biso   1.000  H
  H17      1.0000 0.08200  0.14600  0.30100  Biso   1.000  H
  H18      1.0000 0.18700  0.46200  0.26200  Biso   1.000  H
  H19      1.0000 0.21700  0.52100  0.26200  Biso   1.000  H
  O9       1.0000 0.26980  0.62480  0.79610  Biso   1.000  O
  O10      1.0000 0.30410  0.60430  0.79900  Biso   1.000  O
  C38      1.0000 0.19260  0.53800  0.85000  Biso   1.000  C
  C39      1.0000 0.21770  0.56750  0.83300  Biso   1.000  C
  C40      1.0000 0.25640  0.54610  0.83700  Biso   1.000  C
  C41      1.0000 0.23120  0.51660  0.85300  Biso   1.000  C
  H20      1.0000 0.16700  0.53500  0.85600  Biso   1.000  H
  H21      1.0000 0.21000  0.58700  0.82900  Biso   1.000  H
  H22      1.0000 0.28300  0.55000  0.83400  Biso   1.000  H
  H23      1.0000 0.23500  0.49500  0.86300  Biso   1.000  H
  Zn4      1.0000 0.69698  0.85328  0.21060  Biso   1.000  Zn
  Zn5      1.0000 0.63563  0.78432  0.24100  Biso   1.000  Zn
  Zn6      1.0000 0.36730  0.66230  0.72850  Biso   1.000  Zn
  O11      1.0000 0.63750  0.77900  0.19640  Biso   1.000  O
  O12      1.0000 0.67840  0.82670  0.17410  Biso   1.000  O
  O13      1.0000 0.80410  0.69410  0.79950  Biso   1.000  O
  O14      1.0000 0.76480  0.65330  0.76650  Biso   1.000  O
  O15      1.0000 0.39360  0.66290  0.76290  Biso   1.000  O
  O16      1.0000 0.37060  0.66980  0.81190  Biso   1.000  O
  O17      1.0000 0.73440  0.86200  0.22110  Biso   1.000  O
  O18      1.0000 0.59790  0.77550  0.25640  Biso   1.000  O
  C42      1.0000 0.61100  0.71930  0.95730  Biso   1.000  C
  C43      1.0000 0.63440  0.71470  0.93720  Biso   1.000  C
  C44      1.0000 0.62750  0.70340  0.90130  Biso   1.000  C
  C45      1.0000 0.59690  0.69680  0.88550  Biso   1.000  C
  C46      1.0000 0.57330  0.70130  0.90530  Biso   1.000  C
  C47      1.0000 0.58050  0.71260  0.94120  Biso   1.000  C
  C48      1.0000 0.61850  0.73150  0.99420  Biso   1.000  C
  C49      1.0000 0.62470  0.74200  0.02490  Biso   1.000  C
  C50      1.0000 0.63250  0.75530  0.06140  Biso   1.000  C
  C51      1.0000 0.61360  0.73570  0.09080  Biso   1.000  C
  C52      1.0000 0.62090  0.74880  0.12600  Biso   1.000  C
  C53      1.0000 0.64720  0.78200  0.13240  Biso   1.000  C
  C54      1.0000 0.66620  0.80150  0.10270  Biso   1.000  C
  C55      1.0000 0.65880  0.78820  0.06760  Biso   1.000  C
  C56      1.0000 0.65470  0.79660  0.16970  Biso   1.000  C
  C57      1.0000 0.65200  0.69890  0.88070  Biso   1.000  C
  C58      1.0000 0.67280  0.69540  0.86380  Biso   1.000  C
  C59      1.0000 0.69800  0.69130  0.84410  Biso   1.000  C
  C60      1.0000 0.73230  0.71200  0.85210  Biso   1.000  C
  C61      1.0000 0.75670  0.70750  0.83400  Biso   1.000  C
  C62      1.0000 0.74740  0.68230  0.80750  Biso   1.000  C
  C63      1.0000 0.71290  0.66200  0.79930  Biso   1.000  C
  C64      1.0000 0.68850  0.66650  0.81740  Biso   1.000  C
  C65      1.0000 0.77350  0.67640  0.78980  Biso   1.000  C
  C66      1.0000 0.54190  0.69500  0.88870  Biso   1.000  C
  C67      1.0000 0.51580  0.68990  0.87470  Biso   1.000  C
  C68      1.0000 0.48500  0.68430  0.85740  Biso   1.000  C
  C69      1.0000 0.47820  0.67330  0.81900  Biso   1.000  C
  C70      1.0000 0.44940  0.66810  0.80000  Biso   1.000  C
  C71      1.0000 0.42590  0.67460  0.82190  Biso   1.000  C
  C72      1.0000 0.42780  0.67930  0.85500  Biso   1.000  C
  C73      1.0000 0.45680  0.68450  0.87300  Biso   1.000  C
  C74      1.0000 0.39600  0.67080  0.80140  Biso   1.000  C
  C75      1.0000 0.80660  0.90900  0.28240  Biso   1.000  C
  C76      1.0000 0.84150  0.92590  0.27940  Biso   1.000  C
  C77      1.0000 0.52600  0.73720  0.25690  Biso   1.000  C
  C78      1.0000 0.49060  0.71950  0.25690  Biso   1.000  C
  H24      1.0000 0.65500  0.71900  0.94800  Biso   1.000  H
  H25      1.0000 0.59200  0.68900  0.86100  Biso   1.000  H
  H26      1.0000 0.56400  0.71500  0.95500  Biso   1.000  H
  H27      1.0000 0.59600  0.71300  0.08700  Biso   1.000  H
  H28      1.0000 0.60800  0.73500  0.14600  Biso   1.000  H
  H29      1.0000 0.68400  0.82400  0.10600  Biso   1.000  H
  H30      1.0000 0.67200  0.80200  0.04800  Biso   1.000  H
  H31      1.0000 0.73900  0.72900  0.87000  Biso   1.000  H
  H32      1.0000 0.78000  0.72200  0.84000  Biso   1.000  H
  H33      1.0000 0.70600  0.64500  0.78100  Biso   1.000  H
  H34      1.0000 0.66500  0.65200  0.81200  Biso   1.000  H
  H35      1.0000 0.49800  0.66900  0.80400  Biso   1.000  H
  H36      1.0000 0.44300  0.66000  0.77100  Biso   1.000  H
  H37      1.0000 0.40600  0.67900  0.87000  Biso   1.000  H
  H38      1.0000 0.45700  0.69000  0.90300  Biso   1.000  H
  H39      1.0000 0.79600  0.90800  0.30500  Biso   1.000  H
  H40      1.0000 0.85400  0.93600  0.30100  Biso   1.000  H
  H41      1.0000 0.53800  0.72500  0.26200  Biso   1.000  H
  H42      1.0000 0.47900  0.69600  0.26200  Biso   1.000  H
  O19      1.0000 0.37520  0.64500  0.79610  Biso   1.000  O
  O20      1.0000 0.39570  0.69980  0.79900  Biso   1.000  O
  C79      1.0000 0.46200  0.65460  0.85000  Biso   1.000  C
  C80      1.0000 0.43250  0.65020  0.83300  Biso   1.000  C
  C81      1.0000 0.45390  0.71030  0.83700  Biso   1.000  C
  C82      1.0000 0.48340  0.71460  0.85300  Biso   1.000  C
  H43      1.0000 0.46500  0.63200  0.85600  Biso   1.000  H
  H44      1.0000 0.41300  0.62300  0.82900  Biso   1.000  H
  H45      1.0000 0.45000  0.73300  0.83400  Biso   1.000  H
  H46      1.0000 0.50500  0.74000  0.86300  Biso   1.000  H
  Zn7      1.0000 0.14672  0.84370  0.21060  Biso   1.000  Zn
  Zn8      1.0000 0.21568  0.85131  0.24100  Biso   1.000  Zn
  Zn9      1.0000 0.33770  0.70500  0.72850  Biso   1.000  Zn
  O21      1.0000 0.22100  0.85850  0.19640  Biso   1.000  O
  O22      1.0000 0.17330  0.85170  0.17410  Biso   1.000  O
  O23      1.0000 0.30590  0.11000  0.79950  Biso   1.000  O
  O24      1.0000 0.34670  0.11150  0.76650  Biso   1.000  O
  O25      1.0000 0.33710  0.73070  0.76290  Biso   1.000  O
  O26      1.0000 0.33020  0.70080  0.81190  Biso   1.000  O
  O27      1.0000 0.13800  0.87240  0.22110  Biso   1.000  O
  O28      1.0000 0.22450  0.82240  0.25640  Biso   1.000  O
  C83      1.0000 0.28070  0.89170  0.95730  Biso   1.000  C
  C84      1.0000 0.28530  0.91970  0.93720  Biso   1.000  C
  C85      1.0000 0.29660  0.92410  0.90130  Biso   1.000  C
  C86      1.0000 0.30320  0.90010  0.88550  Biso   1.000  C
  C87      1.0000 0.29870  0.87200  0.90530  Biso   1.000  C
  C88      1.0000 0.28740  0.86790  0.94120  Biso   1.000  C
  C89      1.0000 0.26850  0.88700  0.99420  Biso   1.000  C
  C90      1.0000 0.25800  0.88270  0.02490  Biso   1.000  C
  C91      1.0000 0.24470  0.87720  0.06140  Biso   1.000  C
  C92      1.0000 0.26430  0.87790  0.09080  Biso   1.000  C
  C93      1.0000 0.25120  0.87210  0.12600  Biso   1.000  C
  C94      1.0000 0.21800  0.86520  0.13240  Biso   1.000  C
  C95      1.0000 0.19850  0.86470  0.10270  Biso   1.000  C
  C96      1.0000 0.21180  0.87060  0.06760  Biso   1.000  C
  C97      1.0000 0.20340  0.85810  0.16970  Biso   1.000  C
  C98      1.0000 0.30110  0.95310  0.88070  Biso   1.000  C
  C99      1.0000 0.30460  0.97740  0.86380  Biso   1.000  C
  C100     1.0000 0.30870  0.00670  0.84410  Biso   1.000  C
  C101     1.0000 0.28800  0.02030  0.85210  Biso   1.000  C
  C102     1.0000 0.29250  0.04920  0.83400  Biso   1.000  C
  C103     1.0000 0.31770  0.06510  0.80750  Biso   1.000  C
  C104     1.0000 0.33800  0.05090  0.79930  Biso   1.000  C
  C105     1.0000 0.33350  0.02200  0.81740  Biso   1.000  C
  C106     1.0000 0.32360  0.09710  0.78980  Biso   1.000  C
  C107     1.0000 0.30500  0.84690  0.88870  Biso   1.000  C
  C108     1.0000 0.31010  0.82590  0.87470  Biso   1.000  C
  C109     1.0000 0.31570  0.80070  0.85740  Biso   1.000  C
  C110     1.0000 0.32670  0.80490  0.81900  Biso   1.000  C
  C111     1.0000 0.33190  0.78130  0.80000  Biso   1.000  C
  C112     1.0000 0.32540  0.75130  0.82190  Biso   1.000  C
  C113     1.0000 0.32070  0.74850  0.85500  Biso   1.000  C
  C114     1.0000 0.31550  0.77230  0.87300  Biso   1.000  C
  C115     1.0000 0.32920  0.72520  0.80140  Biso   1.000  C
  C116     1.0000 0.09100  0.89760  0.28240  Biso   1.000  C
  C117     1.0000 0.07410  0.91560  0.27940  Biso   1.000  C
  C118     1.0000 0.26280  0.78880  0.25690  Biso   1.000  C
  C119     1.0000 0.28050  0.77110  0.25690  Biso   1.000  C
  H47      1.0000 0.28100  0.93600  0.94800  Biso   1.000  H
  H48      1.0000 0.31100  0.90300  0.86100  Biso   1.000  H
  H49      1.0000 0.28500  0.84900  0.95500  Biso   1.000  H
  H50      1.0000 0.28700  0.88300  0.08700  Biso   1.000  H
  H51      1.0000 0.26500  0.87300  0.14600  Biso   1.000  H
  H52      1.0000 0.17600  0.86000  0.10600  Biso   1.000  H
  H53      1.0000 0.19800  0.87000  0.04800  Biso   1.000  H
  H54      1.0000 0.27100  0.01000  0.87000  Biso   1.000  H
  H55      1.0000 0.27800  0.05800  0.84000  Biso   1.000  H
  H56      1.0000 0.35500  0.06100  0.78100  Biso   1.000  H
  H57      1.0000 0.34800  0.01300  0.81200  Biso   1.000  H
  H58      1.0000 0.33100  0.82900  0.80400  Biso   1.000  H
  H59      1.0000 0.34000  0.78300  0.77100  Biso   1.000  H
  H60      1.0000 0.32100  0.72700  0.87000  Biso   1.000  H
  H61      1.0000 0.31000  0.76700  0.90300  Biso   1.000  H
  H62      1.0000 0.09200  0.88800  0.30500  Biso   1.000  H
  H63      1.0000 0.06400  0.91800  0.30100  Biso   1.000  H
  H64      1.0000 0.27500  0.81300  0.26200  Biso   1.000  H
  H65      1.0000 0.30400  0.78300  0.26200  Biso   1.000  H
  O29      1.0000 0.35500  0.73020  0.79610  Biso   1.000  O
  O30      1.0000 0.30020  0.69590  0.79900  Biso   1.000  O
  C120     1.0000 0.34540  0.80740  0.85000  Biso   1.000  C
  C121     1.0000 0.34980  0.78230  0.83300  Biso   1.000  C
  C122     1.0000 0.28970  0.74360  0.83700  Biso   1.000  C
  C123     1.0000 0.28540  0.76880  0.85300  Biso   1.000  C
  H66      1.0000 0.36800  0.83300  0.85600  Biso   1.000  H
  H67      1.0000 0.37700  0.79000  0.82900  Biso   1.000  H
  H68      1.0000 0.26700  0.71700  0.83400  Biso   1.000  H
  H69      1.0000 0.26000  0.76500  0.86300  Biso   1.000  H
  Zn10     1.0000 0.69698  0.84370  0.28940  Biso   1.000  Zn
  Zn11     1.0000 0.63563  0.85131  0.25900  Biso   1.000  Zn
  Zn12     1.0000 0.36730  0.70500  0.77150  Biso   1.000  Zn
  O31      1.0000 0.63750  0.85850  0.30360  Biso   1.000  O
  O32      1.0000 0.67840  0.85170  0.32590  Biso   1.000  O
  O33      1.0000 0.80410  0.11000  0.70050  Biso   1.000  O
  O34      1.0000 0.76480  0.11150  0.73350  Biso   1.000  O
  O35      1.0000 0.39360  0.73070  0.73710  Biso   1.000  O
  O36      1.0000 0.37060  0.70080  0.68810  Biso   1.000  O
  O37      1.0000 0.73440  0.87240  0.27890  Biso   1.000  O
  O38      1.0000 0.59790  0.82240  0.24360  Biso   1.000  O
  C124     1.0000 0.61100  0.89170  0.54270  Biso   1.000  C
  C125     1.0000 0.63440  0.91970  0.56280  Biso   1.000  C
  C126     1.0000 0.62750  0.92410  0.59870  Biso   1.000  C
  C127     1.0000 0.59690  0.90010  0.61450  Biso   1.000  C
  C128     1.0000 0.57330  0.87200  0.59470  Biso   1.000  C
  C129     1.0000 0.58050  0.86790  0.55880  Biso   1.000  C
  C130     1.0000 0.61850  0.88700  0.50580  Biso   1.000  C
  C131     1.0000 0.62470  0.88270  0.47510  Biso   1.000  C
  C132     1.0000 0.63250  0.87720  0.43860  Biso   1.000  C
  C133     1.0000 0.61360  0.87790  0.40920  Biso   1.000  C
  C134     1.0000 0.62090  0.87210  0.37400  Biso   1.000  C
  C135     1.0000 0.64720  0.86520  0.36760  Biso   1.000  C
  C136     1.0000 0.66620  0.86470  0.39730  Biso   1.000  C
  C137     1.0000 0.65880  0.87060  0.43240  Biso   1.000  C
  C138     1.0000 0.65470  0.85810  0.33030  Biso   1.000  C
  C139     1.0000 0.65200  0.95310  0.61930  Biso   1.000  C
  C140     1.0000 0.67280  0.97740  0.63620  Biso   1.000  C
  C141     1.0000 0.69800  0.00670  0.65590  Biso   1.000  C
  C142     1.0000 0.73230  0.02030  0.64790  Biso   1.000  C
  C143     1.0000 0.75670  0.04920  0.66600  Biso   1.000  C
  C144     1.0000 0.74740  0.06510  0.69250  Biso   1.000  C
  C145     1.0000 0.71290  0.05090  0.70070  Biso   1.000  C
  C146     1.0000 0.68850  0.02200  0.68260  Biso   1.000  C
  C147     1.0000 0.77350  0.09710  0.71020  Biso   1.000  C
  C148     1.0000 0.54190  0.84690  0.61130  Biso   1.000  C
  C149     1.0000 0.51580  0.82590  0.62530  Biso   1.000  C
  C150     1.0000 0.48500  0.80070  0.64260  Biso   1.000  C
  C151     1.0000 0.47820  0.80490  0.68100  Biso   1.000  C
  C152     1.0000 0.44940  0.78130  0.70000  Biso   1.000  C
  C153     1.0000 0.42590  0.75130  0.67810  Biso   1.000  C
  C154     1.0000 0.42780  0.74850  0.64500  Biso   1.000  C
  C155     1.0000 0.45680  0.77230  0.62700  Biso   1.000  C
  C156     1.0000 0.39600  0.72520  0.69860  Biso   1.000  C
  C157     1.0000 0.80660  0.89760  0.21760  Biso   1.000  C
  C158     1.0000 0.84150  0.91560  0.22060  Biso   1.000  C
  C159     1.0000 0.52600  0.78880  0.24310  Biso   1.000  C
  C160     1.0000 0.49060  0.77110  0.24310  Biso   1.000  C
  H70      1.0000 0.65500  0.93600  0.55200  Biso   1.000  H
  H71      1.0000 0.59200  0.90300  0.63900  Biso   1.000  H
  H72      1.0000 0.56400  0.84900  0.54500  Biso   1.000  H
  H73      1.0000 0.59600  0.88300  0.41300  Biso   1.000  H
  H74      1.0000 0.60800  0.87300  0.35400  Biso   1.000  H
  H75      1.0000 0.68400  0.86000  0.39400  Biso   1.000  H
  H76      1.0000 0.67200  0.87000  0.45200  Biso   1.000  H
  H77      1.0000 0.73900  0.01000  0.63000  Biso   1.000  H
  H78      1.0000 0.78000  0.05800  0.66000  Biso   1.000  H
  H79      1.0000 0.70600  0.06100  0.71900  Biso   1.000  H
  H80      1.0000 0.66500  0.01300  0.68800  Biso   1.000  H
  H81      1.0000 0.49800  0.82900  0.69600  Biso   1.000  H
  H82      1.0000 0.44300  0.78300  0.72900  Biso   1.000  H
  H83      1.0000 0.40600  0.72700  0.63000  Biso   1.000  H
  H84      1.0000 0.45700  0.76700  0.59700  Biso   1.000  H
  H85      1.0000 0.79600  0.88800  0.19500  Biso   1.000  H
  H86      1.0000 0.85400  0.91800  0.19900  Biso   1.000  H
  H87      1.0000 0.53800  0.81300  0.23800  Biso   1.000  H
  H88      1.0000 0.47900  0.78300  0.23800  Biso   1.000  H
  O39      1.0000 0.37520  0.73020  0.70390  Biso   1.000  O
  O40      1.0000 0.39570  0.69590  0.70100  Biso   1.000  O
  C161     1.0000 0.46200  0.80740  0.65000  Biso   1.000  C
  C162     1.0000 0.43250  0.78230  0.66700  Biso   1.000  C
  C163     1.0000 0.45390  0.74360  0.66300  Biso   1.000  C
  C164     1.0000 0.48340  0.76880  0.64700  Biso   1.000  C
  H89      1.0000 0.46500  0.83300  0.64400  Biso   1.000  H
  H90      1.0000 0.41300  0.79000  0.67100  Biso   1.000  H
  H91      1.0000 0.45000  0.71700  0.66600  Biso   1.000  H
  H92      1.0000 0.50500  0.76500  0.63700  Biso   1.000  H
  Zn13     1.0000 0.14672  0.30302  0.28940  Biso   1.000  Zn
  Zn14     1.0000 0.21568  0.36437  0.25900  Biso   1.000  Zn
  Zn15     1.0000 0.33770  0.63270  0.77150  Biso   1.000  Zn
  O41      1.0000 0.22100  0.36250  0.30360  Biso   1.000  O
  O42      1.0000 0.17330  0.32160  0.32590  Biso   1.000  O
  O43      1.0000 0.30590  0.19590  0.70050  Biso   1.000  O
  O44      1.0000 0.34670  0.23520  0.73350  Biso   1.000  O
  O45      1.0000 0.33710  0.60640  0.73710  Biso   1.000  O
  O46      1.0000 0.33020  0.62940  0.68810  Biso   1.000  O
  O47      1.0000 0.13800  0.26560  0.27890  Biso   1.000  O
  O48      1.0000 0.22450  0.40210  0.24360  Biso   1.000  O
  C165     1.0000 0.28070  0.38900  0.54270  Biso   1.000  C
  C166     1.0000 0.28530  0.36560  0.56280  Biso   1.000  C
  C167     1.0000 0.29660  0.37250  0.59870  Biso   1.000  C
  C168     1.0000 0.30320  0.40310  0.61450  Biso   1.000  C
  C169     1.0000 0.29870  0.42670  0.59470  Biso   1.000  C
  C170     1.0000 0.28740  0.41950  0.55880  Biso   1.000  C
  C171     1.0000 0.26850  0.38150  0.50580  Biso   1.000  C
  C172     1.0000 0.25800  0.37530  0.47510  Biso   1.000  C
  C173     1.0000 0.24470  0.36750  0.43860  Biso   1.000  C
  C174     1.0000 0.26430  0.38640  0.40920  Biso   1.000  C
  C175     1.0000 0.25120  0.37910  0.37400  Biso   1.000  C
  C176     1.0000 0.21800  0.35280  0.36760  Biso   1.000  C
  C177     1.0000 0.19850  0.33380  0.39730  Biso   1.000  C
  C178     1.0000 0.21180  0.34120  0.43240  Biso   1.000  C
  C179     1.0000 0.20340  0.34530  0.33030  Biso   1.000  C
  C180     1.0000 0.30110  0.34800  0.61930  Biso   1.000  C
  C181     1.0000 0.30460  0.32720  0.63620  Biso   1.000  C
  C182     1.0000 0.30870  0.30200  0.65590  Biso   1.000  C
  C183     1.0000 0.28800  0.26770  0.64790  Biso   1.000  C
  C184     1.0000 0.29250  0.24330  0.66600  Biso   1.000  C
  C185     1.0000 0.31770  0.25260  0.69250  Biso   1.000  C
  C186     1.0000 0.33800  0.28710  0.70070  Biso   1.000  C
  C187     1.0000 0.33350  0.31150  0.68260  Biso   1.000  C
  C188     1.0000 0.32360  0.22650  0.71020  Biso   1.000  C
  C189     1.0000 0.30500  0.45810  0.61130  Biso   1.000  C
  C190     1.0000 0.31010  0.48420  0.62530  Biso   1.000  C
  C191     1.0000 0.31570  0.51500  0.64260  Biso   1.000  C
  C192     1.0000 0.32670  0.52180  0.68100  Biso   1.000  C
  C193     1.0000 0.33190  0.55060  0.70000  Biso   1.000  C
  C194     1.0000 0.32540  0.57410  0.67810  Biso   1.000  C
  C195     1.0000 0.32070  0.57220  0.64500  Biso   1.000  C
  C196     1.0000 0.31550  0.54320  0.62700  Biso   1.000  C
  C197     1.0000 0.32920  0.60400  0.69860  Biso   1.000  C
  C198     1.0000 0.09100  0.19340  0.21760  Biso   1.000  C
  C199     1.0000 0.07410  0.15850  0.22060  Biso   1.000  C
  C200     1.0000 0.26280  0.47400  0.24310  Biso   1.000  C
  C201     1.0000 0.28050  0.50940  0.24310  Biso   1.000  C
  H93      1.0000 0.28100  0.34500  0.55200  Biso   1.000  H
  H94      1.0000 0.31100  0.40800  0.63900  Biso   1.000  H
  H95      1.0000 0.28500  0.43600  0.54500  Biso   1.000  H
  H96      1.0000 0.28700  0.40400  0.41300  Biso   1.000  H
  H97      1.0000 0.26500  0.39200  0.35400  Biso   1.000  H
  H98      1.0000 0.17600  0.31600  0.39400  Biso   1.000  H
  H99      1.0000 0.19800  0.32800  0.45200  Biso   1.000  H
  H100     1.0000 0.27100  0.26100  0.63000  Biso   1.000  H
  H101     1.0000 0.27800  0.22000  0.66000  Biso   1.000  H
  H102     1.0000 0.35500  0.29400  0.71900  Biso   1.000  H
  H103     1.0000 0.34800  0.33500  0.68800  Biso   1.000  H
  H104     1.0000 0.33100  0.50200  0.69600  Biso   1.000  H
  H105     1.0000 0.34000  0.55700  0.72900  Biso   1.000  H
  H106     1.0000 0.32100  0.59400  0.63000  Biso   1.000  H
  H107     1.0000 0.31000  0.54300  0.59700  Biso   1.000  H
  H108     1.0000 0.09200  0.20400  0.19500  Biso   1.000  H
  H109     1.0000 0.06400  0.14600  0.19900  Biso   1.000  H
  H110     1.0000 0.27500  0.46200  0.23800  Biso   1.000  H
  H111     1.0000 0.30400  0.52100  0.23800  Biso   1.000  H
  O49      1.0000 0.35500  0.62480  0.70390  Biso   1.000  O
  O50      1.0000 0.30020  0.60430  0.70100  Biso   1.000  O
  C202     1.0000 0.34540  0.53800  0.65000  Biso   1.000  C
  C203     1.0000 0.34980  0.56750  0.66700  Biso   1.000  C
  C204     1.0000 0.28970  0.54610  0.66300  Biso   1.000  C
  C205     1.0000 0.28540  0.51660  0.64700  Biso   1.000  C
  H112     1.0000 0.36800  0.53500  0.64400  Biso   1.000  H
  H113     1.0000 0.37700  0.58700  0.67100  Biso   1.000  H
  H114     1.0000 0.26700  0.55000  0.66600  Biso   1.000  H
  H115     1.0000 0.26000  0.49500  0.63700  Biso   1.000  H
  Zn16     1.0000 0.15630  0.85328  0.28940  Biso   1.000  Zn
  Zn17     1.0000 0.14869  0.78432  0.25900  Biso   1.000  Zn
  Zn18     1.0000 0.29500  0.66230  0.77150  Biso   1.000  Zn
  O51      1.0000 0.14150  0.77900  0.30360  Biso   1.000  O
  O52      1.0000 0.14830  0.82670  0.32590  Biso   1.000  O
  O53      1.0000 0.89000  0.69410  0.70050  Biso   1.000  O
  O54      1.0000 0.88850  0.65330  0.73350  Biso   1.000  O
  O55      1.0000 0.26930  0.66290  0.73710  Biso   1.000  O
  O56      1.0000 0.29920  0.66980  0.68810  Biso   1.000  O
  O57      1.0000 0.12760  0.86200  0.27890  Biso   1.000  O
  O58      1.0000 0.17760  0.77550  0.24360  Biso   1.000  O
  C206     1.0000 0.10830  0.71930  0.54270  Biso   1.000  C
  C207     1.0000 0.08030  0.71470  0.56280  Biso   1.000  C
  C208     1.0000 0.07590  0.70340  0.59870  Biso   1.000  C
  C209     1.0000 0.09990  0.69680  0.61450  Biso   1.000  C
  C210     1.0000 0.12800  0.70130  0.59470  Biso   1.000  C
  C211     1.0000 0.13210  0.71260  0.55880  Biso   1.000  C
  C212     1.0000 0.11300  0.73150  0.50580  Biso   1.000  C
  C213     1.0000 0.11730  0.74200  0.47510  Biso   1.000  C
  C214     1.0000 0.12280  0.75530  0.43860  Biso   1.000  C
  C215     1.0000 0.12210  0.73570  0.40920  Biso   1.000  C
  C216     1.0000 0.12790  0.74880  0.37400  Biso   1.000  C
  C217     1.0000 0.13480  0.78200  0.36760  Biso   1.000  C
  C218     1.0000 0.13530  0.80150  0.39730  Biso   1.000  C
  C219     1.0000 0.12940  0.78820  0.43240  Biso   1.000  C
  C220     1.0000 0.14190  0.79660  0.33030  Biso   1.000  C
  C221     1.0000 0.04690  0.69890  0.61930  Biso   1.000  C
  C222     1.0000 0.02260  0.69540  0.63620  Biso   1.000  C
  C223     1.0000 0.99330  0.69130  0.65590  Biso   1.000  C
  C224     1.0000 0.97970  0.71200  0.64790  Biso   1.000  C
  C225     1.0000 0.95080  0.70750  0.66600  Biso   1.000  C
  C226     1.0000 0.93490  0.68230  0.69250  Biso   1.000  C
  C227     1.0000 0.94910  0.66200  0.70070  Biso   1.000  C
  C228     1.0000 0.97800  0.66650  0.68260  Biso   1.000  C
  C229     1.0000 0.90290  0.67640  0.71020  Biso   1.000  C
  C230     1.0000 0.15310  0.69500  0.61130  Biso   1.000  C
  C231     1.0000 0.17410  0.68990  0.62530  Biso   1.000  C
  C232     1.0000 0.19930  0.68430  0.64260  Biso   1.000  C
  C233     1.0000 0.19510  0.67330  0.68100  Biso   1.000  C
  C234     1.0000 0.21870  0.66810  0.70000  Biso   1.000  C
  C235     1.0000 0.24870  0.67460  0.67810  Biso   1.000  C
  C236     1.0000 0.25150  0.67930  0.64500  Biso   1.000  C
  C237     1.0000 0.22770  0.68450  0.62700  Biso   1.000  C
  C238     1.0000 0.27480  0.67080  0.69860  Biso   1.000  C
  C239     1.0000 0.10240  0.90900  0.21760  Biso   1.000  C
  C240     1.0000 0.08440  0.92590  0.22060  Biso   1.000  C
  C241     1.0000 0.21120  0.73720  0.24310  Biso   1.000  C
  C242     1.0000 0.22890  0.71950  0.24310  Biso   1.000  C
  H116     1.0000 0.06400  0.71900  0.55200  Biso   1.000  H
  H117     1.0000 0.09700  0.68900  0.63900  Biso   1.000  H
  H118     1.0000 0.15100  0.71500  0.54500  Biso   1.000  H
  H119     1.0000 0.11700  0.71300  0.41300  Biso   1.000  H
  H120     1.0000 0.12700  0.73500  0.35400  Biso   1.000  H
  H121     1.0000 0.14000  0.82400  0.39400  Biso   1.000  H
  H122     1.0000 0.13000  0.80200  0.45200  Biso   1.000  H
  H123     1.0000 0.99000  0.72900  0.63000  Biso   1.000  H
  H124     1.0000 0.94200  0.72200  0.66000  Biso   1.000  H
  H125     1.0000 0.93900  0.64500  0.71900  Biso   1.000  H
  H126     1.0000 0.98700  0.65200  0.68800  Biso   1.000  H
  H127     1.0000 0.17100  0.66900  0.69600  Biso   1.000  H
  H128     1.0000 0.21700  0.66000  0.72900  Biso   1.000  H
  H129     1.0000 0.27300  0.67900  0.63000  Biso   1.000  H
  H130     1.0000 0.23300  0.69000  0.59700  Biso   1.000  H
  H131     1.0000 0.11200  0.90800  0.19500  Biso   1.000  H
  H132     1.0000 0.08200  0.93600  0.19900  Biso   1.000  H
  H133     1.0000 0.18700  0.72500  0.23800  Biso   1.000  H
  H134     1.0000 0.21700  0.69600  0.23800  Biso   1.000  H
  O59      1.0000 0.26980  0.64500  0.70390  Biso   1.000  O
  O60      1.0000 0.30410  0.69980  0.70100  Biso   1.000  O
  C243     1.0000 0.19260  0.65460  0.65000  Biso   1.000  C
  C244     1.0000 0.21770  0.65020  0.66700  Biso   1.000  C
  C245     1.0000 0.25640  0.71030  0.66300  Biso   1.000  C
  C246     1.0000 0.23120  0.71460  0.64700  Biso   1.000  C
  H135     1.0000 0.16700  0.63200  0.64400  Biso   1.000  H
  H136     1.0000 0.21000  0.62300  0.67100  Biso   1.000  H
  H137     1.0000 0.28300  0.73300  0.66600  Biso   1.000  H
  H138     1.0000 0.23500  0.74000  0.63700  Biso   1.000  H
  Zn19     1.0000 0.84370  0.69698  0.78940  Biso   1.000  Zn
  Zn20     1.0000 0.85131  0.63563  0.75900  Biso   1.000  Zn
  Zn21     1.0000 0.70500  0.36730  0.27150  Biso   1.000  Zn
  O61      1.0000 0.85850  0.63750  0.80360  Biso   1.000  O
  O62      1.0000 0.85170  0.67840  0.82590  Biso   1.000  O
  O63      1.0000 0.11000  0.80410  0.20050  Biso   1.000  O
  O64      1.0000 0.11150  0.76480  0.23350  Biso   1.000  O
  O65      1.0000 0.73070  0.39360  0.23710  Biso   1.000  O
  O66      1.0000 0.70080  0.37060  0.18810  Biso   1.000  O
  O67      1.0000 0.87240  0.73440  0.77890  Biso   1.000  O
  O68      1.0000 0.82240  0.59790  0.74360  Biso   1.000  O
  C247     1.0000 0.89170  0.61100  0.04270  Biso   1.000  C
  C248     1.0000 0.91970  0.63440  0.06280  Biso   1.000  C
  C249     1.0000 0.92410  0.62750  0.09870  Biso   1.000  C
  C250     1.0000 0.90010  0.59690  0.11450  Biso   1.000  C
  C251     1.0000 0.87200  0.57330  0.09470  Biso   1.000  C
  C252     1.0000 0.86790  0.58050  0.05880  Biso   1.000  C
  C253     1.0000 0.88700  0.61850  0.00580  Biso   1.000  C
  C254     1.0000 0.88270  0.62470  0.97510  Biso   1.000  C
  C255     1.0000 0.87720  0.63250  0.93860  Biso   1.000  C
  C256     1.0000 0.87790  0.61360  0.90920  Biso   1.000  C
  C257     1.0000 0.87210  0.62090  0.87400  Biso   1.000  C
  C258     1.0000 0.86520  0.64720  0.86760  Biso   1.000  C
  C259     1.0000 0.86470  0.66620  0.89730  Biso   1.000  C
  C260     1.0000 0.87060  0.65880  0.93240  Biso   1.000  C
  C261     1.0000 0.85810  0.65470  0.83030  Biso   1.000  C
  C262     1.0000 0.95310  0.65200  0.11930  Biso   1.000  C
  C263     1.0000 0.97740  0.67280  0.13620  Biso   1.000  C
  C264     1.0000 0.00670  0.69800  0.15590  Biso   1.000  C
  C265     1.0000 0.02030  0.73230  0.14790  Biso   1.000  C
  C266     1.0000 0.04920  0.75670  0.16600  Biso   1.000  C
  C267     1.0000 0.06510  0.74740  0.19250  Biso   1.000  C
  C268     1.0000 0.05090  0.71290  0.20070  Biso   1.000  C
  C269     1.0000 0.02200  0.68850  0.18260  Biso   1.000  C
  C270     1.0000 0.09710  0.77350  0.21020  Biso   1.000  C
  C271     1.0000 0.84690  0.54190  0.11130  Biso   1.000  C
  C272     1.0000 0.82590  0.51580  0.12530  Biso   1.000  C
  C273     1.0000 0.80070  0.48500  0.14260  Biso   1.000  C
  C274     1.0000 0.80490  0.47820  0.18100  Biso   1.000  C
  C275     1.0000 0.78130  0.44940  0.20000  Biso   1.000  C
  C276     1.0000 0.75130  0.42590  0.17810  Biso   1.000  C
  C277     1.0000 0.74850  0.42780  0.14500  Biso   1.000  C
  C278     1.0000 0.77230  0.45680  0.12700  Biso   1.000  C
  C279     1.0000 0.72520  0.39600  0.19860  Biso   1.000  C
  C280     1.0000 0.89760  0.80660  0.71760  Biso   1.000  C
  C281     1.0000 0.91560  0.84150  0.72060  Biso   1.000  C
  C282     1.0000 0.78880  0.52600  0.74310  Biso   1.000  C
  C283     1.0000 0.77110  0.49060  0.74310  Biso   1.000  C
  H139     1.0000 0.93600  0.65500  0.05200  Biso   1.000  H
  H140     1.0000 0.90300  0.59200  0.13900  Biso   1.000  H
  H141     1.0000 0.84900  0.56400  0.04500  Biso   1.000  H
  H142     1.0000 0.88300  0.59600  0.91300  Biso   1.000  H
  H143     1.0000 0.87300  0.60800  0.85400  Biso   1.000  H
  H144     1.0000 0.86000  0.68400  0.89400  Biso   1.000  H
  H145     1.0000 0.87000  0.67200  0.95200  Biso   1.000  H
  H146     1.0000 0.01000  0.73900  0.13000  Biso   1.000  H
  H147     1.0000 0.05800  0.78000  0.16000  Biso   1.000  H
  H148     1.0000 0.06100  0.70600  0.21900  Biso   1.000  H
  H149     1.0000 0.01300  0.66500  0.18800  Biso   1.000  H
  H150     1.0000 0.82900  0.49800  0.19600  Biso   1.000  H
  H151     1.0000 0.78300  0.44300  0.22900  Biso   1.000  H
  H152     1.0000 0.72700  0.40600  0.13000  Biso   1.000  H
  H153     1.0000 0.76700  0.45700  0.09700  Biso   1.000  H
  H154     1.0000 0.88800  0.79600  0.69500  Biso   1.000  H
  H155     1.0000 0.91800  0.85400  0.69900  Biso   1.000  H
  H156     1.0000 0.81300  0.53800  0.73800  Biso   1.000  H
  H157     1.0000 0.78300  0.47900  0.73800  Biso   1.000  H
  O69      1.0000 0.73020  0.37520  0.20390  Biso   1.000  O
  O70      1.0000 0.69590  0.39570  0.20100  Biso   1.000  O
  C284     1.0000 0.80740  0.46200  0.15000  Biso   1.000  C
  C285     1.0000 0.78230  0.43250  0.16700  Biso   1.000  C
  C286     1.0000 0.74360  0.45390  0.16300  Biso   1.000  C
  C287     1.0000 0.76880  0.48340  0.14700  Biso   1.000  C
  H158     1.0000 0.83300  0.46500  0.14400  Biso   1.000  H
  H159     1.0000 0.79000  0.41300  0.17100  Biso   1.000  H
  H160     1.0000 0.71700  0.45000  0.16600  Biso   1.000  H
  H161     1.0000 0.76500  0.50500  0.13700  Biso   1.000  H
  Zn22     1.0000 0.30302  0.14672  0.78940  Biso   1.000  Zn
  Zn23     1.0000 0.36437  0.21568  0.75900  Biso   1.000  Zn
  Zn24     1.0000 0.63270  0.33770  0.27150  Biso   1.000  Zn
  O71      1.0000 0.36250  0.22100  0.80360  Biso   1.000  O
  O72      1.0000 0.32160  0.17330  0.82590  Biso   1.000  O
  O73      1.0000 0.19590  0.30590  0.20050  Biso   1.000  O
  O74      1.0000 0.23520  0.34670  0.23350  Biso   1.000  O
  O75      1.0000 0.60640  0.33710  0.23710  Biso   1.000  O
  O76      1.0000 0.62940  0.33020  0.18810  Biso   1.000  O
  O77      1.0000 0.26560  0.13800  0.77890  Biso   1.000  O
  O78      1.0000 0.40210  0.22450  0.74360  Biso   1.000  O
  C288     1.0000 0.38900  0.28070  0.04270  Biso   1.000  C
  C289     1.0000 0.36560  0.28530  0.06280  Biso   1.000  C
  C290     1.0000 0.37250  0.29660  0.09870  Biso   1.000  C
  C291     1.0000 0.40310  0.30320  0.11450  Biso   1.000  C
  C292     1.0000 0.42670  0.29870  0.09470  Biso   1.000  C
  C293     1.0000 0.41950  0.28740  0.05880  Biso   1.000  C
  C294     1.0000 0.38150  0.26850  0.00580  Biso   1.000  C
  C295     1.0000 0.37530  0.25800  0.97510  Biso   1.000  C
  C296     1.0000 0.36750  0.24470  0.93860  Biso   1.000  C
  C297     1.0000 0.38640  0.26430  0.90920  Biso   1.000  C
  C298     1.0000 0.37910  0.25120  0.87400  Biso   1.000  C
  C299     1.0000 0.35280  0.21800  0.86760  Biso   1.000  C
  C300     1.0000 0.33380  0.19850  0.89730  Biso   1.000  C
  C301     1.0000 0.34120  0.21180  0.93240  Biso   1.000  C
  C302     1.0000 0.34530  0.20340  0.83030  Biso   1.000  C
  C303     1.0000 0.34800  0.30110  0.11930  Biso   1.000  C
  C304     1.0000 0.32720  0.30460  0.13620  Biso   1.000  C
  C305     1.0000 0.30200  0.30870  0.15590  Biso   1.000  C
  C306     1.0000 0.26770  0.28800  0.14790  Biso   1.000  C
  C307     1.0000 0.24330  0.29250  0.16600  Biso   1.000  C
  C308     1.0000 0.25260  0.31770  0.19250  Biso   1.000  C
  C309     1.0000 0.28710  0.33800  0.20070  Biso   1.000  C
  C310     1.0000 0.31150  0.33350  0.18260  Biso   1.000  C
  C311     1.0000 0.22650  0.32360  0.21020  Biso   1.000  C
  C312     1.0000 0.45810  0.30500  0.11130  Biso   1.000  C
  C313     1.0000 0.48420  0.31010  0.12530  Biso   1.000  C
  C314     1.0000 0.51500  0.31570  0.14260  Biso   1.000  C
  C315     1.0000 0.52180  0.32670  0.18100  Biso   1.000  C
  C316     1.0000 0.55060  0.33190  0.20000  Biso   1.000  C
  C317     1.0000 0.57410  0.32540  0.17810  Biso   1.000  C
  C318     1.0000 0.57220  0.32070  0.14500  Biso   1.000  C
  C319     1.0000 0.54320  0.31550  0.12700  Biso   1.000  C
  C320     1.0000 0.60400  0.32920  0.19860  Biso   1.000  C
  C321     1.0000 0.19340  0.09100  0.71760  Biso   1.000  C
  C322     1.0000 0.15850  0.07410  0.72060  Biso   1.000  C
  C323     1.0000 0.47400  0.26280  0.74310  Biso   1.000  C
  C324     1.0000 0.50940  0.28050  0.74310  Biso   1.000  C
  H162     1.0000 0.34500  0.28100  0.05200  Biso   1.000  H
  H163     1.0000 0.40800  0.31100  0.13900  Biso   1.000  H
  H164     1.0000 0.43600  0.28500  0.04500  Biso   1.000  H
  H165     1.0000 0.40400  0.28700  0.91300  Biso   1.000  H
  H166     1.0000 0.39200  0.26500  0.85400  Biso   1.000  H
  H167     1.0000 0.31600  0.17600  0.89400  Biso   1.000  H
  H168     1.0000 0.32800  0.19800  0.95200  Biso   1.000  H
  H169     1.0000 0.26100  0.27100  0.13000  Biso   1.000  H
  H170     1.0000 0.22000  0.27800  0.16000  Biso   1.000  H
  H171     1.0000 0.29400  0.35500  0.21900  Biso   1.000  H
  H172     1.0000 0.33500  0.34800  0.18800  Biso   1.000  H
  H173     1.0000 0.50200  0.33100  0.19600  Biso   1.000  H
  H174     1.0000 0.55700  0.34000  0.22900  Biso   1.000  H
  H175     1.0000 0.59400  0.32100  0.13000  Biso   1.000  H
  H176     1.0000 0.54300  0.31000  0.09700  Biso   1.000  H
  H177     1.0000 0.20400  0.09200  0.69500  Biso   1.000  H
  H178     1.0000 0.14600  0.06400  0.69900  Biso   1.000  H
  H179     1.0000 0.46200  0.27500  0.73800  Biso   1.000  H
  H180     1.0000 0.52100  0.30400  0.73800  Biso   1.000  H
  O79      1.0000 0.62480  0.35500  0.20390  Biso   1.000  O
  O80      1.0000 0.60430  0.30020  0.20100  Biso   1.000  O
  C325     1.0000 0.53800  0.34540  0.15000  Biso   1.000  C
  C326     1.0000 0.56750  0.34980  0.16700  Biso   1.000  C
  C327     1.0000 0.54610  0.28970  0.16300  Biso   1.000  C
  C328     1.0000 0.51660  0.28540  0.14700  Biso   1.000  C
  H181     1.0000 0.53500  0.36800  0.14400  Biso   1.000  H
  H182     1.0000 0.58700  0.37700  0.17100  Biso   1.000  H
  H183     1.0000 0.55000  0.26700  0.16600  Biso   1.000  H
  H184     1.0000 0.49500  0.26000  0.13700  Biso   1.000  H
  Zn25     1.0000 0.85328  0.15630  0.78940  Biso   1.000  Zn
  Zn26     1.0000 0.78432  0.14869  0.75900  Biso   1.000  Zn
  Zn27     1.0000 0.66230  0.29500  0.27150  Biso   1.000  Zn
  O81      1.0000 0.77900  0.14150  0.80360  Biso   1.000  O
  O82      1.0000 0.82670  0.14830  0.82590  Biso   1.000  O
  O83      1.0000 0.69410  0.89000  0.20050  Biso   1.000  O
  O84      1.0000 0.65330  0.88850  0.23350  Biso   1.000  O
  O85      1.0000 0.66290  0.26930  0.23710  Biso   1.000  O
  O86      1.0000 0.66980  0.29920  0.18810  Biso   1.000  O
  O87      1.0000 0.86200  0.12760  0.77890  Biso   1.000  O
  O88      1.0000 0.77550  0.17760  0.74360  Biso   1.000  O
  C329     1.0000 0.71930  0.10830  0.04270  Biso   1.000  C
  C330     1.0000 0.71470  0.08030  0.06280  Biso   1.000  C
  C331     1.0000 0.70340  0.07590  0.09870  Biso   1.000  C
  C332     1.0000 0.69680  0.09990  0.11450  Biso   1.000  C
  C333     1.0000 0.70130  0.12800  0.09470  Biso   1.000  C
  C334     1.0000 0.71260  0.13210  0.05880  Biso   1.000  C
  C335     1.0000 0.73150  0.11300  0.00580  Biso   1.000  C
  C336     1.0000 0.74200  0.11730  0.97510  Biso   1.000  C
  C337     1.0000 0.75530  0.12280  0.93860  Biso   1.000  C
  C338     1.0000 0.73570  0.12210  0.90920  Biso   1.000  C
  C339     1.0000 0.74880  0.12790  0.87400  Biso   1.000  C
  C340     1.0000 0.78200  0.13480  0.86760  Biso   1.000  C
  C341     1.0000 0.80150  0.13530  0.89730  Biso   1.000  C
  C342     1.0000 0.78820  0.12940  0.93240  Biso   1.000  C
  C343     1.0000 0.79660  0.14190  0.83030  Biso   1.000  C
  C344     1.0000 0.69890  0.04690  0.11930  Biso   1.000  C
  C345     1.0000 0.69540  0.02260  0.13620  Biso   1.000  C
  C346     1.0000 0.69130  0.99330  0.15590  Biso   1.000  C
  C347     1.0000 0.71200  0.97970  0.14790  Biso   1.000  C
  C348     1.0000 0.70750  0.95080  0.16600  Biso   1.000  C
  C349     1.0000 0.68230  0.93490  0.19250  Biso   1.000  C
  C350     1.0000 0.66200  0.94910  0.20070  Biso   1.000  C
  C351     1.0000 0.66650  0.97800  0.18260  Biso   1.000  C
  C352     1.0000 0.67640  0.90290  0.21020  Biso   1.000  C
  C353     1.0000 0.69500  0.15310  0.11130  Biso   1.000  C
  C354     1.0000 0.68990  0.17410  0.12530  Biso   1.000  C
  C355     1.0000 0.68430  0.19930  0.14260  Biso   1.000  C
  C356     1.0000 0.67330  0.19510  0.18100  Biso   1.000  C
  C357     1.0000 0.66810  0.21870  0.20000  Biso   1.000  C
  C358     1.0000 0.67460  0.24870  0.17810  Biso   1.000  C
  C359     1.0000 0.67930  0.25150  0.14500  Biso   1.000  C
  C360     1.0000 0.68450  0.22770  0.12700  Biso   1.000  C
  C361     1.0000 0.67080  0.27480  0.19860  Biso   1.000  C
  C362     1.0000 0.90900  0.10240  0.71760  Biso   1.000  C
  C363     1.0000 0.92590  0.08440  0.72060  Biso   1.000  C
  C364     1.0000 0.73720  0.21120  0.74310  Biso   1.000  C
  C365     1.0000 0.71950  0.22890  0.74310  Biso   1.000  C
  H185     1.0000 0.71900  0.06400  0.05200  Biso   1.000  H
  H186     1.0000 0.68900  0.09700  0.13900  Biso   1.000  H
  H187     1.0000 0.71500  0.15100  0.04500  Biso   1.000  H
  H188     1.0000 0.71300  0.11700  0.91300  Biso   1.000  H
  H189     1.0000 0.73500  0.12700  0.85400  Biso   1.000  H
  H190     1.0000 0.82400  0.14000  0.89400  Biso   1.000  H
  H191     1.0000 0.80200  0.13000  0.95200  Biso   1.000  H
  H192     1.0000 0.72900  0.99000  0.13000  Biso   1.000  H
  H193     1.0000 0.72200  0.94200  0.16000  Biso   1.000  H
  H194     1.0000 0.64500  0.93900  0.21900  Biso   1.000  H
  H195     1.0000 0.65200  0.98700  0.18800  Biso   1.000  H
  H196     1.0000 0.66900  0.17100  0.19600  Biso   1.000  H
  H197     1.0000 0.66000  0.21700  0.22900  Biso   1.000  H
  H198     1.0000 0.67900  0.27300  0.13000  Biso   1.000  H
  H199     1.0000 0.69000  0.23300  0.09700  Biso   1.000  H
  H200     1.0000 0.90800  0.11200  0.69500  Biso   1.000  H
  H201     1.0000 0.93600  0.08200  0.69900  Biso   1.000  H
  H202     1.0000 0.72500  0.18700  0.73800  Biso   1.000  H
  H203     1.0000 0.69600  0.21700  0.73800  Biso   1.000  H
  O89      1.0000 0.64500  0.26980  0.20390  Biso   1.000  O
  O90      1.0000 0.69980  0.30410  0.20100  Biso   1.000  O
  C366     1.0000 0.65460  0.19260  0.15000  Biso   1.000  C
  C367     1.0000 0.65020  0.21770  0.16700  Biso   1.000  C
  C368     1.0000 0.71030  0.25640  0.16300  Biso   1.000  C
  C369     1.0000 0.71460  0.23120  0.14700  Biso   1.000  C
  H204     1.0000 0.63200  0.16700  0.14400  Biso   1.000  H
  H205     1.0000 0.62300  0.21000  0.17100  Biso   1.000  H
  H206     1.0000 0.73300  0.28300  0.16600  Biso   1.000  H
  H207     1.0000 0.74000  0.23500  0.13700  Biso   1.000  H
  Zn28     1.0000 0.30302  0.15630  0.71060  Biso   1.000  Zn
  Zn29     1.0000 0.36437  0.14869  0.74100  Biso   1.000  Zn
  Zn30     1.0000 0.63270  0.29500  0.22850  Biso   1.000  Zn
  O91      1.0000 0.36250  0.14150  0.69640  Biso   1.000  O
  O92      1.0000 0.32160  0.14830  0.67410  Biso   1.000  O
  O93      1.0000 0.19590  0.89000  0.29950  Biso   1.000  O
  O94      1.0000 0.23520  0.88850  0.26650  Biso   1.000  O
  O95      1.0000 0.60640  0.26930  0.26290  Biso   1.000  O
  O96      1.0000 0.62940  0.29920  0.31190  Biso   1.000  O
  O97      1.0000 0.26560  0.12760  0.72110  Biso   1.000  O
  O98      1.0000 0.40210  0.17760  0.75640  Biso   1.000  O
  C370     1.0000 0.38900  0.10830  0.45730  Biso   1.000  C
  C371     1.0000 0.36560  0.08030  0.43720  Biso   1.000  C
  C372     1.0000 0.37250  0.07590  0.40130  Biso   1.000  C
  C373     1.0000 0.40310  0.09990  0.38550  Biso   1.000  C
  C374     1.0000 0.42670  0.12800  0.40530  Biso   1.000  C
  C375     1.0000 0.41950  0.13210  0.44120  Biso   1.000  C
  C376     1.0000 0.38150  0.11300  0.49420  Biso   1.000  C
  C377     1.0000 0.37530  0.11730  0.52490  Biso   1.000  C
  C378     1.0000 0.36750  0.12280  0.56140  Biso   1.000  C
  C379     1.0000 0.38640  0.12210  0.59080  Biso   1.000  C
  C380     1.0000 0.37910  0.12790  0.62600  Biso   1.000  C
  C381     1.0000 0.35280  0.13480  0.63240  Biso   1.000  C
  C382     1.0000 0.33380  0.13530  0.60270  Biso   1.000  C
  C383     1.0000 0.34120  0.12940  0.56760  Biso   1.000  C
  C384     1.0000 0.34530  0.14190  0.66970  Biso   1.000  C
  C385     1.0000 0.34800  0.04690  0.38070  Biso   1.000  C
  C386     1.0000 0.32720  0.02260  0.36380  Biso   1.000  C
  C387     1.0000 0.30200  0.99330  0.34410  Biso   1.000  C
  C388     1.0000 0.26770  0.97970  0.35210  Biso   1.000  C
  C389     1.0000 0.24330  0.95080  0.33400  Biso   1.000  C
  C390     1.0000 0.25260  0.93490  0.30750  Biso   1.000  C
  C391     1.0000 0.28710  0.94910  0.29930  Biso   1.000  C
  C392     1.0000 0.31150  0.97800  0.31740  Biso   1.000  C
  C393     1.0000 0.22650  0.90290  0.28980  Biso   1.000  C
  C394     1.0000 0.45810  0.15310  0.38870  Biso   1.000  C
  C395     1.0000 0.48420  0.17410  0.37470  Biso   1.000  C
  C396     1.0000 0.51500  0.19930  0.35740  Biso   1.000  C
  C397     1.0000 0.52180  0.19510  0.31900  Biso   1.000  C
  C398     1.0000 0.55060  0.21870  0.30000  Biso   1.000  C
  C399     1.0000 0.57410  0.24870  0.32190  Biso   1.000  C
  C400     1.0000 0.57220  0.25150  0.35500  Biso   1.000  C
  C401     1.0000 0.54320  0.22770  0.37300  Biso   1.000  C
  C402     1.0000 0.60400  0.27480  0.30140  Biso   1.000  C
  C403     1.0000 0.19340  0.10240  0.78240  Biso   1.000  C
  C404     1.0000 0.15850  0.08440  0.77940  Biso   1.000  C
  C405     1.0000 0.47400  0.21120  0.75690  Biso   1.000  C
  C406     1.0000 0.50940  0.22890  0.75690  Biso   1.000  C
  H208     1.0000 0.34500  0.06400  0.44800  Biso   1.000  H
  H209     1.0000 0.40800  0.09700  0.36100  Biso   1.000  H
  H210     1.0000 0.43600  0.15100  0.45500  Biso   1.000  H
  H211     1.0000 0.40400  0.11700  0.58700  Biso   1.000  H
  H212     1.0000 0.39200  0.12700  0.64600  Biso   1.000  H
  H213     1.0000 0.31600  0.14000  0.60600  Biso   1.000  H
  H214     1.0000 0.32800  0.13000  0.54800  Biso   1.000  H
  H215     1.0000 0.26100  0.99000  0.37000  Biso   1.000  H
  H216     1.0000 0.22000  0.94200  0.34000  Biso   1.000  H
  H217     1.0000 0.29400  0.93900  0.28100  Biso   1.000  H
  H218     1.0000 0.33500  0.98700  0.31200  Biso   1.000  H
  H219     1.0000 0.50200  0.17100  0.30400  Biso   1.000  H
  H220     1.0000 0.55700  0.21700  0.27100  Biso   1.000  H
  H221     1.0000 0.59400  0.27300  0.37000  Biso   1.000  H
  H222     1.0000 0.54300  0.23300  0.40300  Biso   1.000  H
  H223     1.0000 0.20400  0.11200  0.80500  Biso   1.000  H
  H224     1.0000 0.14600  0.08200  0.80100  Biso   1.000  H
  H225     1.0000 0.46200  0.18700  0.76200  Biso   1.000  H
  H226     1.0000 0.52100  0.21700  0.76200  Biso   1.000  H
  O99      1.0000 0.62480  0.26980  0.29610  Biso   1.000  O
  O100     1.0000 0.60430  0.30410  0.29900  Biso   1.000  O
  C407     1.0000 0.53800  0.19260  0.35000  Biso   1.000  C
  C408     1.0000 0.56750  0.21770  0.33300  Biso   1.000  C
  C409     1.0000 0.54610  0.25640  0.33700  Biso   1.000  C
  C410     1.0000 0.51660  0.23120  0.35300  Biso   1.000  C
  H227     1.0000 0.53500  0.16700  0.35600  Biso   1.000  H
  H228     1.0000 0.58700  0.21000  0.32900  Biso   1.000  H
  H229     1.0000 0.55000  0.28300  0.33400  Biso   1.000  H
  H230     1.0000 0.49500  0.23500  0.36300  Biso   1.000  H
  Zn31     1.0000 0.85328  0.69698  0.71060  Biso   1.000  Zn
  Zn32     1.0000 0.78432  0.63563  0.74100  Biso   1.000  Zn
  Zn33     1.0000 0.66230  0.36730  0.22850  Biso   1.000  Zn
  O101     1.0000 0.77900  0.63750  0.69640  Biso   1.000  O
  O102     1.0000 0.82670  0.67840  0.67410  Biso   1.000  O
  O103     1.0000 0.69410  0.80410  0.29950  Biso   1.000  O
  O104     1.0000 0.65330  0.76480  0.26650  Biso   1.000  O
  O105     1.0000 0.66290  0.39360  0.26290  Biso   1.000  O
  O106     1.0000 0.66980  0.37060  0.31190  Biso   1.000  O
  O107     1.0000 0.86200  0.73440  0.72110  Biso   1.000  O
  O108     1.0000 0.77550  0.59790  0.75640  Biso   1.000  O
  C411     1.0000 0.71930  0.61100  0.45730  Biso   1.000  C
  C412     1.0000 0.71470  0.63440  0.43720  Biso   1.000  C
  C413     1.0000 0.70340  0.62750  0.40130  Biso   1.000  C
  C414     1.0000 0.69680  0.59690  0.38550  Biso   1.000  C
  C415     1.0000 0.70130  0.57330  0.40530  Biso   1.000  C
  C416     1.0000 0.71260  0.58050  0.44120  Biso   1.000  C
  C417     1.0000 0.73150  0.61850  0.49420  Biso   1.000  C
  C418     1.0000 0.74200  0.62470  0.52490  Biso   1.000  C
  C419     1.0000 0.75530  0.63250  0.56140  Biso   1.000  C
  C420     1.0000 0.73570  0.61360  0.59080  Biso   1.000  C
  C421     1.0000 0.74880  0.62090  0.62600  Biso   1.000  C
  C422     1.0000 0.78200  0.64720  0.63240  Biso   1.000  C
  C423     1.0000 0.80150  0.66620  0.60270  Biso   1.000  C
  C424     1.0000 0.78820  0.65880  0.56760  Biso   1.000  C
  C425     1.0000 0.79660  0.65470  0.66970  Biso   1.000  C
  C426     1.0000 0.69890  0.65200  0.38070  Biso   1.000  C
  C427     1.0000 0.69540  0.67280  0.36380  Biso   1.000  C
  C428     1.0000 0.69130  0.69800  0.34410  Biso   1.000  C
  C429     1.0000 0.71200  0.73230  0.35210  Biso   1.000  C
  C430     1.0000 0.70750  0.75670  0.33400  Biso   1.000  C
  C431     1.0000 0.68230  0.74740  0.30750  Biso   1.000  C
  C432     1.0000 0.66200  0.71290  0.29930  Biso   1.000  C
  C433     1.0000 0.66650  0.68850  0.31740  Biso   1.000  C
  C434     1.0000 0.67640  0.77350  0.28980  Biso   1.000  C
  C435     1.0000 0.69500  0.54190  0.38870  Biso   1.000  C
  C436     1.0000 0.68990  0.51580  0.37470  Biso   1.000  C
  C437     1.0000 0.68430  0.48500  0.35740  Biso   1.000  C
  C438     1.0000 0.67330  0.47820  0.31900  Biso   1.000  C
  C439     1.0000 0.66810  0.44940  0.30000  Biso   1.000  C
  C440     1.0000 0.67460  0.42590  0.32190  Biso   1.000  C
  C441     1.0000 0.67930  0.42780  0.35500  Biso   1.000  C
  C442     1.0000 0.68450  0.45680  0.37300  Biso   1.000  C
  C443     1.0000 0.67080  0.39600  0.30140  Biso   1.000  C
  C444     1.0000 0.90900  0.80660  0.78240  Biso   1.000  C
  C445     1.0000 0.92590  0.84150  0.77940  Biso   1.000  C
  C446     1.0000 0.73720  0.52600  0.75690  Biso   1.000  C
  C447     1.0000 0.71950  0.49060  0.75690  Biso   1.000  C
  H231     1.0000 0.71900  0.65500  0.44800  Biso   1.000  H
  H232     1.0000 0.68900  0.59200  0.36100  Biso   1.000  H
  H233     1.0000 0.71500  0.56400  0.45500  Biso   1.000  H
  H234     1.0000 0.71300  0.59600  0.58700  Biso   1.000  H
  H235     1.0000 0.73500  0.60800  0.64600  Biso   1.000  H
  H236     1.0000 0.82400  0.68400  0.60600  Biso   1.000  H
  H237     1.0000 0.80200  0.67200  0.54800  Biso   1.000  H
  H238     1.0000 0.72900  0.73900  0.37000  Biso   1.000  H
  H239     1.0000 0.72200  0.78000  0.34000  Biso   1.000  H
  H240     1.0000 0.64500  0.70600  0.28100  Biso   1.000  H
  H241     1.0000 0.65200  0.66500  0.31200  Biso   1.000  H
  H242     1.0000 0.66900  0.49800  0.30400  Biso   1.000  H
  H243     1.0000 0.66000  0.44300  0.27100  Biso   1.000  H
  H244     1.0000 0.67900  0.40600  0.37000  Biso   1.000  H
  H245     1.0000 0.69000  0.45700  0.40300  Biso   1.000  H
  H246     1.0000 0.90800  0.79600  0.80500  Biso   1.000  H
  H247     1.0000 0.93600  0.85400  0.80100  Biso   1.000  H
  H248     1.0000 0.72500  0.53800  0.76200  Biso   1.000  H
  H249     1.0000 0.69600  0.47900  0.76200  Biso   1.000  H
  O109     1.0000 0.64500  0.37520  0.29610  Biso   1.000  O
  O110     1.0000 0.69980  0.39570  0.29900  Biso   1.000  O
  C448     1.0000 0.65460  0.46200  0.35000  Biso   1.000  C
  C449     1.0000 0.65020  0.43250  0.33300  Biso   1.000  C
  C450     1.0000 0.71030  0.45390  0.33700  Biso   1.000  C
  C451     1.0000 0.71460  0.48340  0.35300  Biso   1.000  C
  H250     1.0000 0.63200  0.46500  0.35600  Biso   1.000  H
  H251     1.0000 0.62300  0.41300  0.32900  Biso   1.000  H
  H252     1.0000 0.73300  0.45000  0.33400  Biso   1.000  H
  H253     1.0000 0.74000  0.50500  0.36300  Biso   1.000  H
  Zn34     1.0000 0.84370  0.14672  0.71060  Biso   1.000  Zn
  Zn35     1.0000 0.85131  0.21568  0.74100  Biso   1.000  Zn
  Zn36     1.0000 0.70500  0.33770  0.22850  Biso   1.000  Zn
  O111     1.0000 0.85850  0.22100  0.69640  Biso   1.000  O
  O112     1.0000 0.85170  0.17330  0.67410  Biso   1.000  O
  O113     1.0000 0.11000  0.30590  0.29950  Biso   1.000  O
  O114     1.0000 0.11150  0.34670  0.26650  Biso   1.000  O
  O115     1.0000 0.73070  0.33710  0.26290  Biso   1.000  O
  O116     1.0000 0.70080  0.33020  0.31190  Biso   1.000  O
  O117     1.0000 0.87240  0.13800  0.72110  Biso   1.000  O
  O118     1.0000 0.82240  0.22450  0.75640  Biso   1.000  O
  C452     1.0000 0.89170  0.28070  0.45730  Biso   1.000  C
  C453     1.0000 0.91970  0.28530  0.43720  Biso   1.000  C
  C454     1.0000 0.92410  0.29660  0.40130  Biso   1.000  C
  C455     1.0000 0.90010  0.30320  0.38550  Biso   1.000  C
  C456     1.0000 0.87200  0.29870  0.40530  Biso   1.000  C
  C457     1.0000 0.86790  0.28740  0.44120  Biso   1.000  C
  C458     1.0000 0.88700  0.26850  0.49420  Biso   1.000  C
  C459     1.0000 0.88270  0.25800  0.52490  Biso   1.000  C
  C460     1.0000 0.87720  0.24470  0.56140  Biso   1.000  C
  C461     1.0000 0.87790  0.26430  0.59080  Biso   1.000  C
  C462     1.0000 0.87210  0.25120  0.62600  Biso   1.000  C
  C463     1.0000 0.86520  0.21800  0.63240  Biso   1.000  C
  C464     1.0000 0.86470  0.19850  0.60270  Biso   1.000  C
  C465     1.0000 0.87060  0.21180  0.56760  Biso   1.000  C
  C466     1.0000 0.85810  0.20340  0.66970  Biso   1.000  C
  C467     1.0000 0.95310  0.30110  0.38070  Biso   1.000  C
  C468     1.0000 0.97740  0.30460  0.36380  Biso   1.000  C
  C469     1.0000 0.00670  0.30870  0.34410  Biso   1.000  C
  C470     1.0000 0.02030  0.28800  0.35210  Biso   1.000  C
  C471     1.0000 0.04920  0.29250  0.33400  Biso   1.000  C
  C472     1.0000 0.06510  0.31770  0.30750  Biso   1.000  C
  C473     1.0000 0.05090  0.33800  0.29930  Biso   1.000  C
  C474     1.0000 0.02200  0.33350  0.31740  Biso   1.000  C
  C475     1.0000 0.09710  0.32360  0.28980  Biso   1.000  C
  C476     1.0000 0.84690  0.30500  0.38870  Biso   1.000  C
  C477     1.0000 0.82590  0.31010  0.37470  Biso   1.000  C
  C478     1.0000 0.80070  0.31570  0.35740  Biso   1.000  C
  C479     1.0000 0.80490  0.32670  0.31900  Biso   1.000  C
  C480     1.0000 0.78130  0.33190  0.30000  Biso   1.000  C
  C481     1.0000 0.75130  0.32540  0.32190  Biso   1.000  C
  C482     1.0000 0.74850  0.32070  0.35500  Biso   1.000  C
  C483     1.0000 0.77230  0.31550  0.37300  Biso   1.000  C
  C484     1.0000 0.72520  0.32920  0.30140  Biso   1.000  C
  C485     1.0000 0.89760  0.09100  0.78240  Biso   1.000  C
  C486     1.0000 0.91560  0.07410  0.77940  Biso   1.000  C
  C487     1.0000 0.78880  0.26280  0.75690  Biso   1.000  C
  C488     1.0000 0.77110  0.28050  0.75690  Biso   1.000  C
  H254     1.0000 0.93600  0.28100  0.44800  Biso   1.000  H
  H255     1.0000 0.90300  0.31100  0.36100  Biso   1.000  H
  H256     1.0000 0.84900  0.28500  0.45500  Biso   1.000  H
  H257     1.0000 0.88300  0.28700  0.58700  Biso   1.000  H
  H258     1.0000 0.87300  0.26500  0.64600  Biso   1.000  H
  H259     1.0000 0.86000  0.17600  0.60600  Biso   1.000  H
  H260     1.0000 0.87000  0.19800  0.54800  Biso   1.000  H
  H261     1.0000 0.01000  0.27100  0.37000  Biso   1.000  H
  H262     1.0000 0.05800  0.27800  0.34000  Biso   1.000  H
  H263     1.0000 0.06100  0.35500  0.28100  Biso   1.000  H
  H264     1.0000 0.01300  0.34800  0.31200  Biso   1.000  H
  H265     1.0000 0.82900  0.33100  0.30400  Biso   1.000  H
  H266     1.0000 0.78300  0.34000  0.27100  Biso   1.000  H
  H267     1.0000 0.72700  0.32100  0.37000  Biso   1.000  H
  H268     1.0000 0.76700  0.31000  0.40300  Biso   1.000  H
  H269     1.0000 0.88800  0.09200  0.80500  Biso   1.000  H
  H270     1.0000 0.91800  0.06400  0.80100  Biso   1.000  H
  H271     1.0000 0.81300  0.27500  0.76200  Biso   1.000  H
  H272     1.0000 0.78300  0.30400  0.76200  Biso   1.000  H
  O119     1.0000 0.73020  0.35500  0.29610  Biso   1.000  O
  O120     1.0000 0.69590  0.30020  0.29900  Biso   1.000  O
  C489     1.0000 0.80740  0.34540  0.35000  Biso   1.000  C
  C490     1.0000 0.78230  0.34980  0.33300  Biso   1.000  C
  C491     1.0000 0.74360  0.28970  0.33700  Biso   1.000  C
  C492     1.0000 0.76880  0.28540  0.35300  Biso   1.000  C
  H273     1.0000 0.83300  0.36800  0.35600  Biso   1.000  H
  H274     1.0000 0.79000  0.37700  0.32900  Biso   1.000  H
  H275     1.0000 0.71700  0.26700  0.33400  Biso   1.000  H
  H276     1.0000 0.76500  0.26000  0.36300  Biso   1.000  H
  O121     1.0000 0.16765  0.33530  0.25000  Biso   1.000  O
  C493     1.0000 0.12485  0.24970  0.25000  Biso   1.000  C
  C494     1.0000 0.10600  0.21200  0.25000  Biso   1.000  C
  C495     1.0000 0.06965  0.13930  0.25000  Biso   1.000  C
  C496     1.0000 0.05140  0.10280  0.25000  Biso   1.000  C
  C497     1.0000 0.03610  0.07220  0.25000  Biso   1.000  C
  C498     1.0000 0.01775  0.03550  0.25000  Biso   1.000  C
  C499     1.0000 0.20900  0.41800  0.25000  Biso   1.000  C
  C500     1.0000 0.22790  0.45580  0.25000  Biso   1.000  C
  C501     1.0000 0.26365  0.52730  0.25000  Biso   1.000  C
  C502     1.0000 0.28195  0.56390  0.25000  Biso   1.000  C
  C503     1.0000 0.29725  0.59450  0.25000  Biso   1.000  C
  C504     1.0000 0.31555  0.63110  0.25000  Biso   1.000  C
  O122     1.0000 0.66470  0.83235  0.25000  Biso   1.000  O
  C505     1.0000 0.75030  0.87515  0.25000  Biso   1.000  C
  C506     1.0000 0.78800  0.89400  0.25000  Biso   1.000  C
  C507     1.0000 0.86070  0.93035  0.25000  Biso   1.000  C
  C508     1.0000 0.89720  0.94860  0.25000  Biso   1.000  C
  C509     1.0000 0.92780  0.96390  0.25000  Biso   1.000  C
  C510     1.0000 0.96450  0.98225  0.25000  Biso   1.000  C
  C511     1.0000 0.58200  0.79100  0.25000  Biso   1.000  C
  C512     1.0000 0.54420  0.77210  0.25000  Biso   1.000  C
  C513     1.0000 0.47270  0.73635  0.25000  Biso   1.000  C
  C514     1.0000 0.43610  0.71805  0.25000  Biso   1.000  C
  C515     1.0000 0.40550  0.70275  0.25000  Biso   1.000  C
  C516     1.0000 0.36890  0.68445  0.25000  Biso   1.000  C
  O123     1.0000 0.16765  0.83235  0.25000  Biso   1.000  O
  C517     1.0000 0.12485  0.87515  0.25000  Biso   1.000  C
  C518     1.0000 0.10600  0.89400  0.25000  Biso   1.000  C
  C519     1.0000 0.06965  0.93035  0.25000  Biso   1.000  C
  C520     1.0000 0.05140  0.94860  0.25000  Biso   1.000  C
  C521     1.0000 0.03610  0.96390  0.25000  Biso   1.000  C
  C522     1.0000 0.01775  0.98225  0.25000  Biso   1.000  C
  C523     1.0000 0.20900  0.79100  0.25000  Biso   1.000  C
  C524     1.0000 0.22790  0.77210  0.25000  Biso   1.000  C
  C525     1.0000 0.26365  0.73635  0.25000  Biso   1.000  C
  C526     1.0000 0.28195  0.71805  0.25000  Biso   1.000  C
  C527     1.0000 0.29725  0.70275  0.25000  Biso   1.000  C
  C528     1.0000 0.31555  0.68445  0.25000  Biso   1.000  C
  O124     1.0000 0.83235  0.66470  0.75000  Biso   1.000  O
  C529     1.0000 0.87515  0.75030  0.75000  Biso   1.000  C
  C530     1.0000 0.89400  0.78800  0.75000  Biso   1.000  C
  C531     1.0000 0.93035  0.86070  0.75000  Biso   1.000  C
  C532     1.0000 0.94860  0.89720  0.75000  Biso   1.000  C
  C533     1.0000 0.96390  0.92780  0.75000  Biso   1.000  C
  C534     1.0000 0.98225  0.96450  0.75000  Biso   1.000  C
  C535     1.0000 0.79100  0.58200  0.75000  Biso   1.000  C
  C536     1.0000 0.77210  0.54420  0.75000  Biso   1.000  C
  C537     1.0000 0.73635  0.47270  0.75000  Biso   1.000  C
  C538     1.0000 0.71805  0.43610  0.75000  Biso   1.000  C
  C539     1.0000 0.70275  0.40550  0.75000  Biso   1.000  C
  C540     1.0000 0.68445  0.36890  0.75000  Biso   1.000  C
  O125     1.0000 0.33530  0.16765  0.75000  Biso   1.000  O
  C541     1.0000 0.24970  0.12485  0.75000  Biso   1.000  C
  C542     1.0000 0.21200  0.10600  0.75000  Biso   1.000  C
  C543     1.0000 0.13930  0.06965  0.75000  Biso   1.000  C
  C544     1.0000 0.10280  0.05140  0.75000  Biso   1.000  C
  C545     1.0000 0.07220  0.03610  0.75000  Biso   1.000  C
  C546     1.0000 0.03550  0.01775  0.75000  Biso   1.000  C
  C547     1.0000 0.41800  0.20900  0.75000  Biso   1.000  C
  C548     1.0000 0.45580  0.22790  0.75000  Biso   1.000  C
  C549     1.0000 0.52730  0.26365  0.75000  Biso   1.000  C
  C550     1.0000 0.56390  0.28195  0.75000  Biso   1.000  C
  C551     1.0000 0.59450  0.29725  0.75000  Biso   1.000  C
  C552     1.0000 0.63110  0.31555  0.75000  Biso   1.000  C
  O126     1.0000 0.83235  0.16765  0.75000  Biso   1.000  O
  C553     1.0000 0.87515  0.12485  0.75000  Biso   1.000  C
  C554     1.0000 0.89400  0.10600  0.75000  Biso   1.000  C
  C555     1.0000 0.93035  0.06965  0.75000  Biso   1.000  C
  C556     1.0000 0.94860  0.05140  0.75000  Biso   1.000  C
  C557     1.0000 0.96390  0.03610  0.75000  Biso   1.000  C
  C558     1.0000 0.98225  0.01775  0.75000  Biso   1.000  C
  C559     1.0000 0.79100  0.20900  0.75000  Biso   1.000  C
  C560     1.0000 0.77210  0.22790  0.75000  Biso   1.000  C
  C561     1.0000 0.73635  0.26365  0.75000  Biso   1.000  C
  C562     1.0000 0.71805  0.28195  0.75000  Biso   1.000  C
  C563     1.0000 0.70275  0.29725  0.75000  Biso   1.000  C
  C564     1.0000 0.68445  0.31555  0.75000  Biso   1.000  C
  Zn37     1.0000 0.33333  0.66667  0.79310  Biso   1.000  Zn
  Zn38     1.0000 0.33333  0.66667  0.70690  Biso   1.000  Zn
  Zn39     1.0000 0.66667  0.33333  0.20690  Biso   1.000  Zn
  Zn40     1.0000 0.66667  0.33333  0.29310  Biso   1.000  Zn
  O127     1.0000 0.33333  0.66667  0.75000  Biso   1.000  O
  O128     1.0000 0.66667  0.33333  0.25000  Biso   1.000  O
  C565     1.0000 0.03530  0.01765  0.25000  Biso   1.000  C
  H277     1.0000 0.06000  0.03000  0.25000  Biso   1.000  H
  C566     1.0000 0.98235  0.01765  0.25000  Biso   1.000  C
  H278     1.0000 0.97000  0.03000  0.25000  Biso   1.000  H
  C567     1.0000 0.98235  0.96470  0.25000  Biso   1.000  C
  H279     1.0000 0.97000  0.94000  0.25000  Biso   1.000  H
  C568     1.0000 0.96470  0.98235  0.75000  Biso   1.000  C
  H280     1.0000 0.94000  0.97000  0.75000  Biso   1.000  H
  C569     1.0000 0.01765  0.98235  0.75000  Biso   1.000  C
  H281     1.0000 0.03000  0.97000  0.75000  Biso   1.000  H
  C570     1.0000 0.01765  0.03530  0.75000  Biso   1.000  C
  H282     1.0000 0.03000  0.06000  0.75000  Biso   1.000  H
  C571     1.0000 0.35100  0.64900  0.25000  Biso   1.000  C
  H283     1.0000 0.36300  0.63700  0.25000  Biso   1.000  H
  C572     1.0000 0.35100  0.70200  0.25000  Biso   1.000  C
  H284     1.0000 0.36300  0.72600  0.25000  Biso   1.000  H
  C573     1.0000 0.29800  0.64900  0.25000  Biso   1.000  C
  H285     1.0000 0.27400  0.63700  0.25000  Biso   1.000  H
  C574     1.0000 0.64900  0.35100  0.75000  Biso   1.000  C
  H286     1.0000 0.63700  0.36300  0.75000  Biso   1.000  H
  C575     1.0000 0.64900  0.29800  0.75000  Biso   1.000  C
  H287     1.0000 0.63700  0.27400  0.75000  Biso   1.000  H
  C576     1.0000 0.70200  0.35100  0.75000  Biso   1.000  C
  H288     1.0000 0.72600  0.36300  0.75000  Biso   1.000  H
