data_image0
_cell_length_a       26.7264
_cell_length_b       26.7264
_cell_length_c       26.7264
_cell_angle_alpha    90
_cell_angle_beta     90
_cell_angle_gamma    90

_symmetry_space_group_name_H-M    "P 1"
_symmetry_int_tables_number       1

loop_
  _symmetry_equiv_pos_as_xyz
  'x, y, z'

loop_
  _atom_site_label
  _atom_site_occupancy
  _atom_site_fract_x
  _atom_site_fract_y
  _atom_site_fract_z
  _atom_site_thermal_displace_type
  _atom_site_B_iso_or_equiv
  _atom_site_type_symbol
  O1       1.0000 0.05730  0.42810  0.39380  Biso   1.000  O
  O2       1.0000 0.03690  0.43180  0.32020  Biso   1.000  O
  C1       1.0000 0.07410  0.43030  0.35050  Biso   1.000  C
  C2       1.0000 0.11900  0.39840  0.33830  Biso   1.000  C
  C3       1.0000 0.13780  0.39940  0.29050  Biso   1.000  C
  C4       1.0000 0.14200  0.36890  0.37280  Biso   1.000  C
  H1       1.0000 0.12180  0.41820  0.26600  Biso   1.000  H
  C5       1.0000 0.18020  0.37250  0.27850  Biso   1.000  C
  C6       1.0000 0.18390  0.34040  0.36110  Biso   1.000  C
  H2       1.0000 0.12920  0.36770  0.40520  Biso   1.000  H
  H3       1.0000 0.19320  0.37450  0.24630  Biso   1.000  H
  C7       1.0000 0.20320  0.34310  0.31280  Biso   1.000  C
  H4       1.0000 0.19870  0.31990  0.38500  Biso   1.000  H
  C8       1.0000 0.24710  0.31310  0.29890  Biso   1.000  C
  N1       1.0000 0.27340  0.32790  0.25880  Biso   1.000  N
  O3       1.0000 0.06790  0.44530  0.39400  Biso   1.000  O
  O4       1.0000 0.06680  0.46740  0.32050  Biso   1.000  O
  O5       1.0000 0.94270  0.57190  0.39380  Biso   1.000  O
  O6       1.0000 0.96310  0.56820  0.32020  Biso   1.000  O
  C9       1.0000 0.92590  0.56970  0.35050  Biso   1.000  C
  C10      1.0000 0.88100  0.60160  0.33830  Biso   1.000  C
  C11      1.0000 0.86220  0.60060  0.29050  Biso   1.000  C
  C12      1.0000 0.85800  0.63110  0.37280  Biso   1.000  C
  H5       1.0000 0.87820  0.58180  0.26600  Biso   1.000  H
  C13      1.0000 0.81980  0.62750  0.27850  Biso   1.000  C
  C14      1.0000 0.81610  0.65960  0.36110  Biso   1.000  C
  H6       1.0000 0.87080  0.63230  0.40520  Biso   1.000  H
  H7       1.0000 0.80680  0.62550  0.24630  Biso   1.000  H
  C15      1.0000 0.79680  0.65690  0.31280  Biso   1.000  C
  H8       1.0000 0.80130  0.68010  0.38500  Biso   1.000  H
  C16      1.0000 0.75290  0.68690  0.29890  Biso   1.000  C
  N2       1.0000 0.72660  0.67210  0.25880  Biso   1.000  N
  O7       1.0000 0.93210  0.55470  0.39400  Biso   1.000  O
  O8       1.0000 0.93320  0.53260  0.32050  Biso   1.000  O
  O9       1.0000 0.94270  0.42810  0.60620  Biso   1.000  O
  O10      1.0000 0.96310  0.43180  0.67980  Biso   1.000  O
  C17      1.0000 0.92590  0.43030  0.64950  Biso   1.000  C
  C18      1.0000 0.88100  0.39840  0.66170  Biso   1.000  C
  C19      1.0000 0.86220  0.39940  0.70950  Biso   1.000  C
  C20      1.0000 0.85800  0.36890  0.62720  Biso   1.000  C
  H9       1.0000 0.87820  0.41820  0.73400  Biso   1.000  H
  C21      1.0000 0.81980  0.37250  0.72150  Biso   1.000  C
  C22      1.0000 0.81610  0.34040  0.63890  Biso   1.000  C
  H10      1.0000 0.87080  0.36770  0.59480  Biso   1.000  H
  H11      1.0000 0.80680  0.37450  0.75370  Biso   1.000  H
  C23      1.0000 0.79680  0.34310  0.68720  Biso   1.000  C
  H12      1.0000 0.80130  0.31990  0.61500  Biso   1.000  H
  C24      1.0000 0.75290  0.31310  0.70110  Biso   1.000  C
  N3       1.0000 0.72660  0.32790  0.74120  Biso   1.000  N
  O11      1.0000 0.93210  0.44530  0.60600  Biso   1.000  O
  O12      1.0000 0.93320  0.46740  0.67950  Biso   1.000  O
  O13      1.0000 0.05730  0.57190  0.60620  Biso   1.000  O
  O14      1.0000 0.03690  0.56820  0.67980  Biso   1.000  O
  C25      1.0000 0.07410  0.56970  0.64950  Biso   1.000  C
  C26      1.0000 0.11900  0.60160  0.66170  Biso   1.000  C
  C27      1.0000 0.13780  0.60060  0.70950  Biso   1.000  C
  C28      1.0000 0.14200  0.63110  0.62720  Biso   1.000  C
  H13      1.0000 0.12180  0.58180  0.73400  Biso   1.000  H
  C29      1.0000 0.18020  0.62750  0.72150  Biso   1.000  C
  C30      1.0000 0.18390  0.65960  0.63890  Biso   1.000  C
  H14      1.0000 0.12920  0.63230  0.59480  Biso   1.000  H
  H15      1.0000 0.19320  0.62550  0.75370  Biso   1.000  H
  C31      1.0000 0.20320  0.65690  0.68720  Biso   1.000  C
  H16      1.0000 0.19870  0.68010  0.61500  Biso   1.000  H
  C32      1.0000 0.24710  0.68690  0.70110  Biso   1.000  C
  N4       1.0000 0.27340  0.67210  0.74120  Biso   1.000  N
  O15      1.0000 0.06790  0.55470  0.60600  Biso   1.000  O
  O16      1.0000 0.06680  0.53260  0.67950  Biso   1.000  O
  O17      1.0000 0.39380  0.05730  0.42810  Biso   1.000  O
  O18      1.0000 0.32020  0.03690  0.43180  Biso   1.000  O
  C33      1.0000 0.35050  0.07410  0.43030  Biso   1.000  C
  C34      1.0000 0.33830  0.11900  0.39840  Biso   1.000  C
  C35      1.0000 0.29050  0.13780  0.39940  Biso   1.000  C
  C36      1.0000 0.37280  0.14200  0.36890  Biso   1.000  C
  H17      1.0000 0.26600  0.12180  0.41820  Biso   1.000  H
  C37      1.0000 0.27850  0.18020  0.37250  Biso   1.000  C
  C38      1.0000 0.36110  0.18390  0.34040  Biso   1.000  C
  H18      1.0000 0.40520  0.12920  0.36770  Biso   1.000  H
  H19      1.0000 0.24630  0.19320  0.37450  Biso   1.000  H
  C39      1.0000 0.31280  0.20320  0.34310  Biso   1.000  C
  H20      1.0000 0.38500  0.19870  0.31990  Biso   1.000  H
  C40      1.0000 0.29890  0.24710  0.31310  Biso   1.000  C
  N5       1.0000 0.25880  0.27340  0.32790  Biso   1.000  N
  O19      1.0000 0.39400  0.06790  0.44530  Biso   1.000  O
  O20      1.0000 0.32050  0.06680  0.46740  Biso   1.000  O
  O21      1.0000 0.39380  0.94270  0.57190  Biso   1.000  O
  O22      1.0000 0.32020  0.96310  0.56820  Biso   1.000  O
  C41      1.0000 0.35050  0.92590  0.56970  Biso   1.000  C
  C42      1.0000 0.33830  0.88100  0.60160  Biso   1.000  C
  C43      1.0000 0.29050  0.86220  0.60060  Biso   1.000  C
  C44      1.0000 0.37280  0.85800  0.63110  Biso   1.000  C
  H21      1.0000 0.26600  0.87820  0.58180  Biso   1.000  H
  C45      1.0000 0.27850  0.81980  0.62750  Biso   1.000  C
  C46      1.0000 0.36110  0.81610  0.65960  Biso   1.000  C
  H22      1.0000 0.40520  0.87080  0.63230  Biso   1.000  H
  H23      1.0000 0.24630  0.80680  0.62550  Biso   1.000  H
  C47      1.0000 0.31280  0.79680  0.65690  Biso   1.000  C
  H24      1.0000 0.38500  0.80130  0.68010  Biso   1.000  H
  C48      1.0000 0.29890  0.75290  0.68690  Biso   1.000  C
  N6       1.0000 0.25880  0.72660  0.67210  Biso   1.000  N
  O23      1.0000 0.39400  0.93210  0.55470  Biso   1.000  O
  O24      1.0000 0.32050  0.93320  0.53260  Biso   1.000  O
  O25      1.0000 0.60620  0.94270  0.42810  Biso   1.000  O
  O26      1.0000 0.67980  0.96310  0.43180  Biso   1.000  O
  C49      1.0000 0.64950  0.92590  0.43030  Biso   1.000  C
  C50      1.0000 0.66170  0.88100  0.39840  Biso   1.000  C
  C51      1.0000 0.70950  0.86220  0.39940  Biso   1.000  C
  C52      1.0000 0.62720  0.85800  0.36890  Biso   1.000  C
  H25      1.0000 0.73400  0.87820  0.41820  Biso   1.000  H
  C53      1.0000 0.72150  0.81980  0.37250  Biso   1.000  C
  C54      1.0000 0.63890  0.81610  0.34040  Biso   1.000  C
  H26      1.0000 0.59480  0.87080  0.36770  Biso   1.000  H
  H27      1.0000 0.75370  0.80680  0.37450  Biso   1.000  H
  C55      1.0000 0.68720  0.79680  0.34310  Biso   1.000  C
  H28      1.0000 0.61500  0.80130  0.31990  Biso   1.000  H
  C56      1.0000 0.70110  0.75290  0.31310  Biso   1.000  C
  N7       1.0000 0.74120  0.72660  0.32790  Biso   1.000  N
  O27      1.0000 0.60600  0.93210  0.44530  Biso   1.000  O
  O28      1.0000 0.67950  0.93320  0.46740  Biso   1.000  O
  O29      1.0000 0.60620  0.05730  0.57190  Biso   1.000  O
  O30      1.0000 0.67980  0.03690  0.56820  Biso   1.000  O
  C57      1.0000 0.64950  0.07410  0.56970  Biso   1.000  C
  C58      1.0000 0.66170  0.11900  0.60160  Biso   1.000  C
  C59      1.0000 0.70950  0.13780  0.60060  Biso   1.000  C
  C60      1.0000 0.62720  0.14200  0.63110  Biso   1.000  C
  H29      1.0000 0.73400  0.12180  0.58180  Biso   1.000  H
  C61      1.0000 0.72150  0.18020  0.62750  Biso   1.000  C
  C62      1.0000 0.63890  0.18390  0.65960  Biso   1.000  C
  H30      1.0000 0.59480  0.12920  0.63230  Biso   1.000  H
  H31      1.0000 0.75370  0.19320  0.62550  Biso   1.000  H
  C63      1.0000 0.68720  0.20320  0.65690  Biso   1.000  C
  H32      1.0000 0.61500  0.19870  0.68010  Biso   1.000  H
  C64      1.0000 0.70110  0.24710  0.68690  Biso   1.000  C
  N8       1.0000 0.74120  0.27340  0.67210  Biso   1.000  N
  O31      1.0000 0.60600  0.06790  0.55470  Biso   1.000  O
  O32      1.0000 0.67950  0.06680  0.53260  Biso   1.000  O
  O33      1.0000 0.42810  0.39380  0.05730  Biso   1.000  O
  O34      1.0000 0.43180  0.32020  0.03690  Biso   1.000  O
  C65      1.0000 0.43030  0.35050  0.07410  Biso   1.000  C
  C66      1.0000 0.39840  0.33830  0.11900  Biso   1.000  C
  C67      1.0000 0.39940  0.29050  0.13780  Biso   1.000  C
  C68      1.0000 0.36890  0.37280  0.14200  Biso   1.000  C
  H33      1.0000 0.41820  0.26600  0.12180  Biso   1.000  H
  C69      1.0000 0.37250  0.27850  0.18020  Biso   1.000  C
  C70      1.0000 0.34040  0.36110  0.18390  Biso   1.000  C
  H34      1.0000 0.36770  0.40520  0.12920  Biso   1.000  H
  H35      1.0000 0.37450  0.24630  0.19320  Biso   1.000  H
  C71      1.0000 0.34310  0.31280  0.20320  Biso   1.000  C
  H36      1.0000 0.31990  0.38500  0.19870  Biso   1.000  H
  C72      1.0000 0.31310  0.29890  0.24710  Biso   1.000  C
  N9       1.0000 0.32790  0.25880  0.27340  Biso   1.000  N
  O35      1.0000 0.44530  0.39400  0.06790  Biso   1.000  O
  O36      1.0000 0.46740  0.32050  0.06680  Biso   1.000  O
  O37      1.0000 0.57190  0.39380  0.94270  Biso   1.000  O
  O38      1.0000 0.56820  0.32020  0.96310  Biso   1.000  O
  C73      1.0000 0.56970  0.35050  0.92590  Biso   1.000  C
  C74      1.0000 0.60160  0.33830  0.88100  Biso   1.000  C
  C75      1.0000 0.60060  0.29050  0.86220  Biso   1.000  C
  C76      1.0000 0.63110  0.37280  0.85800  Biso   1.000  C
  H37      1.0000 0.58180  0.26600  0.87820  Biso   1.000  H
  C77      1.0000 0.62750  0.27850  0.81980  Biso   1.000  C
  C78      1.0000 0.65960  0.36110  0.81610  Biso   1.000  C
  H38      1.0000 0.63230  0.40520  0.87080  Biso   1.000  H
  H39      1.0000 0.62550  0.24630  0.80680  Biso   1.000  H
  C79      1.0000 0.65690  0.31280  0.79680  Biso   1.000  C
  H40      1.0000 0.68010  0.38500  0.80130  Biso   1.000  H
  C80      1.0000 0.68690  0.29890  0.75290  Biso   1.000  C
  N10      1.0000 0.67210  0.25880  0.72660  Biso   1.000  N
  O39      1.0000 0.55470  0.39400  0.93210  Biso   1.000  O
  O40      1.0000 0.53260  0.32050  0.93320  Biso   1.000  O
  O41      1.0000 0.42810  0.60620  0.94270  Biso   1.000  O
  O42      1.0000 0.43180  0.67980  0.96310  Biso   1.000  O
  C81      1.0000 0.43030  0.64950  0.92590  Biso   1.000  C
  C82      1.0000 0.39840  0.66170  0.88100  Biso   1.000  C
  C83      1.0000 0.39940  0.70950  0.86220  Biso   1.000  C
  C84      1.0000 0.36890  0.62720  0.85800  Biso   1.000  C
  H41      1.0000 0.41820  0.73400  0.87820  Biso   1.000  H
  C85      1.0000 0.37250  0.72150  0.81980  Biso   1.000  C
  C86      1.0000 0.34040  0.63890  0.81610  Biso   1.000  C
  H42      1.0000 0.36770  0.59480  0.87080  Biso   1.000  H
  H43      1.0000 0.37450  0.75370  0.80680  Biso   1.000  H
  C87      1.0000 0.34310  0.68720  0.79680  Biso   1.000  C
  H44      1.0000 0.31990  0.61500  0.80130  Biso   1.000  H
  C88      1.0000 0.31310  0.70110  0.75290  Biso   1.000  C
  N11      1.0000 0.32790  0.74120  0.72660  Biso   1.000  N
  O43      1.0000 0.44530  0.60600  0.93210  Biso   1.000  O
  O44      1.0000 0.46740  0.67950  0.93320  Biso   1.000  O
  O45      1.0000 0.57190  0.60620  0.05730  Biso   1.000  O
  O46      1.0000 0.56820  0.67980  0.03690  Biso   1.000  O
  C89      1.0000 0.56970  0.64950  0.07410  Biso   1.000  C
  C90      1.0000 0.60160  0.66170  0.11900  Biso   1.000  C
  C91      1.0000 0.60060  0.70950  0.13780  Biso   1.000  C
  C92      1.0000 0.63110  0.62720  0.14200  Biso   1.000  C
  H45      1.0000 0.58180  0.73400  0.12180  Biso   1.000  H
  C93      1.0000 0.62750  0.72150  0.18020  Biso   1.000  C
  C94      1.0000 0.65960  0.63890  0.18390  Biso   1.000  C
  H46      1.0000 0.63230  0.59480  0.12920  Biso   1.000  H
  H47      1.0000 0.62550  0.75370  0.19320  Biso   1.000  H
  C95      1.0000 0.65690  0.68720  0.20320  Biso   1.000  C
  H48      1.0000 0.68010  0.61500  0.19870  Biso   1.000  H
  C96      1.0000 0.68690  0.70110  0.24710  Biso   1.000  C
  N12      1.0000 0.67210  0.74120  0.27340  Biso   1.000  N
  O47      1.0000 0.55470  0.60600  0.06790  Biso   1.000  O
  O48      1.0000 0.53260  0.67950  0.06680  Biso   1.000  O
  O49      1.0000 0.94270  0.57190  0.60620  Biso   1.000  O
  O50      1.0000 0.96310  0.56820  0.67980  Biso   1.000  O
  C97      1.0000 0.92590  0.56970  0.64950  Biso   1.000  C
  C98      1.0000 0.88100  0.60160  0.66170  Biso   1.000  C
  C99      1.0000 0.86220  0.60060  0.70950  Biso   1.000  C
  C100     1.0000 0.85800  0.63110  0.62720  Biso   1.000  C
  H49      1.0000 0.87820  0.58180  0.73400  Biso   1.000  H
  C101     1.0000 0.81980  0.62750  0.72150  Biso   1.000  C
  C102     1.0000 0.81610  0.65960  0.63890  Biso   1.000  C
  H50      1.0000 0.87080  0.63230  0.59480  Biso   1.000  H
  H51      1.0000 0.80680  0.62550  0.75370  Biso   1.000  H
  C103     1.0000 0.79680  0.65690  0.68720  Biso   1.000  C
  H52      1.0000 0.80130  0.68010  0.61500  Biso   1.000  H
  C104     1.0000 0.75290  0.68690  0.70110  Biso   1.000  C
  N13      1.0000 0.72660  0.67210  0.74120  Biso   1.000  N
  O51      1.0000 0.93210  0.55470  0.60600  Biso   1.000  O
  O52      1.0000 0.93320  0.53260  0.67950  Biso   1.000  O
  O53      1.0000 0.05730  0.42810  0.60620  Biso   1.000  O
  O54      1.0000 0.03690  0.43180  0.67980  Biso   1.000  O
  C105     1.0000 0.07410  0.43030  0.64950  Biso   1.000  C
  C106     1.0000 0.11900  0.39840  0.66170  Biso   1.000  C
  C107     1.0000 0.13780  0.39940  0.70950  Biso   1.000  C
  C108     1.0000 0.14200  0.36890  0.62720  Biso   1.000  C
  H53      1.0000 0.12180  0.41820  0.73400  Biso   1.000  H
  C109     1.0000 0.18020  0.37250  0.72150  Biso   1.000  C
  C110     1.0000 0.18390  0.34040  0.63890  Biso   1.000  C
  H54      1.0000 0.12920  0.36770  0.59480  Biso   1.000  H
  H55      1.0000 0.19320  0.37450  0.75370  Biso   1.000  H
  C111     1.0000 0.20320  0.34310  0.68720  Biso   1.000  C
  H56      1.0000 0.19870  0.31990  0.61500  Biso   1.000  H
  C112     1.0000 0.24710  0.31310  0.70110  Biso   1.000  C
  N14      1.0000 0.27340  0.32790  0.74120  Biso   1.000  N
  O55      1.0000 0.06790  0.44530  0.60600  Biso   1.000  O
  O56      1.0000 0.06680  0.46740  0.67950  Biso   1.000  O
  O57      1.0000 0.05730  0.57190  0.39380  Biso   1.000  O
  O58      1.0000 0.03690  0.56820  0.32020  Biso   1.000  O
  C113     1.0000 0.07410  0.56970  0.35050  Biso   1.000  C
  C114     1.0000 0.11900  0.60160  0.33830  Biso   1.000  C
  C115     1.0000 0.13780  0.60060  0.29050  Biso   1.000  C
  C116     1.0000 0.14200  0.63110  0.37280  Biso   1.000  C
  H57      1.0000 0.12180  0.58180  0.26600  Biso   1.000  H
  C117     1.0000 0.18020  0.62750  0.27850  Biso   1.000  C
  C118     1.0000 0.18390  0.65960  0.36110  Biso   1.000  C
  H58      1.0000 0.12920  0.63230  0.40520  Biso   1.000  H
  H59      1.0000 0.19320  0.62550  0.24630  Biso   1.000  H
  C119     1.0000 0.20320  0.65690  0.31280  Biso   1.000  C
  H60      1.0000 0.19870  0.68010  0.38500  Biso   1.000  H
  C120     1.0000 0.24710  0.68690  0.29890  Biso   1.000  C
  N15      1.0000 0.27340  0.67210  0.25880  Biso   1.000  N
  O59      1.0000 0.06790  0.55470  0.39400  Biso   1.000  O
  O60      1.0000 0.06680  0.53260  0.32050  Biso   1.000  O
  O61      1.0000 0.94270  0.42810  0.39380  Biso   1.000  O
  O62      1.0000 0.96310  0.43180  0.32020  Biso   1.000  O
  C121     1.0000 0.92590  0.43030  0.35050  Biso   1.000  C
  C122     1.0000 0.88100  0.39840  0.33830  Biso   1.000  C
  C123     1.0000 0.86220  0.39940  0.29050  Biso   1.000  C
  C124     1.0000 0.85800  0.36890  0.37280  Biso   1.000  C
  H61      1.0000 0.87820  0.41820  0.26600  Biso   1.000  H
  C125     1.0000 0.81980  0.37250  0.27850  Biso   1.000  C
  C126     1.0000 0.81610  0.34040  0.36110  Biso   1.000  C
  H62      1.0000 0.87080  0.36770  0.40520  Biso   1.000  H
  H63      1.0000 0.80680  0.37450  0.24630  Biso   1.000  H
  C127     1.0000 0.79680  0.34310  0.31280  Biso   1.000  C
  H64      1.0000 0.80130  0.31990  0.38500  Biso   1.000  H
  C128     1.0000 0.75290  0.31310  0.29890  Biso   1.000  C
  N16      1.0000 0.72660  0.32790  0.25880  Biso   1.000  N
  O63      1.0000 0.93210  0.44530  0.39400  Biso   1.000  O
  O64      1.0000 0.93320  0.46740  0.32050  Biso   1.000  O
  O65      1.0000 0.60620  0.94270  0.57190  Biso   1.000  O
  O66      1.0000 0.67980  0.96310  0.56820  Biso   1.000  O
  C129     1.0000 0.64950  0.92590  0.56970  Biso   1.000  C
  C130     1.0000 0.66170  0.88100  0.60160  Biso   1.000  C
  C131     1.0000 0.70950  0.86220  0.60060  Biso   1.000  C
  C132     1.0000 0.62720  0.85800  0.63110  Biso   1.000  C
  H65      1.0000 0.73400  0.87820  0.58180  Biso   1.000  H
  C133     1.0000 0.72150  0.81980  0.62750  Biso   1.000  C
  C134     1.0000 0.63890  0.81610  0.65960  Biso   1.000  C
  H66      1.0000 0.59480  0.87080  0.63230  Biso   1.000  H
  H67      1.0000 0.75370  0.80680  0.62550  Biso   1.000  H
  C135     1.0000 0.68720  0.79680  0.65690  Biso   1.000  C
  H68      1.0000 0.61500  0.80130  0.68010  Biso   1.000  H
  C136     1.0000 0.70110  0.75290  0.68690  Biso   1.000  C
  N17      1.0000 0.74120  0.72660  0.67210  Biso   1.000  N
  O67      1.0000 0.60600  0.93210  0.55470  Biso   1.000  O
  O68      1.0000 0.67950  0.93320  0.53260  Biso   1.000  O
  O69      1.0000 0.60620  0.05730  0.42810  Biso   1.000  O
  O70      1.0000 0.67980  0.03690  0.43180  Biso   1.000  O
  C137     1.0000 0.64950  0.07410  0.43030  Biso   1.000  C
  C138     1.0000 0.66170  0.11900  0.39840  Biso   1.000  C
  C139     1.0000 0.70950  0.13780  0.39940  Biso   1.000  C
  C140     1.0000 0.62720  0.14200  0.36890  Biso   1.000  C
  H69      1.0000 0.73400  0.12180  0.41820  Biso   1.000  H
  C141     1.0000 0.72150  0.18020  0.37250  Biso   1.000  C
  C142     1.0000 0.63890  0.18390  0.34040  Biso   1.000  C
  H70      1.0000 0.59480  0.12920  0.36770  Biso   1.000  H
  H71      1.0000 0.75370  0.19320  0.37450  Biso   1.000  H
  C143     1.0000 0.68720  0.20320  0.34310  Biso   1.000  C
  H72      1.0000 0.61500  0.19870  0.31990  Biso   1.000  H
  C144     1.0000 0.70110  0.24710  0.31310  Biso   1.000  C
  N18      1.0000 0.74120  0.27340  0.32790  Biso   1.000  N
  O71      1.0000 0.60600  0.06790  0.44530  Biso   1.000  O
  O72      1.0000 0.67950  0.06680  0.46740  Biso   1.000  O
  O73      1.0000 0.39380  0.05730  0.57190  Biso   1.000  O
  O74      1.0000 0.32020  0.03690  0.56820  Biso   1.000  O
  C145     1.0000 0.35050  0.07410  0.56970  Biso   1.000  C
  C146     1.0000 0.33830  0.11900  0.60160  Biso   1.000  C
  C147     1.0000 0.29050  0.13780  0.60060  Biso   1.000  C
  C148     1.0000 0.37280  0.14200  0.63110  Biso   1.000  C
  H73      1.0000 0.26600  0.12180  0.58180  Biso   1.000  H
  C149     1.0000 0.27850  0.18020  0.62750  Biso   1.000  C
  C150     1.0000 0.36110  0.18390  0.65960  Biso   1.000  C
  H74      1.0000 0.40520  0.12920  0.63230  Biso   1.000  H
  H75      1.0000 0.24630  0.19320  0.62550  Biso   1.000  H
  C151     1.0000 0.31280  0.20320  0.65690  Biso   1.000  C
  H76      1.0000 0.38500  0.19870  0.68010  Biso   1.000  H
  C152     1.0000 0.29890  0.24710  0.68690  Biso   1.000  C
  N19      1.0000 0.25880  0.27340  0.67210  Biso   1.000  N
  O75      1.0000 0.39400  0.06790  0.55470  Biso   1.000  O
  O76      1.0000 0.32050  0.06680  0.53260  Biso   1.000  O
  O77      1.0000 0.39380  0.94270  0.42810  Biso   1.000  O
  O78      1.0000 0.32020  0.96310  0.43180  Biso   1.000  O
  C153     1.0000 0.35050  0.92590  0.43030  Biso   1.000  C
  C154     1.0000 0.33830  0.88100  0.39840  Biso   1.000  C
  C155     1.0000 0.29050  0.86220  0.39940  Biso   1.000  C
  C156     1.0000 0.37280  0.85800  0.36890  Biso   1.000  C
  H77      1.0000 0.26600  0.87820  0.41820  Biso   1.000  H
  C157     1.0000 0.27850  0.81980  0.37250  Biso   1.000  C
  C158     1.0000 0.36110  0.81610  0.34040  Biso   1.000  C
  H78      1.0000 0.40520  0.87080  0.36770  Biso   1.000  H
  H79      1.0000 0.24630  0.80680  0.37450  Biso   1.000  H
  C159     1.0000 0.31280  0.79680  0.34310  Biso   1.000  C
  H80      1.0000 0.38500  0.80130  0.31990  Biso   1.000  H
  C160     1.0000 0.29890  0.75290  0.31310  Biso   1.000  C
  N20      1.0000 0.25880  0.72660  0.32790  Biso   1.000  N
  O79      1.0000 0.39400  0.93210  0.44530  Biso   1.000  O
  O80      1.0000 0.32050  0.93320  0.46740  Biso   1.000  O
  O81      1.0000 0.57190  0.60620  0.94270  Biso   1.000  O
  O82      1.0000 0.56820  0.67980  0.96310  Biso   1.000  O
  C161     1.0000 0.56970  0.64950  0.92590  Biso   1.000  C
  C162     1.0000 0.60160  0.66170  0.88100  Biso   1.000  C
  C163     1.0000 0.60060  0.70950  0.86220  Biso   1.000  C
  C164     1.0000 0.63110  0.62720  0.85800  Biso   1.000  C
  H81      1.0000 0.58180  0.73400  0.87820  Biso   1.000  H
  C165     1.0000 0.62750  0.72150  0.81980  Biso   1.000  C
  C166     1.0000 0.65960  0.63890  0.81610  Biso   1.000  C
  H82      1.0000 0.63230  0.59480  0.87080  Biso   1.000  H
  H83      1.0000 0.62550  0.75370  0.80680  Biso   1.000  H
  C167     1.0000 0.65690  0.68720  0.79680  Biso   1.000  C
  H84      1.0000 0.68010  0.61500  0.80130  Biso   1.000  H
  C168     1.0000 0.68690  0.70110  0.75290  Biso   1.000  C
  N21      1.0000 0.67210  0.74120  0.72660  Biso   1.000  N
  O83      1.0000 0.55470  0.60600  0.93210  Biso   1.000  O
  O84      1.0000 0.53260  0.67950  0.93320  Biso   1.000  O
  O85      1.0000 0.42810  0.60620  0.05730  Biso   1.000  O
  O86      1.0000 0.43180  0.67980  0.03690  Biso   1.000  O
  C169     1.0000 0.43030  0.64950  0.07410  Biso   1.000  C
  C170     1.0000 0.39840  0.66170  0.11900  Biso   1.000  C
  C171     1.0000 0.39940  0.70950  0.13780  Biso   1.000  C
  C172     1.0000 0.36890  0.62720  0.14200  Biso   1.000  C
  H85      1.0000 0.41820  0.73400  0.12180  Biso   1.000  H
  C173     1.0000 0.37250  0.72150  0.18020  Biso   1.000  C
  C174     1.0000 0.34040  0.63890  0.18390  Biso   1.000  C
  H86      1.0000 0.36770  0.59480  0.12920  Biso   1.000  H
  H87      1.0000 0.37450  0.75370  0.19320  Biso   1.000  H
  C175     1.0000 0.34310  0.68720  0.20320  Biso   1.000  C
  H88      1.0000 0.31990  0.61500  0.19870  Biso   1.000  H
  C176     1.0000 0.31310  0.70110  0.24710  Biso   1.000  C
  N22      1.0000 0.32790  0.74120  0.27340  Biso   1.000  N
  O87      1.0000 0.44530  0.60600  0.06790  Biso   1.000  O
  O88      1.0000 0.46740  0.67950  0.06680  Biso   1.000  O
  O89      1.0000 0.57190  0.39380  0.05730  Biso   1.000  O
  O90      1.0000 0.56820  0.32020  0.03690  Biso   1.000  O
  C177     1.0000 0.56970  0.35050  0.07410  Biso   1.000  C
  C178     1.0000 0.60160  0.33830  0.11900  Biso   1.000  C
  C179     1.0000 0.60060  0.29050  0.13780  Biso   1.000  C
  C180     1.0000 0.63110  0.37280  0.14200  Biso   1.000  C
  H89      1.0000 0.58180  0.26600  0.12180  Biso   1.000  H
  C181     1.0000 0.62750  0.27850  0.18020  Biso   1.000  C
  C182     1.0000 0.65960  0.36110  0.18390  Biso   1.000  C
  H90      1.0000 0.63230  0.40520  0.12920  Biso   1.000  H
  H91      1.0000 0.62550  0.24630  0.19320  Biso   1.000  H
  C183     1.0000 0.65690  0.31280  0.20320  Biso   1.000  C
  H92      1.0000 0.68010  0.38500  0.19870  Biso   1.000  H
  C184     1.0000 0.68690  0.29890  0.24710  Biso   1.000  C
  N23      1.0000 0.67210  0.25880  0.27340  Biso   1.000  N
  O91      1.0000 0.55470  0.39400  0.06790  Biso   1.000  O
  O92      1.0000 0.53260  0.32050  0.06680  Biso   1.000  O
  O93      1.0000 0.42810  0.39380  0.94270  Biso   1.000  O
  O94      1.0000 0.43180  0.32020  0.96310  Biso   1.000  O
  C185     1.0000 0.43030  0.35050  0.92590  Biso   1.000  C
  C186     1.0000 0.39840  0.33830  0.88100  Biso   1.000  C
  C187     1.0000 0.39940  0.29050  0.86220  Biso   1.000  C
  C188     1.0000 0.36890  0.37280  0.85800  Biso   1.000  C
  H93      1.0000 0.41820  0.26600  0.87820  Biso   1.000  H
  C189     1.0000 0.37250  0.27850  0.81980  Biso   1.000  C
  C190     1.0000 0.34040  0.36110  0.81610  Biso   1.000  C
  H94      1.0000 0.36770  0.40520  0.87080  Biso   1.000  H
  H95      1.0000 0.37450  0.24630  0.80680  Biso   1.000  H
  C191     1.0000 0.34310  0.31280  0.79680  Biso   1.000  C
  H96      1.0000 0.31990  0.38500  0.80130  Biso   1.000  H
  C192     1.0000 0.31310  0.29890  0.75290  Biso   1.000  C
  N24      1.0000 0.32790  0.25880  0.72660  Biso   1.000  N
  O95      1.0000 0.44530  0.39400  0.93210  Biso   1.000  O
  O96      1.0000 0.46740  0.32050  0.93320  Biso   1.000  O
  Tb1      1.0000 0.00000  0.50000  0.37297  Biso   1.000  Tb
  O97      1.0000 0.00000  0.50000  0.45770  Biso   1.000  O
  Tb2      1.0000 0.00000  0.50000  0.62703  Biso   1.000  Tb
  O98      1.0000 0.00000  0.50000  0.54230  Biso   1.000  O
  Tb3      1.0000 0.37297  0.00000  0.50000  Biso   1.000  Tb
  O99      1.0000 0.45770  0.00000  0.50000  Biso   1.000  O
  Tb4      1.0000 0.62703  0.00000  0.50000  Biso   1.000  Tb
  O100     1.0000 0.54230  0.00000  0.50000  Biso   1.000  O
  Tb5      1.0000 0.50000  0.37297  0.00000  Biso   1.000  Tb
  O101     1.0000 0.50000  0.45770  0.00000  Biso   1.000  O
  Tb6      1.0000 0.50000  0.62703  0.00000  Biso   1.000  Tb
  O102     1.0000 0.50000  0.54230  0.00000  Biso   1.000  O
  C193     1.0000 0.01750  0.50000  0.50000  Biso   1.000  C
  C194     1.0000 0.98250  0.50000  0.50000  Biso   1.000  C
  C195     1.0000 0.50000  0.01750  0.50000  Biso   1.000  C
  C196     1.0000 0.50000  0.98250  0.50000  Biso   1.000  C
  C197     1.0000 0.50000  0.50000  0.01750  Biso   1.000  C
  C198     1.0000 0.50000  0.50000  0.98250  Biso   1.000  C
  O103     1.0000 0.55730  0.92810  0.89380  Biso   1.000  O
  O104     1.0000 0.53690  0.93180  0.82020  Biso   1.000  O
  C199     1.0000 0.57410  0.93030  0.85050  Biso   1.000  C
  C200     1.0000 0.61900  0.89840  0.83830  Biso   1.000  C
  C201     1.0000 0.63780  0.89940  0.79050  Biso   1.000  C
  C202     1.0000 0.64200  0.86890  0.87280  Biso   1.000  C
  H97      1.0000 0.62180  0.91820  0.76600  Biso   1.000  H
  C203     1.0000 0.68020  0.87250  0.77850  Biso   1.000  C
  C204     1.0000 0.68390  0.84040  0.86110  Biso   1.000  C
  H98      1.0000 0.62920  0.86770  0.90520  Biso   1.000  H
  H99      1.0000 0.69320  0.87450  0.74630  Biso   1.000  H
  C205     1.0000 0.70320  0.84310  0.81280  Biso   1.000  C
  H100     1.0000 0.69870  0.81990  0.88500  Biso   1.000  H
  C206     1.0000 0.74710  0.81310  0.79890  Biso   1.000  C
  N25      1.0000 0.77340  0.82790  0.75880  Biso   1.000  N
  O105     1.0000 0.56790  0.94530  0.89400  Biso   1.000  O
  O106     1.0000 0.56680  0.96740  0.82050  Biso   1.000  O
  O107     1.0000 0.44270  0.07190  0.89380  Biso   1.000  O
  O108     1.0000 0.46310  0.06820  0.82020  Biso   1.000  O
  C207     1.0000 0.42590  0.06970  0.85050  Biso   1.000  C
  C208     1.0000 0.38100  0.10160  0.83830  Biso   1.000  C
  C209     1.0000 0.36220  0.10060  0.79050  Biso   1.000  C
  C210     1.0000 0.35800  0.13110  0.87280  Biso   1.000  C
  H101     1.0000 0.37820  0.08180  0.76600  Biso   1.000  H
  C211     1.0000 0.31980  0.12750  0.77850  Biso   1.000  C
  C212     1.0000 0.31610  0.15960  0.86110  Biso   1.000  C
  H102     1.0000 0.37080  0.13230  0.90520  Biso   1.000  H
  H103     1.0000 0.30680  0.12550  0.74630  Biso   1.000  H
  C213     1.0000 0.29680  0.15690  0.81280  Biso   1.000  C
  H104     1.0000 0.30130  0.18010  0.88500  Biso   1.000  H
  C214     1.0000 0.25290  0.18690  0.79890  Biso   1.000  C
  N26      1.0000 0.22660  0.17210  0.75880  Biso   1.000  N
  O109     1.0000 0.43210  0.05470  0.89400  Biso   1.000  O
  O110     1.0000 0.43320  0.03260  0.82050  Biso   1.000  O
  O111     1.0000 0.44270  0.92810  0.10620  Biso   1.000  O
  O112     1.0000 0.46310  0.93180  0.17980  Biso   1.000  O
  C215     1.0000 0.42590  0.93030  0.14950  Biso   1.000  C
  C216     1.0000 0.38100  0.89840  0.16170  Biso   1.000  C
  C217     1.0000 0.36220  0.89940  0.20950  Biso   1.000  C
  C218     1.0000 0.35800  0.86890  0.12720  Biso   1.000  C
  H105     1.0000 0.37820  0.91820  0.23400  Biso   1.000  H
  C219     1.0000 0.31980  0.87250  0.22150  Biso   1.000  C
  C220     1.0000 0.31610  0.84040  0.13890  Biso   1.000  C
  H106     1.0000 0.37080  0.86770  0.09480  Biso   1.000  H
  H107     1.0000 0.30680  0.87450  0.25370  Biso   1.000  H
  C221     1.0000 0.29680  0.84310  0.18720  Biso   1.000  C
  H108     1.0000 0.30130  0.81990  0.11500  Biso   1.000  H
  C222     1.0000 0.25290  0.81310  0.20110  Biso   1.000  C
  N27      1.0000 0.22660  0.82790  0.24120  Biso   1.000  N
  O113     1.0000 0.43210  0.94530  0.10600  Biso   1.000  O
  O114     1.0000 0.43320  0.96740  0.17950  Biso   1.000  O
  O115     1.0000 0.55730  0.07190  0.10620  Biso   1.000  O
  O116     1.0000 0.53690  0.06820  0.17980  Biso   1.000  O
  C223     1.0000 0.57410  0.06970  0.14950  Biso   1.000  C
  C224     1.0000 0.61900  0.10160  0.16170  Biso   1.000  C
  C225     1.0000 0.63780  0.10060  0.20950  Biso   1.000  C
  C226     1.0000 0.64200  0.13110  0.12720  Biso   1.000  C
  H109     1.0000 0.62180  0.08180  0.23400  Biso   1.000  H
  C227     1.0000 0.68020  0.12750  0.22150  Biso   1.000  C
  C228     1.0000 0.68390  0.15960  0.13890  Biso   1.000  C
  H110     1.0000 0.62920  0.13230  0.09480  Biso   1.000  H
  H111     1.0000 0.69320  0.12550  0.25370  Biso   1.000  H
  C229     1.0000 0.70320  0.15690  0.18720  Biso   1.000  C
  H112     1.0000 0.69870  0.18010  0.11500  Biso   1.000  H
  C230     1.0000 0.74710  0.18690  0.20110  Biso   1.000  C
  N28      1.0000 0.77340  0.17210  0.24120  Biso   1.000  N
  O117     1.0000 0.56790  0.05470  0.10600  Biso   1.000  O
  O118     1.0000 0.56680  0.03260  0.17950  Biso   1.000  O
  O119     1.0000 0.89380  0.55730  0.92810  Biso   1.000  O
  O120     1.0000 0.82020  0.53690  0.93180  Biso   1.000  O
  C231     1.0000 0.85050  0.57410  0.93030  Biso   1.000  C
  C232     1.0000 0.83830  0.61900  0.89840  Biso   1.000  C
  C233     1.0000 0.79050  0.63780  0.89940  Biso   1.000  C
  C234     1.0000 0.87280  0.64200  0.86890  Biso   1.000  C
  H113     1.0000 0.76600  0.62180  0.91820  Biso   1.000  H
  C235     1.0000 0.77850  0.68020  0.87250  Biso   1.000  C
  C236     1.0000 0.86110  0.68390  0.84040  Biso   1.000  C
  H114     1.0000 0.90520  0.62920  0.86770  Biso   1.000  H
  H115     1.0000 0.74630  0.69320  0.87450  Biso   1.000  H
  C237     1.0000 0.81280  0.70320  0.84310  Biso   1.000  C
  H116     1.0000 0.88500  0.69870  0.81990  Biso   1.000  H
  C238     1.0000 0.79890  0.74710  0.81310  Biso   1.000  C
  N29      1.0000 0.75880  0.77340  0.82790  Biso   1.000  N
  O121     1.0000 0.89400  0.56790  0.94530  Biso   1.000  O
  O122     1.0000 0.82050  0.56680  0.96740  Biso   1.000  O
  O123     1.0000 0.89380  0.44270  0.07190  Biso   1.000  O
  O124     1.0000 0.82020  0.46310  0.06820  Biso   1.000  O
  C239     1.0000 0.85050  0.42590  0.06970  Biso   1.000  C
  C240     1.0000 0.83830  0.38100  0.10160  Biso   1.000  C
  C241     1.0000 0.79050  0.36220  0.10060  Biso   1.000  C
  C242     1.0000 0.87280  0.35800  0.13110  Biso   1.000  C
  H117     1.0000 0.76600  0.37820  0.08180  Biso   1.000  H
  C243     1.0000 0.77850  0.31980  0.12750  Biso   1.000  C
  C244     1.0000 0.86110  0.31610  0.15960  Biso   1.000  C
  H118     1.0000 0.90520  0.37080  0.13230  Biso   1.000  H
  H119     1.0000 0.74630  0.30680  0.12550  Biso   1.000  H
  C245     1.0000 0.81280  0.29680  0.15690  Biso   1.000  C
  H120     1.0000 0.88500  0.30130  0.18010  Biso   1.000  H
  C246     1.0000 0.79890  0.25290  0.18690  Biso   1.000  C
  N30      1.0000 0.75880  0.22660  0.17210  Biso   1.000  N
  O125     1.0000 0.89400  0.43210  0.05470  Biso   1.000  O
  O126     1.0000 0.82050  0.43320  0.03260  Biso   1.000  O
  O127     1.0000 0.10620  0.44270  0.92810  Biso   1.000  O
  O128     1.0000 0.17980  0.46310  0.93180  Biso   1.000  O
  C247     1.0000 0.14950  0.42590  0.93030  Biso   1.000  C
  C248     1.0000 0.16170  0.38100  0.89840  Biso   1.000  C
  C249     1.0000 0.20950  0.36220  0.89940  Biso   1.000  C
  C250     1.0000 0.12720  0.35800  0.86890  Biso   1.000  C
  H121     1.0000 0.23400  0.37820  0.91820  Biso   1.000  H
  C251     1.0000 0.22150  0.31980  0.87250  Biso   1.000  C
  C252     1.0000 0.13890  0.31610  0.84040  Biso   1.000  C
  H122     1.0000 0.09480  0.37080  0.86770  Biso   1.000  H
  H123     1.0000 0.25370  0.30680  0.87450  Biso   1.000  H
  C253     1.0000 0.18720  0.29680  0.84310  Biso   1.000  C
  H124     1.0000 0.11500  0.30130  0.81990  Biso   1.000  H
  C254     1.0000 0.20110  0.25290  0.81310  Biso   1.000  C
  N31      1.0000 0.24120  0.22660  0.82790  Biso   1.000  N
  O129     1.0000 0.10600  0.43210  0.94530  Biso   1.000  O
  O130     1.0000 0.17950  0.43320  0.96740  Biso   1.000  O
  O131     1.0000 0.10620  0.55730  0.07190  Biso   1.000  O
  O132     1.0000 0.17980  0.53690  0.06820  Biso   1.000  O
  C255     1.0000 0.14950  0.57410  0.06970  Biso   1.000  C
  C256     1.0000 0.16170  0.61900  0.10160  Biso   1.000  C
  C257     1.0000 0.20950  0.63780  0.10060  Biso   1.000  C
  C258     1.0000 0.12720  0.64200  0.13110  Biso   1.000  C
  H125     1.0000 0.23400  0.62180  0.08180  Biso   1.000  H
  C259     1.0000 0.22150  0.68020  0.12750  Biso   1.000  C
  C260     1.0000 0.13890  0.68390  0.15960  Biso   1.000  C
  H126     1.0000 0.09480  0.62920  0.13230  Biso   1.000  H
  H127     1.0000 0.25370  0.69320  0.12550  Biso   1.000  H
  C261     1.0000 0.18720  0.70320  0.15690  Biso   1.000  C
  H128     1.0000 0.11500  0.69870  0.18010  Biso   1.000  H
  C262     1.0000 0.20110  0.74710  0.18690  Biso   1.000  C
  N32      1.0000 0.24120  0.77340  0.17210  Biso   1.000  N
  O133     1.0000 0.10600  0.56790  0.05470  Biso   1.000  O
  O134     1.0000 0.17950  0.56680  0.03260  Biso   1.000  O
  O135     1.0000 0.92810  0.89380  0.55730  Biso   1.000  O
  O136     1.0000 0.93180  0.82020  0.53690  Biso   1.000  O
  C263     1.0000 0.93030  0.85050  0.57410  Biso   1.000  C
  C264     1.0000 0.89840  0.83830  0.61900  Biso   1.000  C
  C265     1.0000 0.89940  0.79050  0.63780  Biso   1.000  C
  C266     1.0000 0.86890  0.87280  0.64200  Biso   1.000  C
  H129     1.0000 0.91820  0.76600  0.62180  Biso   1.000  H
  C267     1.0000 0.87250  0.77850  0.68020  Biso   1.000  C
  C268     1.0000 0.84040  0.86110  0.68390  Biso   1.000  C
  H130     1.0000 0.86770  0.90520  0.62920  Biso   1.000  H
  H131     1.0000 0.87450  0.74630  0.69320  Biso   1.000  H
  C269     1.0000 0.84310  0.81280  0.70320  Biso   1.000  C
  H132     1.0000 0.81990  0.88500  0.69870  Biso   1.000  H
  C270     1.0000 0.81310  0.79890  0.74710  Biso   1.000  C
  N33      1.0000 0.82790  0.75880  0.77340  Biso   1.000  N
  O137     1.0000 0.94530  0.89400  0.56790  Biso   1.000  O
  O138     1.0000 0.96740  0.82050  0.56680  Biso   1.000  O
  O139     1.0000 0.07190  0.89380  0.44270  Biso   1.000  O
  O140     1.0000 0.06820  0.82020  0.46310  Biso   1.000  O
  C271     1.0000 0.06970  0.85050  0.42590  Biso   1.000  C
  C272     1.0000 0.10160  0.83830  0.38100  Biso   1.000  C
  C273     1.0000 0.10060  0.79050  0.36220  Biso   1.000  C
  C274     1.0000 0.13110  0.87280  0.35800  Biso   1.000  C
  H133     1.0000 0.08180  0.76600  0.37820  Biso   1.000  H
  C275     1.0000 0.12750  0.77850  0.31980  Biso   1.000  C
  C276     1.0000 0.15960  0.86110  0.31610  Biso   1.000  C
  H134     1.0000 0.13230  0.90520  0.37080  Biso   1.000  H
  H135     1.0000 0.12550  0.74630  0.30680  Biso   1.000  H
  C277     1.0000 0.15690  0.81280  0.29680  Biso   1.000  C
  H136     1.0000 0.18010  0.88500  0.30130  Biso   1.000  H
  C278     1.0000 0.18690  0.79890  0.25290  Biso   1.000  C
  N34      1.0000 0.17210  0.75880  0.22660  Biso   1.000  N
  O141     1.0000 0.05470  0.89400  0.43210  Biso   1.000  O
  O142     1.0000 0.03260  0.82050  0.43320  Biso   1.000  O
  O143     1.0000 0.92810  0.10620  0.44270  Biso   1.000  O
  O144     1.0000 0.93180  0.17980  0.46310  Biso   1.000  O
  C279     1.0000 0.93030  0.14950  0.42590  Biso   1.000  C
  C280     1.0000 0.89840  0.16170  0.38100  Biso   1.000  C
  C281     1.0000 0.89940  0.20950  0.36220  Biso   1.000  C
  C282     1.0000 0.86890  0.12720  0.35800  Biso   1.000  C
  H137     1.0000 0.91820  0.23400  0.37820  Biso   1.000  H
  C283     1.0000 0.87250  0.22150  0.31980  Biso   1.000  C
  C284     1.0000 0.84040  0.13890  0.31610  Biso   1.000  C
  H138     1.0000 0.86770  0.09480  0.37080  Biso   1.000  H
  H139     1.0000 0.87450  0.25370  0.30680  Biso   1.000  H
  C285     1.0000 0.84310  0.18720  0.29680  Biso   1.000  C
  H140     1.0000 0.81990  0.11500  0.30130  Biso   1.000  H
  C286     1.0000 0.81310  0.20110  0.25290  Biso   1.000  C
  N35      1.0000 0.82790  0.24120  0.22660  Biso   1.000  N
  O145     1.0000 0.94530  0.10600  0.43210  Biso   1.000  O
  O146     1.0000 0.96740  0.17950  0.43320  Biso   1.000  O
  O147     1.0000 0.07190  0.10620  0.55730  Biso   1.000  O
  O148     1.0000 0.06820  0.17980  0.53690  Biso   1.000  O
  C287     1.0000 0.06970  0.14950  0.57410  Biso   1.000  C
  C288     1.0000 0.10160  0.16170  0.61900  Biso   1.000  C
  C289     1.0000 0.10060  0.20950  0.63780  Biso   1.000  C
  C290     1.0000 0.13110  0.12720  0.64200  Biso   1.000  C
  H141     1.0000 0.08180  0.23400  0.62180  Biso   1.000  H
  C291     1.0000 0.12750  0.22150  0.68020  Biso   1.000  C
  C292     1.0000 0.15960  0.13890  0.68390  Biso   1.000  C
  H142     1.0000 0.13230  0.09480  0.62920  Biso   1.000  H
  H143     1.0000 0.12550  0.25370  0.69320  Biso   1.000  H
  C293     1.0000 0.15690  0.18720  0.70320  Biso   1.000  C
  H144     1.0000 0.18010  0.11500  0.69870  Biso   1.000  H
  C294     1.0000 0.18690  0.20110  0.74710  Biso   1.000  C
  N36      1.0000 0.17210  0.24120  0.77340  Biso   1.000  N
  O149     1.0000 0.05470  0.10600  0.56790  Biso   1.000  O
  O150     1.0000 0.03260  0.17950  0.56680  Biso   1.000  O
  O151     1.0000 0.44270  0.07190  0.10620  Biso   1.000  O
  O152     1.0000 0.46310  0.06820  0.17980  Biso   1.000  O
  C295     1.0000 0.42590  0.06970  0.14950  Biso   1.000  C
  C296     1.0000 0.38100  0.10160  0.16170  Biso   1.000  C
  C297     1.0000 0.36220  0.10060  0.20950  Biso   1.000  C
  C298     1.0000 0.35800  0.13110  0.12720  Biso   1.000  C
  H145     1.0000 0.37820  0.08180  0.23400  Biso   1.000  H
  C299     1.0000 0.31980  0.12750  0.22150  Biso   1.000  C
  C300     1.0000 0.31610  0.15960  0.13890  Biso   1.000  C
  H146     1.0000 0.37080  0.13230  0.09480  Biso   1.000  H
  H147     1.0000 0.30680  0.12550  0.25370  Biso   1.000  H
  C301     1.0000 0.29680  0.15690  0.18720  Biso   1.000  C
  H148     1.0000 0.30130  0.18010  0.11500  Biso   1.000  H
  C302     1.0000 0.25290  0.18690  0.20110  Biso   1.000  C
  N37      1.0000 0.22660  0.17210  0.24120  Biso   1.000  N
  O153     1.0000 0.43210  0.05470  0.10600  Biso   1.000  O
  O154     1.0000 0.43320  0.03260  0.17950  Biso   1.000  O
  O155     1.0000 0.55730  0.92810  0.10620  Biso   1.000  O
  O156     1.0000 0.53690  0.93180  0.17980  Biso   1.000  O
  C303     1.0000 0.57410  0.93030  0.14950  Biso   1.000  C
  C304     1.0000 0.61900  0.89840  0.16170  Biso   1.000  C
  C305     1.0000 0.63780  0.89940  0.20950  Biso   1.000  C
  C306     1.0000 0.64200  0.86890  0.12720  Biso   1.000  C
  H149     1.0000 0.62180  0.91820  0.23400  Biso   1.000  H
  C307     1.0000 0.68020  0.87250  0.22150  Biso   1.000  C
  C308     1.0000 0.68390  0.84040  0.13890  Biso   1.000  C
  H150     1.0000 0.62920  0.86770  0.09480  Biso   1.000  H
  H151     1.0000 0.69320  0.87450  0.25370  Biso   1.000  H
  C309     1.0000 0.70320  0.84310  0.18720  Biso   1.000  C
  H152     1.0000 0.69870  0.81990  0.11500  Biso   1.000  H
  C310     1.0000 0.74710  0.81310  0.20110  Biso   1.000  C
  N38      1.0000 0.77340  0.82790  0.24120  Biso   1.000  N
  O157     1.0000 0.56790  0.94530  0.10600  Biso   1.000  O
  O158     1.0000 0.56680  0.96740  0.17950  Biso   1.000  O
  O159     1.0000 0.55730  0.07190  0.89380  Biso   1.000  O
  O160     1.0000 0.53690  0.06820  0.82020  Biso   1.000  O
  C311     1.0000 0.57410  0.06970  0.85050  Biso   1.000  C
  C312     1.0000 0.61900  0.10160  0.83830  Biso   1.000  C
  C313     1.0000 0.63780  0.10060  0.79050  Biso   1.000  C
  C314     1.0000 0.64200  0.13110  0.87280  Biso   1.000  C
  H153     1.0000 0.62180  0.08180  0.76600  Biso   1.000  H
  C315     1.0000 0.68020  0.12750  0.77850  Biso   1.000  C
  C316     1.0000 0.68390  0.15960  0.86110  Biso   1.000  C
  H154     1.0000 0.62920  0.13230  0.90520  Biso   1.000  H
  H155     1.0000 0.69320  0.12550  0.74630  Biso   1.000  H
  C317     1.0000 0.70320  0.15690  0.81280  Biso   1.000  C
  H156     1.0000 0.69870  0.18010  0.88500  Biso   1.000  H
  C318     1.0000 0.74710  0.18690  0.79890  Biso   1.000  C
  N39      1.0000 0.77340  0.17210  0.75880  Biso   1.000  N
  O161     1.0000 0.56790  0.05470  0.89400  Biso   1.000  O
  O162     1.0000 0.56680  0.03260  0.82050  Biso   1.000  O
  O163     1.0000 0.44270  0.92810  0.89380  Biso   1.000  O
  O164     1.0000 0.46310  0.93180  0.82020  Biso   1.000  O
  C319     1.0000 0.42590  0.93030  0.85050  Biso   1.000  C
  C320     1.0000 0.38100  0.89840  0.83830  Biso   1.000  C
  C321     1.0000 0.36220  0.89940  0.79050  Biso   1.000  C
  C322     1.0000 0.35800  0.86890  0.87280  Biso   1.000  C
  H157     1.0000 0.37820  0.91820  0.76600  Biso   1.000  H
  C323     1.0000 0.31980  0.87250  0.77850  Biso   1.000  C
  C324     1.0000 0.31610  0.84040  0.86110  Biso   1.000  C
  H158     1.0000 0.37080  0.86770  0.90520  Biso   1.000  H
  H159     1.0000 0.30680  0.87450  0.74630  Biso   1.000  H
  C325     1.0000 0.29680  0.84310  0.81280  Biso   1.000  C
  H160     1.0000 0.30130  0.81990  0.88500  Biso   1.000  H
  C326     1.0000 0.25290  0.81310  0.79890  Biso   1.000  C
  N40      1.0000 0.22660  0.82790  0.75880  Biso   1.000  N
  O165     1.0000 0.43210  0.94530  0.89400  Biso   1.000  O
  O166     1.0000 0.43320  0.96740  0.82050  Biso   1.000  O
  O167     1.0000 0.10620  0.44270  0.07190  Biso   1.000  O
  O168     1.0000 0.17980  0.46310  0.06820  Biso   1.000  O
  C327     1.0000 0.14950  0.42590  0.06970  Biso   1.000  C
  C328     1.0000 0.16170  0.38100  0.10160  Biso   1.000  C
  C329     1.0000 0.20950  0.36220  0.10060  Biso   1.000  C
  C330     1.0000 0.12720  0.35800  0.13110  Biso   1.000  C
  H161     1.0000 0.23400  0.37820  0.08180  Biso   1.000  H
  C331     1.0000 0.22150  0.31980  0.12750  Biso   1.000  C
  C332     1.0000 0.13890  0.31610  0.15960  Biso   1.000  C
  H162     1.0000 0.09480  0.37080  0.13230  Biso   1.000  H
  H163     1.0000 0.25370  0.30680  0.12550  Biso   1.000  H
  C333     1.0000 0.18720  0.29680  0.15690  Biso   1.000  C
  H164     1.0000 0.11500  0.30130  0.18010  Biso   1.000  H
  C334     1.0000 0.20110  0.25290  0.18690  Biso   1.000  C
  N41      1.0000 0.24120  0.22660  0.17210  Biso   1.000  N
  O169     1.0000 0.10600  0.43210  0.05470  Biso   1.000  O
  O170     1.0000 0.17950  0.43320  0.03260  Biso   1.000  O
  O171     1.0000 0.10620  0.55730  0.92810  Biso   1.000  O
  O172     1.0000 0.17980  0.53690  0.93180  Biso   1.000  O
  C335     1.0000 0.14950  0.57410  0.93030  Biso   1.000  C
  C336     1.0000 0.16170  0.61900  0.89840  Biso   1.000  C
  C337     1.0000 0.20950  0.63780  0.89940  Biso   1.000  C
  C338     1.0000 0.12720  0.64200  0.86890  Biso   1.000  C
  H165     1.0000 0.23400  0.62180  0.91820  Biso   1.000  H
  C339     1.0000 0.22150  0.68020  0.87250  Biso   1.000  C
  C340     1.0000 0.13890  0.68390  0.84040  Biso   1.000  C
  H166     1.0000 0.09480  0.62920  0.86770  Biso   1.000  H
  H167     1.0000 0.25370  0.69320  0.87450  Biso   1.000  H
  C341     1.0000 0.18720  0.70320  0.84310  Biso   1.000  C
  H168     1.0000 0.11500  0.69870  0.81990  Biso   1.000  H
  C342     1.0000 0.20110  0.74710  0.81310  Biso   1.000  C
  N42      1.0000 0.24120  0.77340  0.82790  Biso   1.000  N
  O173     1.0000 0.10600  0.56790  0.94530  Biso   1.000  O
  O174     1.0000 0.17950  0.56680  0.96740  Biso   1.000  O
  O175     1.0000 0.89380  0.55730  0.07190  Biso   1.000  O
  O176     1.0000 0.82020  0.53690  0.06820  Biso   1.000  O
  C343     1.0000 0.85050  0.57410  0.06970  Biso   1.000  C
  C344     1.0000 0.83830  0.61900  0.10160  Biso   1.000  C
  C345     1.0000 0.79050  0.63780  0.10060  Biso   1.000  C
  C346     1.0000 0.87280  0.64200  0.13110  Biso   1.000  C
  H169     1.0000 0.76600  0.62180  0.08180  Biso   1.000  H
  C347     1.0000 0.77850  0.68020  0.12750  Biso   1.000  C
  C348     1.0000 0.86110  0.68390  0.15960  Biso   1.000  C
  H170     1.0000 0.90520  0.62920  0.13230  Biso   1.000  H
  H171     1.0000 0.74630  0.69320  0.12550  Biso   1.000  H
  C349     1.0000 0.81280  0.70320  0.15690  Biso   1.000  C
  H172     1.0000 0.88500  0.69870  0.18010  Biso   1.000  H
  C350     1.0000 0.79890  0.74710  0.18690  Biso   1.000  C
  N43      1.0000 0.75880  0.77340  0.17210  Biso   1.000  N
  O177     1.0000 0.89400  0.56790  0.05470  Biso   1.000  O
  O178     1.0000 0.82050  0.56680  0.03260  Biso   1.000  O
  O179     1.0000 0.89380  0.44270  0.92810  Biso   1.000  O
  O180     1.0000 0.82020  0.46310  0.93180  Biso   1.000  O
  C351     1.0000 0.85050  0.42590  0.93030  Biso   1.000  C
  C352     1.0000 0.83830  0.38100  0.89840  Biso   1.000  C
  C353     1.0000 0.79050  0.36220  0.89940  Biso   1.000  C
  C354     1.0000 0.87280  0.35800  0.86890  Biso   1.000  C
  H173     1.0000 0.76600  0.37820  0.91820  Biso   1.000  H
  C355     1.0000 0.77850  0.31980  0.87250  Biso   1.000  C
  C356     1.0000 0.86110  0.31610  0.84040  Biso   1.000  C
  H174     1.0000 0.90520  0.37080  0.86770  Biso   1.000  H
  H175     1.0000 0.74630  0.30680  0.87450  Biso   1.000  H
  C357     1.0000 0.81280  0.29680  0.84310  Biso   1.000  C
  H176     1.0000 0.88500  0.30130  0.81990  Biso   1.000  H
  C358     1.0000 0.79890  0.25290  0.81310  Biso   1.000  C
  N44      1.0000 0.75880  0.22660  0.82790  Biso   1.000  N
  O181     1.0000 0.89400  0.43210  0.94530  Biso   1.000  O
  O182     1.0000 0.82050  0.43320  0.96740  Biso   1.000  O
  O183     1.0000 0.07190  0.10620  0.44270  Biso   1.000  O
  O184     1.0000 0.06820  0.17980  0.46310  Biso   1.000  O
  C359     1.0000 0.06970  0.14950  0.42590  Biso   1.000  C
  C360     1.0000 0.10160  0.16170  0.38100  Biso   1.000  C
  C361     1.0000 0.10060  0.20950  0.36220  Biso   1.000  C
  C362     1.0000 0.13110  0.12720  0.35800  Biso   1.000  C
  H177     1.0000 0.08180  0.23400  0.37820  Biso   1.000  H
  C363     1.0000 0.12750  0.22150  0.31980  Biso   1.000  C
  C364     1.0000 0.15960  0.13890  0.31610  Biso   1.000  C
  H178     1.0000 0.13230  0.09480  0.37080  Biso   1.000  H
  H179     1.0000 0.12550  0.25370  0.30680  Biso   1.000  H
  C365     1.0000 0.15690  0.18720  0.29680  Biso   1.000  C
  H180     1.0000 0.18010  0.11500  0.30130  Biso   1.000  H
  C366     1.0000 0.18690  0.20110  0.25290  Biso   1.000  C
  N45      1.0000 0.17210  0.24120  0.22660  Biso   1.000  N
  O185     1.0000 0.05470  0.10600  0.43210  Biso   1.000  O
  O186     1.0000 0.03260  0.17950  0.43320  Biso   1.000  O
  O187     1.0000 0.92810  0.10620  0.55730  Biso   1.000  O
  O188     1.0000 0.93180  0.17980  0.53690  Biso   1.000  O
  C367     1.0000 0.93030  0.14950  0.57410  Biso   1.000  C
  C368     1.0000 0.89840  0.16170  0.61900  Biso   1.000  C
  C369     1.0000 0.89940  0.20950  0.63780  Biso   1.000  C
  C370     1.0000 0.86890  0.12720  0.64200  Biso   1.000  C
  H181     1.0000 0.91820  0.23400  0.62180  Biso   1.000  H
  C371     1.0000 0.87250  0.22150  0.68020  Biso   1.000  C
  C372     1.0000 0.84040  0.13890  0.68390  Biso   1.000  C
  H182     1.0000 0.86770  0.09480  0.62920  Biso   1.000  H
  H183     1.0000 0.87450  0.25370  0.69320  Biso   1.000  H
  C373     1.0000 0.84310  0.18720  0.70320  Biso   1.000  C
  H184     1.0000 0.81990  0.11500  0.69870  Biso   1.000  H
  C374     1.0000 0.81310  0.20110  0.74710  Biso   1.000  C
  N46      1.0000 0.82790  0.24120  0.77340  Biso   1.000  N
  O189     1.0000 0.94530  0.10600  0.56790  Biso   1.000  O
  O190     1.0000 0.96740  0.17950  0.56680  Biso   1.000  O
  O191     1.0000 0.07190  0.89380  0.55730  Biso   1.000  O
  O192     1.0000 0.06820  0.82020  0.53690  Biso   1.000  O
  C375     1.0000 0.06970  0.85050  0.57410  Biso   1.000  C
  C376     1.0000 0.10160  0.83830  0.61900  Biso   1.000  C
  C377     1.0000 0.10060  0.79050  0.63780  Biso   1.000  C
  C378     1.0000 0.13110  0.87280  0.64200  Biso   1.000  C
  H185     1.0000 0.08180  0.76600  0.62180  Biso   1.000  H
  C379     1.0000 0.12750  0.77850  0.68020  Biso   1.000  C
  C380     1.0000 0.15960  0.86110  0.68390  Biso   1.000  C
  H186     1.0000 0.13230  0.90520  0.62920  Biso   1.000  H
  H187     1.0000 0.12550  0.74630  0.69320  Biso   1.000  H
  C381     1.0000 0.15690  0.81280  0.70320  Biso   1.000  C
  H188     1.0000 0.18010  0.88500  0.69870  Biso   1.000  H
  C382     1.0000 0.18690  0.79890  0.74710  Biso   1.000  C
  N47      1.0000 0.17210  0.75880  0.77340  Biso   1.000  N
  O193     1.0000 0.05470  0.89400  0.56790  Biso   1.000  O
  O194     1.0000 0.03260  0.82050  0.56680  Biso   1.000  O
  O195     1.0000 0.92810  0.89380  0.44270  Biso   1.000  O
  O196     1.0000 0.93180  0.82020  0.46310  Biso   1.000  O
  C383     1.0000 0.93030  0.85050  0.42590  Biso   1.000  C
  C384     1.0000 0.89840  0.83830  0.38100  Biso   1.000  C
  C385     1.0000 0.89940  0.79050  0.36220  Biso   1.000  C
  C386     1.0000 0.86890  0.87280  0.35800  Biso   1.000  C
  H189     1.0000 0.91820  0.76600  0.37820  Biso   1.000  H
  C387     1.0000 0.87250  0.77850  0.31980  Biso   1.000  C
  C388     1.0000 0.84040  0.86110  0.31610  Biso   1.000  C
  H190     1.0000 0.86770  0.90520  0.37080  Biso   1.000  H
  H191     1.0000 0.87450  0.74630  0.30680  Biso   1.000  H
  C389     1.0000 0.84310  0.81280  0.29680  Biso   1.000  C
  H192     1.0000 0.81990  0.88500  0.30130  Biso   1.000  H
  C390     1.0000 0.81310  0.79890  0.25290  Biso   1.000  C
  N48      1.0000 0.82790  0.75880  0.22660  Biso   1.000  N
  O197     1.0000 0.94530  0.89400  0.43210  Biso   1.000  O
  O198     1.0000 0.96740  0.82050  0.43320  Biso   1.000  O
  Tb7      1.0000 0.50000  0.00000  0.87297  Biso   1.000  Tb
  O199     1.0000 0.50000  0.00000  0.95770  Biso   1.000  O
  Tb8      1.0000 0.50000  0.00000  0.12703  Biso   1.000  Tb
  O200     1.0000 0.50000  0.00000  0.04230  Biso   1.000  O
  Tb9      1.0000 0.87297  0.50000  0.00000  Biso   1.000  Tb
  O201     1.0000 0.95770  0.50000  0.00000  Biso   1.000  O
  Tb10     1.0000 0.12703  0.50000  0.00000  Biso   1.000  Tb
  O202     1.0000 0.04230  0.50000  0.00000  Biso   1.000  O
  Tb11     1.0000 0.00000  0.87297  0.50000  Biso   1.000  Tb
  O203     1.0000 0.00000  0.95770  0.50000  Biso   1.000  O
  Tb12     1.0000 0.00000  0.12703  0.50000  Biso   1.000  Tb
  O204     1.0000 0.00000  0.04230  0.50000  Biso   1.000  O
  C391     1.0000 0.51750  0.00000  0.00000  Biso   1.000  C
  C392     1.0000 0.48250  0.00000  0.00000  Biso   1.000  C
  C393     1.0000 0.00000  0.51750  0.00000  Biso   1.000  C
  C394     1.0000 0.00000  0.48250  0.00000  Biso   1.000  C
  C395     1.0000 0.00000  0.00000  0.51750  Biso   1.000  C
  C396     1.0000 0.00000  0.00000  0.48250  Biso   1.000  C
