data_image0
_cell_length_a       18.554
_cell_length_b       18.554
_cell_length_c       38.822
_cell_angle_alpha    90
_cell_angle_beta     90
_cell_angle_gamma    120

_symmetry_space_group_name_H-M    "P 1"
_symmetry_int_tables_number       1

loop_
  _symmetry_equiv_pos_as_xyz
  'x, y, z'

loop_
  _atom_site_label
  _atom_site_occupancy
  _atom_site_fract_x
  _atom_site_fract_y
  _atom_site_fract_z
  _atom_site_thermal_displace_type
  _atom_site_B_iso_or_equiv
  _atom_site_type_symbol
  C1       1.0000 0.97470  0.21520  0.19350  Biso   1.000  C
  O1       1.0000 0.96320  0.18580  0.16354  Biso   1.000  O
  O2       1.0000 0.92080  0.22430  0.21047  Biso   1.000  O
  C2       1.0000 0.05210  0.23470  0.21010  Biso   1.000  C
  C3       1.0000 0.06510  0.26250  0.24390  Biso   1.000  C
  H1       1.0000 0.03010  0.27900  0.25380  Biso   1.000  H
  C4       1.0000 0.10290  0.28500  0.32050  Biso   1.000  C
  H2       1.0000 0.05190  0.23790  0.31270  Biso   1.000  H
  C5       1.0000 0.11370  0.30800  0.35480  Biso   1.000  C
  H3       1.0000 0.06980  0.27610  0.37100  Biso   1.000  H
  C6       1.0000 0.24940  0.42200  0.34220  Biso   1.000  C
  C7       1.0000 0.23780  0.40000  0.30760  Biso   1.000  C
  Se1      1.0000 0.38620  0.50860  0.31080  Biso   1.000  Se
  N1       1.0000 0.29670  0.43400  0.28490  Biso   1.000  N
  N2       1.0000 0.32370  0.48200  0.35080  Biso   1.000  N
  C8       1.0000 0.64137  0.54853  0.52683  Biso   1.000  C
  O3       1.0000 0.62987  0.51913  0.49687  Biso   1.000  O
  O4       1.0000 0.58747  0.55763  0.54380  Biso   1.000  O
  C9       1.0000 0.71877  0.56803  0.54343  Biso   1.000  C
  C10      1.0000 0.73177  0.59583  0.57723  Biso   1.000  C
  H4       1.0000 0.69677  0.61233  0.58713  Biso   1.000  H
  C11      1.0000 0.76957  0.61833  0.65383  Biso   1.000  C
  H5       1.0000 0.71857  0.57123  0.64603  Biso   1.000  H
  C12      1.0000 0.78037  0.64133  0.68813  Biso   1.000  C
  H6       1.0000 0.73647  0.60943  0.70433  Biso   1.000  H
  C13      1.0000 0.91607  0.75533  0.67553  Biso   1.000  C
  C14      1.0000 0.90447  0.73333  0.64093  Biso   1.000  C
  Se2      1.0000 0.05287  0.84193  0.64413  Biso   1.000  Se
  N3       1.0000 0.96337  0.76733  0.61823  Biso   1.000  N
  N4       1.0000 0.99037  0.81533  0.68413  Biso   1.000  N
  C15      1.0000 0.30803  0.88187  0.86017  Biso   1.000  C
  O5       1.0000 0.29653  0.85247  0.83021  Biso   1.000  O
  O6       1.0000 0.25413  0.89097  0.87714  Biso   1.000  O
  C16      1.0000 0.38543  0.90137  0.87677  Biso   1.000  C
  C17      1.0000 0.39843  0.92917  0.91057  Biso   1.000  C
  H7       1.0000 0.36343  0.94567  0.92047  Biso   1.000  H
  C18      1.0000 0.43623  0.95167  0.98717  Biso   1.000  C
  H8       1.0000 0.38523  0.90457  0.97937  Biso   1.000  H
  C19      1.0000 0.44703  0.97467  0.02147  Biso   1.000  C
  H9       1.0000 0.40313  0.94277  0.03767  Biso   1.000  H
  C20      1.0000 0.58273  0.08867  0.00887  Biso   1.000  C
  C21      1.0000 0.57113  0.06667  0.97427  Biso   1.000  C
  Se3      1.0000 0.71953  0.17527  0.97747  Biso   1.000  Se
  N5       1.0000 0.63003  0.10067  0.95157  Biso   1.000  N
  N6       1.0000 0.65703  0.14867  0.01747  Biso   1.000  N
  C22      1.0000 0.78480  0.75950  0.19350  Biso   1.000  C
  O7       1.0000 0.81420  0.77740  0.16354  Biso   1.000  O
  O8       1.0000 0.77570  0.69650  0.21047  Biso   1.000  O
  C23      1.0000 0.76530  0.81740  0.21010  Biso   1.000  C
  C24      1.0000 0.73750  0.80260  0.24390  Biso   1.000  C
  H10      1.0000 0.72100  0.75110  0.25380  Biso   1.000  H
  C25      1.0000 0.71500  0.81790  0.32050  Biso   1.000  C
  H11      1.0000 0.76210  0.81400  0.31270  Biso   1.000  H
  C26      1.0000 0.69200  0.80570  0.35480  Biso   1.000  C
  H12      1.0000 0.72390  0.79370  0.37100  Biso   1.000  H
  C27      1.0000 0.57800  0.82740  0.34220  Biso   1.000  C
  C28      1.0000 0.60000  0.83780  0.30760  Biso   1.000  C
  Se4      1.0000 0.49140  0.87760  0.31080  Biso   1.000  Se
  N7       1.0000 0.56600  0.86270  0.28490  Biso   1.000  N
  N8       1.0000 0.51800  0.84170  0.35080  Biso   1.000  N
  C29      1.0000 0.45147  0.09283  0.52683  Biso   1.000  C
  O9       1.0000 0.48087  0.11073  0.49687  Biso   1.000  O
  O10      1.0000 0.44237  0.02983  0.54380  Biso   1.000  O
  C30      1.0000 0.43197  0.15073  0.54343  Biso   1.000  C
  C31      1.0000 0.40417  0.13593  0.57723  Biso   1.000  C
  H13      1.0000 0.38767  0.08443  0.58713  Biso   1.000  H
  C32      1.0000 0.38167  0.15123  0.65383  Biso   1.000  C
  H14      1.0000 0.42877  0.14733  0.64603  Biso   1.000  H
  C33      1.0000 0.35867  0.13903  0.68813  Biso   1.000  C
  H15      1.0000 0.39057  0.12703  0.70433  Biso   1.000  H
  C34      1.0000 0.24467  0.16073  0.67553  Biso   1.000  C
  C35      1.0000 0.26667  0.17113  0.64093  Biso   1.000  C
  Se5      1.0000 0.15807  0.21093  0.64413  Biso   1.000  Se
  N9       1.0000 0.23267  0.19603  0.61823  Biso   1.000  N
  N10      1.0000 0.18467  0.17503  0.68413  Biso   1.000  N
  C36      1.0000 0.11813  0.42617  0.86017  Biso   1.000  C
  O11      1.0000 0.14753  0.44407  0.83021  Biso   1.000  O
  O12      1.0000 0.10903  0.36317  0.87714  Biso   1.000  O
  C37      1.0000 0.09863  0.48407  0.87677  Biso   1.000  C
  C38      1.0000 0.07083  0.46927  0.91057  Biso   1.000  C
  H16      1.0000 0.05433  0.41777  0.92047  Biso   1.000  H
  C39      1.0000 0.04833  0.48457  0.98717  Biso   1.000  C
  H17      1.0000 0.09543  0.48067  0.97937  Biso   1.000  H
  C40      1.0000 0.02533  0.47237  0.02147  Biso   1.000  C
  H18      1.0000 0.05723  0.46037  0.03767  Biso   1.000  H
  C41      1.0000 0.91133  0.49407  0.00887  Biso   1.000  C
  C42      1.0000 0.93333  0.50447  0.97427  Biso   1.000  C
  Se6      1.0000 0.82473  0.54427  0.97747  Biso   1.000  Se
  N11      1.0000 0.89933  0.52937  0.95157  Biso   1.000  N
  N12      1.0000 0.85133  0.50837  0.01747  Biso   1.000  N
  C43      1.0000 0.24050  0.02530  0.19350  Biso   1.000  C
  O13      1.0000 0.22260  0.03680  0.16354  Biso   1.000  O
  O14      1.0000 0.30350  0.07920  0.21047  Biso   1.000  O
  C44      1.0000 0.18260  0.94790  0.21010  Biso   1.000  C
  C45      1.0000 0.19740  0.93490  0.24390  Biso   1.000  C
  H19      1.0000 0.24890  0.96990  0.25380  Biso   1.000  H
  C46      1.0000 0.18210  0.89710  0.32050  Biso   1.000  C
  H20      1.0000 0.18600  0.94810  0.31270  Biso   1.000  H
  C47      1.0000 0.19430  0.88630  0.35480  Biso   1.000  C
  H21      1.0000 0.20630  0.93020  0.37100  Biso   1.000  H
  C48      1.0000 0.17260  0.75060  0.34220  Biso   1.000  C
  C49      1.0000 0.16220  0.76220  0.30760  Biso   1.000  C
  Se7      1.0000 0.12240  0.61380  0.31080  Biso   1.000  Se
  N13      1.0000 0.13730  0.70330  0.28490  Biso   1.000  N
  N14      1.0000 0.15830  0.67630  0.35080  Biso   1.000  N
  C50      1.0000 0.90717  0.35863  0.52683  Biso   1.000  C
  O15      1.0000 0.88927  0.37013  0.49687  Biso   1.000  O
  O16      1.0000 0.97017  0.41253  0.54380  Biso   1.000  O
  C51      1.0000 0.84927  0.28123  0.54343  Biso   1.000  C
  C52      1.0000 0.86407  0.26823  0.57723  Biso   1.000  C
  H22      1.0000 0.91557  0.30323  0.58713  Biso   1.000  H
  C53      1.0000 0.84877  0.23043  0.65383  Biso   1.000  C
  H23      1.0000 0.85267  0.28143  0.64603  Biso   1.000  H
  C54      1.0000 0.86097  0.21963  0.68813  Biso   1.000  C
  H24      1.0000 0.87297  0.26353  0.70433  Biso   1.000  H
  C55      1.0000 0.83927  0.08393  0.67553  Biso   1.000  C
  C56      1.0000 0.82887  0.09553  0.64093  Biso   1.000  C
  Se8      1.0000 0.78907  0.94713  0.64413  Biso   1.000  Se
  N15      1.0000 0.80397  0.03663  0.61823  Biso   1.000  N
  N16      1.0000 0.82497  0.00963  0.68413  Biso   1.000  N
  C57      1.0000 0.57383  0.69197  0.86017  Biso   1.000  C
  O17      1.0000 0.55593  0.70347  0.83021  Biso   1.000  O
  O18      1.0000 0.63683  0.74587  0.87714  Biso   1.000  O
  C58      1.0000 0.51593  0.61457  0.87677  Biso   1.000  C
  C59      1.0000 0.53073  0.60157  0.91057  Biso   1.000  C
  H25      1.0000 0.58223  0.63657  0.92047  Biso   1.000  H
  C60      1.0000 0.51543  0.56377  0.98717  Biso   1.000  C
  H26      1.0000 0.51933  0.61477  0.97937  Biso   1.000  H
  C61      1.0000 0.52763  0.55297  0.02147  Biso   1.000  C
  H27      1.0000 0.53963  0.59687  0.03767  Biso   1.000  H
  C62      1.0000 0.50593  0.41727  0.00887  Biso   1.000  C
  C63      1.0000 0.49553  0.42887  0.97427  Biso   1.000  C
  Se9      1.0000 0.45573  0.28047  0.97747  Biso   1.000  Se
  N17      1.0000 0.47063  0.36997  0.95157  Biso   1.000  N
  N18      1.0000 0.49163  0.34297  0.01747  Biso   1.000  N
  C64      1.0000 0.21520  0.97470  0.80650  Biso   1.000  C
  O19      1.0000 0.18580  0.96320  0.83646  Biso   1.000  O
  O20      1.0000 0.22430  0.92080  0.78953  Biso   1.000  O
  C65      1.0000 0.23470  0.05210  0.78990  Biso   1.000  C
  C66      1.0000 0.26250  0.06510  0.75610  Biso   1.000  C
  H28      1.0000 0.27900  0.03010  0.74620  Biso   1.000  H
  C67      1.0000 0.28500  0.10290  0.67950  Biso   1.000  C
  H29      1.0000 0.23790  0.05190  0.68730  Biso   1.000  H
  C68      1.0000 0.30800  0.11370  0.64520  Biso   1.000  C
  H30      1.0000 0.27610  0.06980  0.62900  Biso   1.000  H
  C69      1.0000 0.42200  0.24940  0.65780  Biso   1.000  C
  C70      1.0000 0.40000  0.23780  0.69240  Biso   1.000  C
  Se10     1.0000 0.50860  0.38620  0.68920  Biso   1.000  Se
  N19      1.0000 0.43400  0.29670  0.71510  Biso   1.000  N
  N20      1.0000 0.48200  0.32370  0.64920  Biso   1.000  N
  C71      1.0000 0.88187  0.30803  0.13983  Biso   1.000  C
  O21      1.0000 0.85247  0.29653  0.16979  Biso   1.000  O
  O22      1.0000 0.89097  0.25413  0.12286  Biso   1.000  O
  C72      1.0000 0.90137  0.38543  0.12323  Biso   1.000  C
  C73      1.0000 0.92917  0.39843  0.08943  Biso   1.000  C
  H31      1.0000 0.94567  0.36343  0.07953  Biso   1.000  H
  C74      1.0000 0.95167  0.43623  0.01283  Biso   1.000  C
  H32      1.0000 0.90457  0.38523  0.02063  Biso   1.000  H
  C75      1.0000 0.97467  0.44703  0.97853  Biso   1.000  C
  H33      1.0000 0.94277  0.40313  0.96233  Biso   1.000  H
  C76      1.0000 0.08867  0.58273  0.99113  Biso   1.000  C
  C77      1.0000 0.06667  0.57113  0.02573  Biso   1.000  C
  Se11     1.0000 0.17527  0.71953  0.02253  Biso   1.000  Se
  N21      1.0000 0.10067  0.63003  0.04843  Biso   1.000  N
  N22      1.0000 0.14867  0.65703  0.98253  Biso   1.000  N
  C78      1.0000 0.54853  0.64137  0.47317  Biso   1.000  C
  O23      1.0000 0.51913  0.62987  0.50313  Biso   1.000  O
  O24      1.0000 0.55763  0.58747  0.45620  Biso   1.000  O
  C79      1.0000 0.56803  0.71877  0.45657  Biso   1.000  C
  C80      1.0000 0.59583  0.73177  0.42277  Biso   1.000  C
  H34      1.0000 0.61233  0.69677  0.41287  Biso   1.000  H
  C81      1.0000 0.61833  0.76957  0.34617  Biso   1.000  C
  H35      1.0000 0.57123  0.71857  0.35397  Biso   1.000  H
  C82      1.0000 0.64133  0.78037  0.31187  Biso   1.000  C
  H36      1.0000 0.60943  0.73647  0.29567  Biso   1.000  H
  C83      1.0000 0.75533  0.91607  0.32447  Biso   1.000  C
  C84      1.0000 0.73333  0.90447  0.35907  Biso   1.000  C
  Se12     1.0000 0.84193  0.05287  0.35587  Biso   1.000  Se
  N23      1.0000 0.76733  0.96337  0.38177  Biso   1.000  N
  N24      1.0000 0.81533  0.99037  0.31587  Biso   1.000  N
  C85      1.0000 0.75950  0.78480  0.80650  Biso   1.000  C
  O25      1.0000 0.77740  0.81420  0.83646  Biso   1.000  O
  O26      1.0000 0.69650  0.77570  0.78953  Biso   1.000  O
  C86      1.0000 0.81740  0.76530  0.78990  Biso   1.000  C
  C87      1.0000 0.80260  0.73750  0.75610  Biso   1.000  C
  H37      1.0000 0.75110  0.72100  0.74620  Biso   1.000  H
  C88      1.0000 0.81790  0.71500  0.67950  Biso   1.000  C
  H38      1.0000 0.81400  0.76210  0.68730  Biso   1.000  H
  C89      1.0000 0.80570  0.69200  0.64520  Biso   1.000  C
  H39      1.0000 0.79370  0.72390  0.62900  Biso   1.000  H
  C90      1.0000 0.82740  0.57800  0.65780  Biso   1.000  C
  C91      1.0000 0.83780  0.60000  0.69240  Biso   1.000  C
  Se13     1.0000 0.87760  0.49140  0.68920  Biso   1.000  Se
  N25      1.0000 0.86270  0.56600  0.71510  Biso   1.000  N
  N26      1.0000 0.84170  0.51800  0.64920  Biso   1.000  N
  C92      1.0000 0.42617  0.11813  0.13983  Biso   1.000  C
  O27      1.0000 0.44407  0.14753  0.16979  Biso   1.000  O
  O28      1.0000 0.36317  0.10903  0.12286  Biso   1.000  O
  C93      1.0000 0.48407  0.09863  0.12323  Biso   1.000  C
  C94      1.0000 0.46927  0.07083  0.08943  Biso   1.000  C
  H40      1.0000 0.41777  0.05433  0.07953  Biso   1.000  H
  C95      1.0000 0.48457  0.04833  0.01283  Biso   1.000  C
  H41      1.0000 0.48067  0.09543  0.02063  Biso   1.000  H
  C96      1.0000 0.47237  0.02533  0.97853  Biso   1.000  C
  H42      1.0000 0.46037  0.05723  0.96233  Biso   1.000  H
  C97      1.0000 0.49407  0.91133  0.99113  Biso   1.000  C
  C98      1.0000 0.50447  0.93333  0.02573  Biso   1.000  C
  Se14     1.0000 0.54427  0.82473  0.02253  Biso   1.000  Se
  N27      1.0000 0.52937  0.89933  0.04843  Biso   1.000  N
  N28      1.0000 0.50837  0.85133  0.98253  Biso   1.000  N
  C99      1.0000 0.09283  0.45147  0.47317  Biso   1.000  C
  O29      1.0000 0.11073  0.48087  0.50313  Biso   1.000  O
  O30      1.0000 0.02983  0.44237  0.45620  Biso   1.000  O
  C100     1.0000 0.15073  0.43197  0.45657  Biso   1.000  C
  C101     1.0000 0.13593  0.40417  0.42277  Biso   1.000  C
  H43      1.0000 0.08443  0.38767  0.41287  Biso   1.000  H
  C102     1.0000 0.15123  0.38167  0.34617  Biso   1.000  C
  H44      1.0000 0.14733  0.42877  0.35397  Biso   1.000  H
  C103     1.0000 0.13903  0.35867  0.31187  Biso   1.000  C
  H45      1.0000 0.12703  0.39057  0.29567  Biso   1.000  H
  C104     1.0000 0.16073  0.24467  0.32447  Biso   1.000  C
  C105     1.0000 0.17113  0.26667  0.35907  Biso   1.000  C
  Se15     1.0000 0.21093  0.15807  0.35587  Biso   1.000  Se
  N29      1.0000 0.19603  0.23267  0.38177  Biso   1.000  N
  N30      1.0000 0.17503  0.18467  0.31587  Biso   1.000  N
  C106     1.0000 0.02530  0.24050  0.80650  Biso   1.000  C
  O31      1.0000 0.03680  0.22260  0.83646  Biso   1.000  O
  O32      1.0000 0.07920  0.30350  0.78953  Biso   1.000  O
  C107     1.0000 0.94790  0.18260  0.78990  Biso   1.000  C
  C108     1.0000 0.93490  0.19740  0.75610  Biso   1.000  C
  H46      1.0000 0.96990  0.24890  0.74620  Biso   1.000  H
  C109     1.0000 0.89710  0.18210  0.67950  Biso   1.000  C
  H47      1.0000 0.94810  0.18600  0.68730  Biso   1.000  H
  C110     1.0000 0.88630  0.19430  0.64520  Biso   1.000  C
  H48      1.0000 0.93020  0.20630  0.62900  Biso   1.000  H
  C111     1.0000 0.75060  0.17260  0.65780  Biso   1.000  C
  C112     1.0000 0.76220  0.16220  0.69240  Biso   1.000  C
  Se16     1.0000 0.61380  0.12240  0.68920  Biso   1.000  Se
  N31      1.0000 0.70330  0.13730  0.71510  Biso   1.000  N
  N32      1.0000 0.67630  0.15830  0.64920  Biso   1.000  N
  C113     1.0000 0.69197  0.57383  0.13983  Biso   1.000  C
  O33      1.0000 0.70347  0.55593  0.16979  Biso   1.000  O
  O34      1.0000 0.74587  0.63683  0.12286  Biso   1.000  O
  C114     1.0000 0.61457  0.51593  0.12323  Biso   1.000  C
  C115     1.0000 0.60157  0.53073  0.08943  Biso   1.000  C
  H49      1.0000 0.63657  0.58223  0.07953  Biso   1.000  H
  C116     1.0000 0.56377  0.51543  0.01283  Biso   1.000  C
  H50      1.0000 0.61477  0.51933  0.02063  Biso   1.000  H
  C117     1.0000 0.55297  0.52763  0.97853  Biso   1.000  C
  H51      1.0000 0.59687  0.53963  0.96233  Biso   1.000  H
  C118     1.0000 0.41727  0.50593  0.99113  Biso   1.000  C
  C119     1.0000 0.42887  0.49553  0.02573  Biso   1.000  C
  Se17     1.0000 0.28047  0.45573  0.02253  Biso   1.000  Se
  N33      1.0000 0.36997  0.47063  0.04843  Biso   1.000  N
  N34      1.0000 0.34297  0.49163  0.98253  Biso   1.000  N
  C120     1.0000 0.35863  0.90717  0.47317  Biso   1.000  C
  O35      1.0000 0.37013  0.88927  0.50313  Biso   1.000  O
  O36      1.0000 0.41253  0.97017  0.45620  Biso   1.000  O
  C121     1.0000 0.28123  0.84927  0.45657  Biso   1.000  C
  C122     1.0000 0.26823  0.86407  0.42277  Biso   1.000  C
  H52      1.0000 0.30323  0.91557  0.41287  Biso   1.000  H
  C123     1.0000 0.23043  0.84877  0.34617  Biso   1.000  C
  H53      1.0000 0.28143  0.85267  0.35397  Biso   1.000  H
  C124     1.0000 0.21963  0.86097  0.31187  Biso   1.000  C
  H54      1.0000 0.26353  0.87297  0.29567  Biso   1.000  H
  C125     1.0000 0.08393  0.83927  0.32447  Biso   1.000  C
  C126     1.0000 0.09553  0.82887  0.35907  Biso   1.000  C
  Se18     1.0000 0.94713  0.78907  0.35587  Biso   1.000  Se
  N35      1.0000 0.03663  0.80397  0.38177  Biso   1.000  N
  N36      1.0000 0.00963  0.82497  0.31587  Biso   1.000  N
  C127     1.0000 0.02530  0.78480  0.80650  Biso   1.000  C
  O37      1.0000 0.03680  0.81420  0.83646  Biso   1.000  O
  O38      1.0000 0.07920  0.77570  0.78953  Biso   1.000  O
  C128     1.0000 0.94790  0.76530  0.78990  Biso   1.000  C
  C129     1.0000 0.93490  0.73750  0.75610  Biso   1.000  C
  H55      1.0000 0.96990  0.72100  0.74620  Biso   1.000  H
  C130     1.0000 0.89710  0.71500  0.67950  Biso   1.000  C
  H56      1.0000 0.94810  0.76210  0.68730  Biso   1.000  H
  C131     1.0000 0.88630  0.69200  0.64520  Biso   1.000  C
  H57      1.0000 0.93020  0.72390  0.62900  Biso   1.000  H
  C132     1.0000 0.75060  0.57800  0.65780  Biso   1.000  C
  C133     1.0000 0.76220  0.60000  0.69240  Biso   1.000  C
  Se19     1.0000 0.61380  0.49140  0.68920  Biso   1.000  Se
  N37      1.0000 0.70330  0.56600  0.71510  Biso   1.000  N
  N38      1.0000 0.67630  0.51800  0.64920  Biso   1.000  N
  C134     1.0000 0.69197  0.11813  0.13983  Biso   1.000  C
  O39      1.0000 0.70347  0.14753  0.16979  Biso   1.000  O
  O40      1.0000 0.74587  0.10903  0.12286  Biso   1.000  O
  C135     1.0000 0.61457  0.09863  0.12323  Biso   1.000  C
  C136     1.0000 0.60157  0.07083  0.08943  Biso   1.000  C
  H58      1.0000 0.63657  0.05433  0.07953  Biso   1.000  H
  C137     1.0000 0.56377  0.04833  0.01283  Biso   1.000  C
  H59      1.0000 0.61477  0.09543  0.02063  Biso   1.000  H
  C138     1.0000 0.55297  0.02533  0.97853  Biso   1.000  C
  H60      1.0000 0.59687  0.05723  0.96233  Biso   1.000  H
  C139     1.0000 0.41727  0.91133  0.99113  Biso   1.000  C
  C140     1.0000 0.42887  0.93333  0.02573  Biso   1.000  C
  Se20     1.0000 0.28047  0.82473  0.02253  Biso   1.000  Se
  N39      1.0000 0.36997  0.89933  0.04843  Biso   1.000  N
  N40      1.0000 0.34297  0.85133  0.98253  Biso   1.000  N
  C141     1.0000 0.35863  0.45147  0.47317  Biso   1.000  C
  O41      1.0000 0.37013  0.48087  0.50313  Biso   1.000  O
  O42      1.0000 0.41253  0.44237  0.45620  Biso   1.000  O
  C142     1.0000 0.28123  0.43197  0.45657  Biso   1.000  C
  C143     1.0000 0.26823  0.40417  0.42277  Biso   1.000  C
  H61      1.0000 0.30323  0.38767  0.41287  Biso   1.000  H
  C144     1.0000 0.23043  0.38167  0.34617  Biso   1.000  C
  H62      1.0000 0.28143  0.42877  0.35397  Biso   1.000  H
  C145     1.0000 0.21963  0.35867  0.31187  Biso   1.000  C
  H63      1.0000 0.26353  0.39057  0.29567  Biso   1.000  H
  C146     1.0000 0.08393  0.24467  0.32447  Biso   1.000  C
  C147     1.0000 0.09553  0.26667  0.35907  Biso   1.000  C
  Se21     1.0000 0.94713  0.15807  0.35587  Biso   1.000  Se
  N41      1.0000 0.03663  0.23267  0.38177  Biso   1.000  N
  N42      1.0000 0.00963  0.18467  0.31587  Biso   1.000  N
  C148     1.0000 0.21520  0.24050  0.80650  Biso   1.000  C
  O43      1.0000 0.18580  0.22260  0.83646  Biso   1.000  O
  O44      1.0000 0.22430  0.30350  0.78953  Biso   1.000  O
  C149     1.0000 0.23470  0.18260  0.78990  Biso   1.000  C
  C150     1.0000 0.26250  0.19740  0.75610  Biso   1.000  C
  H64      1.0000 0.27900  0.24890  0.74620  Biso   1.000  H
  C151     1.0000 0.28500  0.18210  0.67950  Biso   1.000  C
  H65      1.0000 0.23790  0.18600  0.68730  Biso   1.000  H
  C152     1.0000 0.30800  0.19430  0.64520  Biso   1.000  C
  H66      1.0000 0.27610  0.20630  0.62900  Biso   1.000  H
  C153     1.0000 0.42200  0.17260  0.65780  Biso   1.000  C
  C154     1.0000 0.40000  0.16220  0.69240  Biso   1.000  C
  Se22     1.0000 0.50860  0.12240  0.68920  Biso   1.000  Se
  N43      1.0000 0.43400  0.13730  0.71510  Biso   1.000  N
  N44      1.0000 0.48200  0.15830  0.64920  Biso   1.000  N
  C155     1.0000 0.88187  0.57383  0.13983  Biso   1.000  C
  O45      1.0000 0.85247  0.55593  0.16979  Biso   1.000  O
  O46      1.0000 0.89097  0.63683  0.12286  Biso   1.000  O
  C156     1.0000 0.90137  0.51593  0.12323  Biso   1.000  C
  C157     1.0000 0.92917  0.53073  0.08943  Biso   1.000  C
  H67      1.0000 0.94567  0.58223  0.07953  Biso   1.000  H
  C158     1.0000 0.95167  0.51543  0.01283  Biso   1.000  C
  H68      1.0000 0.90457  0.51933  0.02063  Biso   1.000  H
  C159     1.0000 0.97467  0.52763  0.97853  Biso   1.000  C
  H69      1.0000 0.94277  0.53963  0.96233  Biso   1.000  H
  C160     1.0000 0.08867  0.50593  0.99113  Biso   1.000  C
  C161     1.0000 0.06667  0.49553  0.02573  Biso   1.000  C
  Se23     1.0000 0.17527  0.45573  0.02253  Biso   1.000  Se
  N45      1.0000 0.10067  0.47063  0.04843  Biso   1.000  N
  N46      1.0000 0.14867  0.49163  0.98253  Biso   1.000  N
  C162     1.0000 0.54853  0.90717  0.47317  Biso   1.000  C
  O47      1.0000 0.51913  0.88927  0.50313  Biso   1.000  O
  O48      1.0000 0.55763  0.97017  0.45620  Biso   1.000  O
  C163     1.0000 0.56803  0.84927  0.45657  Biso   1.000  C
  C164     1.0000 0.59583  0.86407  0.42277  Biso   1.000  C
  H70      1.0000 0.61233  0.91557  0.41287  Biso   1.000  H
  C165     1.0000 0.61833  0.84877  0.34617  Biso   1.000  C
  H71      1.0000 0.57123  0.85267  0.35397  Biso   1.000  H
  C166     1.0000 0.64133  0.86097  0.31187  Biso   1.000  C
  H72      1.0000 0.60943  0.87297  0.29567  Biso   1.000  H
  C167     1.0000 0.75533  0.83927  0.32447  Biso   1.000  C
  C168     1.0000 0.73333  0.82887  0.35907  Biso   1.000  C
  Se24     1.0000 0.84193  0.78907  0.35587  Biso   1.000  Se
  N47      1.0000 0.76733  0.80397  0.38177  Biso   1.000  N
  N48      1.0000 0.81533  0.82497  0.31587  Biso   1.000  N
  C169     1.0000 0.75950  0.97470  0.80650  Biso   1.000  C
  O49      1.0000 0.77740  0.96320  0.83646  Biso   1.000  O
  O50      1.0000 0.69650  0.92080  0.78953  Biso   1.000  O
  C170     1.0000 0.81740  0.05210  0.78990  Biso   1.000  C
  C171     1.0000 0.80260  0.06510  0.75610  Biso   1.000  C
  H73      1.0000 0.75110  0.03010  0.74620  Biso   1.000  H
  C172     1.0000 0.81790  0.10290  0.67950  Biso   1.000  C
  H74      1.0000 0.81400  0.05190  0.68730  Biso   1.000  H
  C173     1.0000 0.80570  0.11370  0.64520  Biso   1.000  C
  H75      1.0000 0.79370  0.06980  0.62900  Biso   1.000  H
  C174     1.0000 0.82740  0.24940  0.65780  Biso   1.000  C
  C175     1.0000 0.83780  0.23780  0.69240  Biso   1.000  C
  Se25     1.0000 0.87760  0.38620  0.68920  Biso   1.000  Se
  N49      1.0000 0.86270  0.29670  0.71510  Biso   1.000  N
  N50      1.0000 0.84170  0.32370  0.64920  Biso   1.000  N
  C176     1.0000 0.42617  0.30803  0.13983  Biso   1.000  C
  O51      1.0000 0.44407  0.29653  0.16979  Biso   1.000  O
  O52      1.0000 0.36317  0.25413  0.12286  Biso   1.000  O
  C177     1.0000 0.48407  0.38543  0.12323  Biso   1.000  C
  C178     1.0000 0.46927  0.39843  0.08943  Biso   1.000  C
  H76      1.0000 0.41777  0.36343  0.07953  Biso   1.000  H
  C179     1.0000 0.48457  0.43623  0.01283  Biso   1.000  C
  H77      1.0000 0.48067  0.38523  0.02063  Biso   1.000  H
  C180     1.0000 0.47237  0.44703  0.97853  Biso   1.000  C
  H78      1.0000 0.46037  0.40313  0.96233  Biso   1.000  H
  C181     1.0000 0.49407  0.58273  0.99113  Biso   1.000  C
  C182     1.0000 0.50447  0.57113  0.02573  Biso   1.000  C
  Se26     1.0000 0.54427  0.71953  0.02253  Biso   1.000  Se
  N51      1.0000 0.52937  0.63003  0.04843  Biso   1.000  N
  N52      1.0000 0.50837  0.65703  0.98253  Biso   1.000  N
  C183     1.0000 0.09283  0.64137  0.47317  Biso   1.000  C
  O53      1.0000 0.11073  0.62987  0.50313  Biso   1.000  O
  O54      1.0000 0.02983  0.58747  0.45620  Biso   1.000  O
  C184     1.0000 0.15073  0.71877  0.45657  Biso   1.000  C
  C185     1.0000 0.13593  0.73177  0.42277  Biso   1.000  C
  H79      1.0000 0.08443  0.69677  0.41287  Biso   1.000  H
  C186     1.0000 0.15123  0.76957  0.34617  Biso   1.000  C
  H80      1.0000 0.14733  0.71857  0.35397  Biso   1.000  H
  C187     1.0000 0.13903  0.78037  0.31187  Biso   1.000  C
  H81      1.0000 0.12703  0.73647  0.29567  Biso   1.000  H
  C188     1.0000 0.16073  0.91607  0.32447  Biso   1.000  C
  C189     1.0000 0.17113  0.90447  0.35907  Biso   1.000  C
  Se27     1.0000 0.21093  0.05287  0.35587  Biso   1.000  Se
  N53      1.0000 0.19603  0.96337  0.38177  Biso   1.000  N
  N54      1.0000 0.17503  0.99037  0.31587  Biso   1.000  N
  C190     1.0000 0.78480  0.02530  0.19350  Biso   1.000  C
  O55      1.0000 0.81420  0.03680  0.16354  Biso   1.000  O
  O56      1.0000 0.77570  0.07920  0.21047  Biso   1.000  O
  C191     1.0000 0.76530  0.94790  0.21010  Biso   1.000  C
  C192     1.0000 0.73750  0.93490  0.24390  Biso   1.000  C
  H82      1.0000 0.72100  0.96990  0.25380  Biso   1.000  H
  C193     1.0000 0.71500  0.89710  0.32050  Biso   1.000  C
  H83      1.0000 0.76210  0.94810  0.31270  Biso   1.000  H
  C194     1.0000 0.69200  0.88630  0.35480  Biso   1.000  C
  H84      1.0000 0.72390  0.93020  0.37100  Biso   1.000  H
  C195     1.0000 0.57800  0.75060  0.34220  Biso   1.000  C
  C196     1.0000 0.60000  0.76220  0.30760  Biso   1.000  C
  Se28     1.0000 0.49140  0.61380  0.31080  Biso   1.000  Se
  N55      1.0000 0.56600  0.70330  0.28490  Biso   1.000  N
  N56      1.0000 0.51800  0.67630  0.35080  Biso   1.000  N
  C197     1.0000 0.45147  0.35863  0.52683  Biso   1.000  C
  O57      1.0000 0.48087  0.37013  0.49687  Biso   1.000  O
  O58      1.0000 0.44237  0.41253  0.54380  Biso   1.000  O
  C198     1.0000 0.43197  0.28123  0.54343  Biso   1.000  C
  C199     1.0000 0.40417  0.26823  0.57723  Biso   1.000  C
  H85      1.0000 0.38767  0.30323  0.58713  Biso   1.000  H
  C200     1.0000 0.38167  0.23043  0.65383  Biso   1.000  C
  H86      1.0000 0.42877  0.28143  0.64603  Biso   1.000  H
  C201     1.0000 0.35867  0.21963  0.68813  Biso   1.000  C
  H87      1.0000 0.39057  0.26353  0.70433  Biso   1.000  H
  C202     1.0000 0.24467  0.08393  0.67553  Biso   1.000  C
  C203     1.0000 0.26667  0.09553  0.64093  Biso   1.000  C
  Se29     1.0000 0.15807  0.94713  0.64413  Biso   1.000  Se
  N57      1.0000 0.23267  0.03663  0.61823  Biso   1.000  N
  N58      1.0000 0.18467  0.00963  0.68413  Biso   1.000  N
  C204     1.0000 0.11813  0.69197  0.86017  Biso   1.000  C
  O59      1.0000 0.14753  0.70347  0.83021  Biso   1.000  O
  O60      1.0000 0.10903  0.74587  0.87714  Biso   1.000  O
  C205     1.0000 0.09863  0.61457  0.87677  Biso   1.000  C
  C206     1.0000 0.07083  0.60157  0.91057  Biso   1.000  C
  H88      1.0000 0.05433  0.63657  0.92047  Biso   1.000  H
  C207     1.0000 0.04833  0.56377  0.98717  Biso   1.000  C
  H89      1.0000 0.09543  0.61477  0.97937  Biso   1.000  H
  C208     1.0000 0.02533  0.55297  0.02147  Biso   1.000  C
  H90      1.0000 0.05723  0.59687  0.03767  Biso   1.000  H
  C209     1.0000 0.91133  0.41727  0.00887  Biso   1.000  C
  C210     1.0000 0.93333  0.42887  0.97427  Biso   1.000  C
  Se30     1.0000 0.82473  0.28047  0.97747  Biso   1.000  Se
  N59      1.0000 0.89933  0.36997  0.95157  Biso   1.000  N
  N60      1.0000 0.85133  0.34297  0.01747  Biso   1.000  N
  C211     1.0000 0.24050  0.21520  0.19350  Biso   1.000  C
  O61      1.0000 0.22260  0.18580  0.16354  Biso   1.000  O
  O62      1.0000 0.30350  0.22430  0.21047  Biso   1.000  O
  C212     1.0000 0.18260  0.23470  0.21010  Biso   1.000  C
  C213     1.0000 0.19740  0.26250  0.24390  Biso   1.000  C
  H91      1.0000 0.24890  0.27900  0.25380  Biso   1.000  H
  C214     1.0000 0.18210  0.28500  0.32050  Biso   1.000  C
  H92      1.0000 0.18600  0.23790  0.31270  Biso   1.000  H
  C215     1.0000 0.19430  0.30800  0.35480  Biso   1.000  C
  H93      1.0000 0.20630  0.27610  0.37100  Biso   1.000  H
  C216     1.0000 0.17260  0.42200  0.34220  Biso   1.000  C
  C217     1.0000 0.16220  0.40000  0.30760  Biso   1.000  C
  Se31     1.0000 0.12240  0.50860  0.31080  Biso   1.000  Se
  N61      1.0000 0.13730  0.43400  0.28490  Biso   1.000  N
  N62      1.0000 0.15830  0.48200  0.35080  Biso   1.000  N
  C218     1.0000 0.90717  0.54853  0.52683  Biso   1.000  C
  O63      1.0000 0.88927  0.51913  0.49687  Biso   1.000  O
  O64      1.0000 0.97017  0.55763  0.54380  Biso   1.000  O
  C219     1.0000 0.84927  0.56803  0.54343  Biso   1.000  C
  C220     1.0000 0.86407  0.59583  0.57723  Biso   1.000  C
  H94      1.0000 0.91557  0.61233  0.58713  Biso   1.000  H
  C221     1.0000 0.84877  0.61833  0.65383  Biso   1.000  C
  H95      1.0000 0.85267  0.57123  0.64603  Biso   1.000  H
  C222     1.0000 0.86097  0.64133  0.68813  Biso   1.000  C
  H96      1.0000 0.87297  0.60943  0.70433  Biso   1.000  H
  C223     1.0000 0.83927  0.75533  0.67553  Biso   1.000  C
  C224     1.0000 0.82887  0.73333  0.64093  Biso   1.000  C
  Se32     1.0000 0.78907  0.84193  0.64413  Biso   1.000  Se
  N63      1.0000 0.80397  0.76733  0.61823  Biso   1.000  N
  N64      1.0000 0.82497  0.81533  0.68413  Biso   1.000  N
  C225     1.0000 0.57383  0.88187  0.86017  Biso   1.000  C
  O65      1.0000 0.55593  0.85247  0.83021  Biso   1.000  O
  O66      1.0000 0.63683  0.89097  0.87714  Biso   1.000  O
  C226     1.0000 0.51593  0.90137  0.87677  Biso   1.000  C
  C227     1.0000 0.53073  0.92917  0.91057  Biso   1.000  C
  H97      1.0000 0.58223  0.94567  0.92047  Biso   1.000  H
  C228     1.0000 0.51543  0.95167  0.98717  Biso   1.000  C
  H98      1.0000 0.51933  0.90457  0.97937  Biso   1.000  H
  C229     1.0000 0.52763  0.97467  0.02147  Biso   1.000  C
  H99      1.0000 0.53963  0.94277  0.03767  Biso   1.000  H
  C230     1.0000 0.50593  0.08867  0.00887  Biso   1.000  C
  C231     1.0000 0.49553  0.06667  0.97427  Biso   1.000  C
  Se33     1.0000 0.45573  0.17527  0.97747  Biso   1.000  Se
  N65      1.0000 0.47063  0.10067  0.95157  Biso   1.000  N
  N66      1.0000 0.49163  0.14867  0.01747  Biso   1.000  N
  C232     1.0000 0.97470  0.75950  0.19350  Biso   1.000  C
  O67      1.0000 0.96320  0.77740  0.16354  Biso   1.000  O
  O68      1.0000 0.92080  0.69650  0.21047  Biso   1.000  O
  C233     1.0000 0.05210  0.81740  0.21010  Biso   1.000  C
  C234     1.0000 0.06510  0.80260  0.24390  Biso   1.000  C
  H100     1.0000 0.03010  0.75110  0.25380  Biso   1.000  H
  C235     1.0000 0.10290  0.81790  0.32050  Biso   1.000  C
  H101     1.0000 0.05190  0.81400  0.31270  Biso   1.000  H
  C236     1.0000 0.11370  0.80570  0.35480  Biso   1.000  C
  H102     1.0000 0.06980  0.79370  0.37100  Biso   1.000  H
  C237     1.0000 0.24940  0.82740  0.34220  Biso   1.000  C
  C238     1.0000 0.23780  0.83780  0.30760  Biso   1.000  C
  Se34     1.0000 0.38620  0.87760  0.31080  Biso   1.000  Se
  N67      1.0000 0.29670  0.86270  0.28490  Biso   1.000  N
  N68      1.0000 0.32370  0.84170  0.35080  Biso   1.000  N
  C239     1.0000 0.64137  0.09283  0.52683  Biso   1.000  C
  O69      1.0000 0.62987  0.11073  0.49687  Biso   1.000  O
  O70      1.0000 0.58747  0.02983  0.54380  Biso   1.000  O
  C240     1.0000 0.71877  0.15073  0.54343  Biso   1.000  C
  C241     1.0000 0.73177  0.13593  0.57723  Biso   1.000  C
  H103     1.0000 0.69677  0.08443  0.58713  Biso   1.000  H
  C242     1.0000 0.76957  0.15123  0.65383  Biso   1.000  C
  H104     1.0000 0.71857  0.14733  0.64603  Biso   1.000  H
  C243     1.0000 0.78037  0.13903  0.68813  Biso   1.000  C
  H105     1.0000 0.73647  0.12703  0.70433  Biso   1.000  H
  C244     1.0000 0.91607  0.16073  0.67553  Biso   1.000  C
  C245     1.0000 0.90447  0.17113  0.64093  Biso   1.000  C
  Se35     1.0000 0.05287  0.21093  0.64413  Biso   1.000  Se
  N69      1.0000 0.96337  0.19603  0.61823  Biso   1.000  N
  N70      1.0000 0.99037  0.17503  0.68413  Biso   1.000  N
  C246     1.0000 0.30803  0.42617  0.86017  Biso   1.000  C
  O71      1.0000 0.29653  0.44407  0.83021  Biso   1.000  O
  O72      1.0000 0.25413  0.36317  0.87714  Biso   1.000  O
  C247     1.0000 0.38543  0.48407  0.87677  Biso   1.000  C
  C248     1.0000 0.39843  0.46927  0.91057  Biso   1.000  C
  H106     1.0000 0.36343  0.41777  0.92047  Biso   1.000  H
  C249     1.0000 0.43623  0.48457  0.98717  Biso   1.000  C
  H107     1.0000 0.38523  0.48067  0.97937  Biso   1.000  H
  C250     1.0000 0.44703  0.47237  0.02147  Biso   1.000  C
  H108     1.0000 0.40313  0.46037  0.03767  Biso   1.000  H
  C251     1.0000 0.58273  0.49407  0.00887  Biso   1.000  C
  C252     1.0000 0.57113  0.50447  0.97427  Biso   1.000  C
  Se36     1.0000 0.71953  0.54427  0.97747  Biso   1.000  Se
  N71      1.0000 0.63003  0.52937  0.95157  Biso   1.000  N
  N72      1.0000 0.65703  0.50837  0.01747  Biso   1.000  N
  Cu1      1.0000 0.85731  0.14269  0.13892  Biso   1.000  Cu
  Cu2      1.0000 0.52398  0.47602  0.47225  Biso   1.000  Cu
  Cu3      1.0000 0.19064  0.80936  0.80559  Biso   1.000  Cu
  Cu4      1.0000 0.85731  0.71462  0.13892  Biso   1.000  Cu
  Cu5      1.0000 0.52398  0.04795  0.47225  Biso   1.000  Cu
  Cu6      1.0000 0.19064  0.38129  0.80559  Biso   1.000  Cu
  Cu7      1.0000 0.28538  0.14269  0.13892  Biso   1.000  Cu
  Cu8      1.0000 0.95205  0.47602  0.47225  Biso   1.000  Cu
  Cu9      1.0000 0.61871  0.80936  0.80559  Biso   1.000  Cu
  Cu10     1.0000 0.14269  0.85731  0.86108  Biso   1.000  Cu
  Cu11     1.0000 0.80936  0.19064  0.19441  Biso   1.000  Cu
  Cu12     1.0000 0.47602  0.52398  0.52775  Biso   1.000  Cu
  Cu13     1.0000 0.71462  0.85731  0.86108  Biso   1.000  Cu
  Cu14     1.0000 0.38129  0.19064  0.19441  Biso   1.000  Cu
  Cu15     1.0000 0.04795  0.52398  0.52775  Biso   1.000  Cu
  Cu16     1.0000 0.14269  0.28538  0.86108  Biso   1.000  Cu
  Cu17     1.0000 0.80936  0.61871  0.19441  Biso   1.000  Cu
  Cu18     1.0000 0.47602  0.95205  0.52775  Biso   1.000  Cu
  C253     1.0000 0.11010  0.22020  0.19410  Biso   1.000  C
  H109     1.0000 0.09995  0.19990  0.17170  Biso   1.000  H
  C254     1.0000 0.13300  0.26600  0.26410  Biso   1.000  C
  C255     1.0000 0.16550  0.33100  0.29700  Biso   1.000  C
  C256     1.0000 0.18750  0.37500  0.36570  Biso   1.000  C
  C257     1.0000 0.77677  0.55353  0.52743  Biso   1.000  C
  H110     1.0000 0.76662  0.53323  0.50503  Biso   1.000  H
  C258     1.0000 0.79967  0.59933  0.59743  Biso   1.000  C
  C259     1.0000 0.83217  0.66433  0.63033  Biso   1.000  C
  C260     1.0000 0.85417  0.70833  0.69903  Biso   1.000  C
  C261     1.0000 0.44343  0.88687  0.86077  Biso   1.000  C
  H111     1.0000 0.43328  0.86657  0.83837  Biso   1.000  H
  C262     1.0000 0.46633  0.93267  0.93077  Biso   1.000  C
  C263     1.0000 0.49883  0.99767  0.96367  Biso   1.000  C
  C264     1.0000 0.52083  0.04167  0.03237  Biso   1.000  C
  C265     1.0000 0.77980  0.88990  0.19410  Biso   1.000  C
  H112     1.0000 0.80010  0.90005  0.17170  Biso   1.000  H
  C266     1.0000 0.73400  0.86700  0.26410  Biso   1.000  C
  C267     1.0000 0.66900  0.83450  0.29700  Biso   1.000  C
  C268     1.0000 0.62500  0.81250  0.36570  Biso   1.000  C
  C269     1.0000 0.44647  0.22323  0.52743  Biso   1.000  C
  H113     1.0000 0.46677  0.23338  0.50503  Biso   1.000  H
  C270     1.0000 0.40067  0.20033  0.59743  Biso   1.000  C
  C271     1.0000 0.33567  0.16783  0.63033  Biso   1.000  C
  C272     1.0000 0.29167  0.14583  0.69903  Biso   1.000  C
  C273     1.0000 0.11313  0.55657  0.86077  Biso   1.000  C
  H114     1.0000 0.13343  0.56672  0.83837  Biso   1.000  H
  C274     1.0000 0.06733  0.53367  0.93077  Biso   1.000  C
  C275     1.0000 0.00233  0.50117  0.96367  Biso   1.000  C
  C276     1.0000 0.95833  0.47917  0.03237  Biso   1.000  C
  C277     1.0000 0.11010  0.88990  0.19410  Biso   1.000  C
  H115     1.0000 0.09995  0.90005  0.17170  Biso   1.000  H
  C278     1.0000 0.13300  0.86700  0.26410  Biso   1.000  C
  C279     1.0000 0.16550  0.83450  0.29700  Biso   1.000  C
  C280     1.0000 0.18750  0.81250  0.36570  Biso   1.000  C
  C281     1.0000 0.77677  0.22323  0.52743  Biso   1.000  C
  H116     1.0000 0.76662  0.23338  0.50503  Biso   1.000  H
  C282     1.0000 0.79967  0.20033  0.59743  Biso   1.000  C
  C283     1.0000 0.83217  0.16783  0.63033  Biso   1.000  C
  C284     1.0000 0.85417  0.14583  0.69903  Biso   1.000  C
  C285     1.0000 0.44343  0.55657  0.86077  Biso   1.000  C
  H117     1.0000 0.43328  0.56672  0.83837  Biso   1.000  H
  C286     1.0000 0.46633  0.53367  0.93077  Biso   1.000  C
  C287     1.0000 0.49883  0.50117  0.96367  Biso   1.000  C
  C288     1.0000 0.52083  0.47917  0.03237  Biso   1.000  C
  C289     1.0000 0.22020  0.11010  0.80590  Biso   1.000  C
  H118     1.0000 0.19990  0.09995  0.82830  Biso   1.000  H
  C290     1.0000 0.26600  0.13300  0.73590  Biso   1.000  C
  C291     1.0000 0.33100  0.16550  0.70300  Biso   1.000  C
  C292     1.0000 0.37500  0.18750  0.63430  Biso   1.000  C
  C293     1.0000 0.88687  0.44343  0.13923  Biso   1.000  C
  H119     1.0000 0.86657  0.43328  0.16163  Biso   1.000  H
  C294     1.0000 0.93267  0.46633  0.06923  Biso   1.000  C
  C295     1.0000 0.99767  0.49883  0.03633  Biso   1.000  C
  C296     1.0000 0.04167  0.52083  0.96763  Biso   1.000  C
  C297     1.0000 0.55353  0.77677  0.47257  Biso   1.000  C
  H120     1.0000 0.53323  0.76662  0.49497  Biso   1.000  H
  C298     1.0000 0.59933  0.79967  0.40257  Biso   1.000  C
  C299     1.0000 0.66433  0.83217  0.36967  Biso   1.000  C
  C300     1.0000 0.70833  0.85417  0.30097  Biso   1.000  C
  C301     1.0000 0.88990  0.77980  0.80590  Biso   1.000  C
  H121     1.0000 0.90005  0.80010  0.82830  Biso   1.000  H
  C302     1.0000 0.86700  0.73400  0.73590  Biso   1.000  C
  C303     1.0000 0.83450  0.66900  0.70300  Biso   1.000  C
  C304     1.0000 0.81250  0.62500  0.63430  Biso   1.000  C
  C305     1.0000 0.55657  0.11313  0.13923  Biso   1.000  C
  H122     1.0000 0.56672  0.13343  0.16163  Biso   1.000  H
  C306     1.0000 0.53367  0.06733  0.06923  Biso   1.000  C
  C307     1.0000 0.50117  0.00233  0.03633  Biso   1.000  C
  C308     1.0000 0.47917  0.95833  0.96763  Biso   1.000  C
  C309     1.0000 0.22323  0.44647  0.47257  Biso   1.000  C
  H123     1.0000 0.23338  0.46677  0.49497  Biso   1.000  H
  C310     1.0000 0.20033  0.40067  0.40257  Biso   1.000  C
  C311     1.0000 0.16783  0.33567  0.36967  Biso   1.000  C
  C312     1.0000 0.14583  0.29167  0.30097  Biso   1.000  C
  C313     1.0000 0.88990  0.11010  0.80590  Biso   1.000  C
  H124     1.0000 0.90005  0.09995  0.82830  Biso   1.000  H
  C314     1.0000 0.86700  0.13300  0.73590  Biso   1.000  C
  C315     1.0000 0.83450  0.16550  0.70300  Biso   1.000  C
  C316     1.0000 0.81250  0.18750  0.63430  Biso   1.000  C
  C317     1.0000 0.55657  0.44343  0.13923  Biso   1.000  C
  H125     1.0000 0.56672  0.43328  0.16163  Biso   1.000  H
  C318     1.0000 0.53367  0.46633  0.06923  Biso   1.000  C
  C319     1.0000 0.50117  0.49883  0.03633  Biso   1.000  C
  C320     1.0000 0.47917  0.52083  0.96763  Biso   1.000  C
  C321     1.0000 0.22323  0.77677  0.47257  Biso   1.000  C
  H126     1.0000 0.23338  0.76662  0.49497  Biso   1.000  H
  C322     1.0000 0.20033  0.79967  0.40257  Biso   1.000  C
  C323     1.0000 0.16783  0.83217  0.36967  Biso   1.000  C
  C324     1.0000 0.14583  0.85417  0.30097  Biso   1.000  C
