data_image0
_cell_length_a       18.7632
_cell_length_b       18.7632
_cell_length_c       38.6558
_cell_angle_alpha    90
_cell_angle_beta     90
_cell_angle_gamma    120

_symmetry_space_group_name_H-M    "P 1"
_symmetry_int_tables_number       1

loop_
  _symmetry_equiv_pos_as_xyz
  'x, y, z'

loop_
  _atom_site_label
  _atom_site_occupancy
  _atom_site_fract_x
  _atom_site_fract_y
  _atom_site_fract_z
  _atom_site_thermal_displace_type
  _atom_site_B_iso_or_equiv
  _atom_site_type_symbol
  C1       1.0000 0.76026  0.97275  0.30731  Biso   1.000  C
  C2       1.0000 0.81953  0.05255  0.29030  Biso   1.000  C
  C3       1.0000 0.80462  0.06776  0.25642  Biso   1.000  C
  H1       1.0000 0.75640  0.03010  0.24530  Biso   1.000  H
  O1       1.0000 0.77761  0.96135  0.33751  Biso   1.000  O
  O2       1.0000 0.69929  0.92288  0.29001  Biso   1.000  O
  C4       1.0000 0.91520  0.18360  0.18050  Biso   1.000  C
  C5       1.0000 0.90220  0.19300  0.14580  Biso   1.000  C
  C6       1.0000 0.82320  0.17450  0.13390  Biso   1.000  C
  C7       1.0000 0.75720  0.13390  0.15680  Biso   1.000  C
  H2       1.0000 0.70180  0.10410  0.14810  Biso   1.000  H
  C8       1.0000 0.77020  0.12450  0.19150  Biso   1.000  C
  H3       1.0000 0.72510  0.10110  0.20760  Biso   1.000  H
  O3       1.0000 0.03300  0.24350  0.14950  Biso   1.000  O
  N1       1.0000 0.97210  0.23590  0.12550  Biso   1.000  N
  N2       1.0000 0.99900  0.21740  0.18160  Biso   1.000  N
  C9       1.0000 0.82550  0.17680  0.13390  Biso   1.000  C
  C10      1.0000 0.42693  0.30608  0.64064  Biso   1.000  C
  C11      1.0000 0.48620  0.38588  0.62363  Biso   1.000  C
  C12      1.0000 0.47129  0.40109  0.58975  Biso   1.000  C
  H4       1.0000 0.42307  0.36343  0.57863  Biso   1.000  H
  O4       1.0000 0.44428  0.29468  0.67084  Biso   1.000  O
  O5       1.0000 0.36596  0.25621  0.62334  Biso   1.000  O
  C13      1.0000 0.58187  0.51693  0.51383  Biso   1.000  C
  C14      1.0000 0.56887  0.52633  0.47913  Biso   1.000  C
  C15      1.0000 0.48987  0.50783  0.46723  Biso   1.000  C
  C16      1.0000 0.42387  0.46723  0.49013  Biso   1.000  C
  H5       1.0000 0.36847  0.43743  0.48143  Biso   1.000  H
  C17      1.0000 0.43687  0.45783  0.52483  Biso   1.000  C
  H6       1.0000 0.39177  0.43443  0.54093  Biso   1.000  H
  O6       1.0000 0.69967  0.57683  0.48283  Biso   1.000  O
  N3       1.0000 0.63877  0.56923  0.45883  Biso   1.000  N
  N4       1.0000 0.66567  0.55073  0.51493  Biso   1.000  N
  C18      1.0000 0.49217  0.51013  0.46723  Biso   1.000  C
  C19      1.0000 0.09359  0.63942  0.97398  Biso   1.000  C
  C20      1.0000 0.15286  0.71922  0.95697  Biso   1.000  C
  C21      1.0000 0.13795  0.73443  0.92309  Biso   1.000  C
  H7       1.0000 0.08973  0.69677  0.91197  Biso   1.000  H
  O7       1.0000 0.11094  0.62802  0.00418  Biso   1.000  O
  O8       1.0000 0.03262  0.58955  0.95668  Biso   1.000  O
  C22      1.0000 0.24853  0.85027  0.84717  Biso   1.000  C
  C23      1.0000 0.23553  0.85967  0.81247  Biso   1.000  C
  C24      1.0000 0.15653  0.84117  0.80057  Biso   1.000  C
  C25      1.0000 0.09053  0.80057  0.82347  Biso   1.000  C
  H8       1.0000 0.03513  0.77077  0.81477  Biso   1.000  H
  C26      1.0000 0.10353  0.79117  0.85817  Biso   1.000  C
  H9       1.0000 0.05843  0.76777  0.87427  Biso   1.000  H
  O9       1.0000 0.36633  0.91017  0.81617  Biso   1.000  O
  N5       1.0000 0.30543  0.90257  0.79217  Biso   1.000  N
  N6       1.0000 0.33233  0.88407  0.84827  Biso   1.000  N
  C27      1.0000 0.15883  0.84347  0.80057  Biso   1.000  C
  C28      1.0000 0.02725  0.78751  0.30731  Biso   1.000  C
  C29      1.0000 0.94745  0.76698  0.29030  Biso   1.000  C
  C30      1.0000 0.93224  0.73686  0.25642  Biso   1.000  C
  H10      1.0000 0.96990  0.72630  0.24530  Biso   1.000  H
  O10      1.0000 0.03865  0.81626  0.33751  Biso   1.000  O
  O11      1.0000 0.07712  0.77641  0.29001  Biso   1.000  O
  C31      1.0000 0.81640  0.73160  0.18050  Biso   1.000  C
  C32      1.0000 0.80700  0.70920  0.14580  Biso   1.000  C
  C33      1.0000 0.82550  0.64870  0.13390  Biso   1.000  C
  C34      1.0000 0.86610  0.62330  0.15680  Biso   1.000  C
  H11      1.0000 0.89590  0.59770  0.14810  Biso   1.000  H
  C35      1.0000 0.87550  0.64570  0.19150  Biso   1.000  C
  H12      1.0000 0.89890  0.62400  0.20760  Biso   1.000  H
  O12      1.0000 0.75650  0.78950  0.14950  Biso   1.000  O
  N7       1.0000 0.76410  0.73620  0.12550  Biso   1.000  N
  N8       1.0000 0.78260  0.78160  0.18160  Biso   1.000  N
  C36      1.0000 0.82320  0.64870  0.13390  Biso   1.000  C
  C37      1.0000 0.69392  0.12084  0.64064  Biso   1.000  C
  C38      1.0000 0.61412  0.10031  0.62363  Biso   1.000  C
  C39      1.0000 0.59891  0.07019  0.58975  Biso   1.000  C
  H13      1.0000 0.63657  0.05963  0.57863  Biso   1.000  H
  O13      1.0000 0.70532  0.14959  0.67084  Biso   1.000  O
  O14      1.0000 0.74379  0.10974  0.62334  Biso   1.000  O
  C40      1.0000 0.48307  0.06493  0.51383  Biso   1.000  C
  C41      1.0000 0.47367  0.04253  0.47913  Biso   1.000  C
  C42      1.0000 0.49217  0.98203  0.46723  Biso   1.000  C
  C43      1.0000 0.53277  0.95663  0.49013  Biso   1.000  C
  H14      1.0000 0.56257  0.93103  0.48143  Biso   1.000  H
  C44      1.0000 0.54217  0.97903  0.52483  Biso   1.000  C
  H15      1.0000 0.56557  0.95733  0.54093  Biso   1.000  H
  O15      1.0000 0.42317  0.12283  0.48283  Biso   1.000  O
  N9       1.0000 0.43077  0.06953  0.45883  Biso   1.000  N
  N10      1.0000 0.44927  0.11493  0.51493  Biso   1.000  N
  C45      1.0000 0.48987  0.98203  0.46723  Biso   1.000  C
  C46      1.0000 0.36058  0.45418  0.97398  Biso   1.000  C
  C47      1.0000 0.28078  0.43365  0.95697  Biso   1.000  C
  C48      1.0000 0.26557  0.40353  0.92309  Biso   1.000  C
  H16      1.0000 0.30323  0.39297  0.91197  Biso   1.000  H
  O16      1.0000 0.37198  0.48293  0.00418  Biso   1.000  O
  O17      1.0000 0.41045  0.44308  0.95668  Biso   1.000  O
  C49      1.0000 0.14973  0.39827  0.84717  Biso   1.000  C
  C50      1.0000 0.14033  0.37587  0.81247  Biso   1.000  C
  C51      1.0000 0.15883  0.31537  0.80057  Biso   1.000  C
  C52      1.0000 0.19943  0.28997  0.82347  Biso   1.000  C
  H17      1.0000 0.22923  0.26437  0.81477  Biso   1.000  H
  C53      1.0000 0.20883  0.31237  0.85817  Biso   1.000  C
  H18      1.0000 0.23223  0.29067  0.87427  Biso   1.000  H
  O18      1.0000 0.08983  0.45617  0.81617  Biso   1.000  O
  N11      1.0000 0.09743  0.40287  0.79217  Biso   1.000  N
  N12      1.0000 0.11593  0.44827  0.84827  Biso   1.000  N
  C54      1.0000 0.15653  0.31537  0.80057  Biso   1.000  C
  C55      1.0000 0.21249  0.23974  0.30731  Biso   1.000  C
  C56      1.0000 0.23302  0.18047  0.29030  Biso   1.000  C
  C57      1.0000 0.26314  0.19538  0.25642  Biso   1.000  C
  H19      1.0000 0.27370  0.24360  0.24530  Biso   1.000  H
  O19      1.0000 0.18374  0.22239  0.33751  Biso   1.000  O
  O20      1.0000 0.22359  0.30071  0.29001  Biso   1.000  O
  C58      1.0000 0.26840  0.08480  0.18050  Biso   1.000  C
  C59      1.0000 0.29080  0.09780  0.14580  Biso   1.000  C
  C60      1.0000 0.35130  0.17680  0.13390  Biso   1.000  C
  C61      1.0000 0.37670  0.24280  0.15680  Biso   1.000  C
  H20      1.0000 0.40230  0.29820  0.14810  Biso   1.000  H
  C62      1.0000 0.35430  0.22980  0.19150  Biso   1.000  C
  H21      1.0000 0.37600  0.27490  0.20760  Biso   1.000  H
  O21      1.0000 0.21050  0.96700  0.14950  Biso   1.000  O
  N13      1.0000 0.26380  0.02790  0.12550  Biso   1.000  N
  N14      1.0000 0.21840  0.00100  0.18160  Biso   1.000  N
  C63      1.0000 0.35130  0.17450  0.13390  Biso   1.000  C
  C64      1.0000 0.87916  0.57307  0.64064  Biso   1.000  C
  C65      1.0000 0.89969  0.51380  0.62363  Biso   1.000  C
  C66      1.0000 0.92981  0.52871  0.58975  Biso   1.000  C
  H22      1.0000 0.94037  0.57693  0.57863  Biso   1.000  H
  O22      1.0000 0.85041  0.55572  0.67084  Biso   1.000  O
  O23      1.0000 0.89026  0.63404  0.62334  Biso   1.000  O
  C67      1.0000 0.93507  0.41813  0.51383  Biso   1.000  C
  C68      1.0000 0.95747  0.43113  0.47913  Biso   1.000  C
  C69      1.0000 0.01797  0.51013  0.46723  Biso   1.000  C
  C70      1.0000 0.04337  0.57613  0.49013  Biso   1.000  C
  H23      1.0000 0.06897  0.63153  0.48143  Biso   1.000  H
  C71      1.0000 0.02097  0.56313  0.52483  Biso   1.000  C
  H24      1.0000 0.04267  0.60823  0.54093  Biso   1.000  H
  O24      1.0000 0.87717  0.30033  0.48283  Biso   1.000  O
  N15      1.0000 0.93047  0.36123  0.45883  Biso   1.000  N
  N16      1.0000 0.88507  0.33433  0.51493  Biso   1.000  N
  C72      1.0000 0.01797  0.50783  0.46723  Biso   1.000  C
  C73      1.0000 0.54582  0.90641  0.97398  Biso   1.000  C
  C74      1.0000 0.56635  0.84714  0.95697  Biso   1.000  C
  C75      1.0000 0.59647  0.86205  0.92309  Biso   1.000  C
  H25      1.0000 0.60703  0.91027  0.91197  Biso   1.000  H
  O25      1.0000 0.51707  0.88906  0.00418  Biso   1.000  O
  O26      1.0000 0.55692  0.96738  0.95668  Biso   1.000  O
  C76      1.0000 0.60173  0.75147  0.84717  Biso   1.000  C
  C77      1.0000 0.62413  0.76447  0.81247  Biso   1.000  C
  C78      1.0000 0.68463  0.84347  0.80057  Biso   1.000  C
  C79      1.0000 0.71003  0.90947  0.82347  Biso   1.000  C
  H26      1.0000 0.73563  0.96487  0.81477  Biso   1.000  H
  C80      1.0000 0.68763  0.89647  0.85817  Biso   1.000  C
  H27      1.0000 0.70933  0.94157  0.87427  Biso   1.000  H
  O27      1.0000 0.54383  0.63367  0.81617  Biso   1.000  O
  N17      1.0000 0.59713  0.69457  0.79217  Biso   1.000  N
  N18      1.0000 0.55173  0.66767  0.84827  Biso   1.000  N
  C81      1.0000 0.68463  0.84117  0.80057  Biso   1.000  C
  C82      1.0000 0.97275  0.76026  0.69269  Biso   1.000  C
  C83      1.0000 0.05255  0.81953  0.70970  Biso   1.000  C
  C84      1.0000 0.06776  0.80462  0.74358  Biso   1.000  C
  H28      1.0000 0.03010  0.75640  0.75470  Biso   1.000  H
  O28      1.0000 0.96135  0.77761  0.66249  Biso   1.000  O
  O29      1.0000 0.92288  0.69929  0.70999  Biso   1.000  O
  C85      1.0000 0.18360  0.91520  0.81950  Biso   1.000  C
  C86      1.0000 0.19300  0.90220  0.85420  Biso   1.000  C
  C87      1.0000 0.17450  0.82320  0.86610  Biso   1.000  C
  C88      1.0000 0.13390  0.75720  0.84320  Biso   1.000  C
  H29      1.0000 0.10410  0.70180  0.85190  Biso   1.000  H
  C89      1.0000 0.12450  0.77020  0.80850  Biso   1.000  C
  H30      1.0000 0.10110  0.72510  0.79240  Biso   1.000  H
  O30      1.0000 0.24350  0.03300  0.85050  Biso   1.000  O
  N19      1.0000 0.23590  0.97210  0.87450  Biso   1.000  N
  N20      1.0000 0.21740  0.99900  0.81840  Biso   1.000  N
  C90      1.0000 0.17680  0.82550  0.86610  Biso   1.000  C
  C91      1.0000 0.63942  0.09359  0.02602  Biso   1.000  C
  C92      1.0000 0.71922  0.15286  0.04303  Biso   1.000  C
  C93      1.0000 0.73443  0.13795  0.07691  Biso   1.000  C
  H31      1.0000 0.69677  0.08973  0.08803  Biso   1.000  H
  O31      1.0000 0.62802  0.11094  0.99582  Biso   1.000  O
  O32      1.0000 0.58955  0.03262  0.04332  Biso   1.000  O
  C94      1.0000 0.85027  0.24853  0.15283  Biso   1.000  C
  C95      1.0000 0.85967  0.23553  0.18753  Biso   1.000  C
  C96      1.0000 0.84117  0.15653  0.19943  Biso   1.000  C
  C97      1.0000 0.80057  0.09053  0.17653  Biso   1.000  C
  H32      1.0000 0.77077  0.03513  0.18523  Biso   1.000  H
  C98      1.0000 0.79117  0.10353  0.14183  Biso   1.000  C
  H33      1.0000 0.76777  0.05843  0.12573  Biso   1.000  H
  O33      1.0000 0.91017  0.36633  0.18383  Biso   1.000  O
  N21      1.0000 0.90257  0.30543  0.20783  Biso   1.000  N
  N22      1.0000 0.88407  0.33233  0.15173  Biso   1.000  N
  C99      1.0000 0.84347  0.15883  0.19943  Biso   1.000  C
  C100     1.0000 0.30608  0.42693  0.35936  Biso   1.000  C
  C101     1.0000 0.38588  0.48620  0.37637  Biso   1.000  C
  C102     1.0000 0.40109  0.47129  0.41025  Biso   1.000  C
  H34      1.0000 0.36343  0.42307  0.42137  Biso   1.000  H
  O34      1.0000 0.29468  0.44428  0.32916  Biso   1.000  O
  O35      1.0000 0.25621  0.36596  0.37666  Biso   1.000  O
  C103     1.0000 0.51693  0.58187  0.48617  Biso   1.000  C
  C104     1.0000 0.52633  0.56887  0.52087  Biso   1.000  C
  C105     1.0000 0.50783  0.48987  0.53277  Biso   1.000  C
  C106     1.0000 0.46723  0.42387  0.50987  Biso   1.000  C
  H35      1.0000 0.43743  0.36847  0.51857  Biso   1.000  H
  C107     1.0000 0.45783  0.43687  0.47517  Biso   1.000  C
  H36      1.0000 0.43443  0.39177  0.45907  Biso   1.000  H
  O36      1.0000 0.57683  0.69967  0.51717  Biso   1.000  O
  N23      1.0000 0.56923  0.63877  0.54117  Biso   1.000  N
  N24      1.0000 0.55073  0.66567  0.48507  Biso   1.000  N
  C108     1.0000 0.51013  0.49217  0.53277  Biso   1.000  C
  C109     1.0000 0.78751  0.02725  0.69269  Biso   1.000  C
  C110     1.0000 0.76698  0.94745  0.70970  Biso   1.000  C
  C111     1.0000 0.73686  0.93224  0.74358  Biso   1.000  C
  H37      1.0000 0.72630  0.96990  0.75470  Biso   1.000  H
  O37      1.0000 0.81626  0.03865  0.66249  Biso   1.000  O
  O38      1.0000 0.77641  0.07712  0.70999  Biso   1.000  O
  C112     1.0000 0.73160  0.81640  0.81950  Biso   1.000  C
  C113     1.0000 0.70920  0.80700  0.85420  Biso   1.000  C
  C114     1.0000 0.64870  0.82550  0.86610  Biso   1.000  C
  C115     1.0000 0.62330  0.86610  0.84320  Biso   1.000  C
  H38      1.0000 0.59770  0.89590  0.85190  Biso   1.000  H
  C116     1.0000 0.64570  0.87550  0.80850  Biso   1.000  C
  H39      1.0000 0.62400  0.89890  0.79240  Biso   1.000  H
  O39      1.0000 0.78950  0.75650  0.85050  Biso   1.000  O
  N25      1.0000 0.73620  0.76410  0.87450  Biso   1.000  N
  N26      1.0000 0.78160  0.78260  0.81840  Biso   1.000  N
  C117     1.0000 0.64870  0.82320  0.86610  Biso   1.000  C
  C118     1.0000 0.45418  0.36058  0.02602  Biso   1.000  C
  C119     1.0000 0.43365  0.28078  0.04303  Biso   1.000  C
  C120     1.0000 0.40353  0.26557  0.07691  Biso   1.000  C
  H40      1.0000 0.39297  0.30323  0.08803  Biso   1.000  H
  O40      1.0000 0.48293  0.37198  0.99582  Biso   1.000  O
  O41      1.0000 0.44308  0.41045  0.04332  Biso   1.000  O
  C121     1.0000 0.39827  0.14973  0.15283  Biso   1.000  C
  C122     1.0000 0.37587  0.14033  0.18753  Biso   1.000  C
  C123     1.0000 0.31537  0.15883  0.19943  Biso   1.000  C
  C124     1.0000 0.28997  0.19943  0.17653  Biso   1.000  C
  H41      1.0000 0.26437  0.22923  0.18523  Biso   1.000  H
  C125     1.0000 0.31237  0.20883  0.14183  Biso   1.000  C
  H42      1.0000 0.29067  0.23223  0.12573  Biso   1.000  H
  O42      1.0000 0.45617  0.08983  0.18383  Biso   1.000  O
  N27      1.0000 0.40287  0.09743  0.20783  Biso   1.000  N
  N28      1.0000 0.44827  0.11593  0.15173  Biso   1.000  N
  C126     1.0000 0.31537  0.15653  0.19943  Biso   1.000  C
  C127     1.0000 0.12084  0.69392  0.35936  Biso   1.000  C
  C128     1.0000 0.10031  0.61412  0.37637  Biso   1.000  C
  C129     1.0000 0.07019  0.59891  0.41025  Biso   1.000  C
  H43      1.0000 0.05963  0.63657  0.42137  Biso   1.000  H
  O43      1.0000 0.14959  0.70532  0.32916  Biso   1.000  O
  O44      1.0000 0.10974  0.74379  0.37666  Biso   1.000  O
  C130     1.0000 0.06493  0.48307  0.48617  Biso   1.000  C
  C131     1.0000 0.04253  0.47367  0.52087  Biso   1.000  C
  C132     1.0000 0.98203  0.49217  0.53277  Biso   1.000  C
  C133     1.0000 0.95663  0.53277  0.50987  Biso   1.000  C
  H44      1.0000 0.93103  0.56257  0.51857  Biso   1.000  H
  C134     1.0000 0.97903  0.54217  0.47517  Biso   1.000  C
  H45      1.0000 0.95733  0.56557  0.45907  Biso   1.000  H
  O45      1.0000 0.12283  0.42317  0.51717  Biso   1.000  O
  N29      1.0000 0.06953  0.43077  0.54117  Biso   1.000  N
  N30      1.0000 0.11493  0.44927  0.48507  Biso   1.000  N
  C135     1.0000 0.98203  0.48987  0.53277  Biso   1.000  C
  C136     1.0000 0.23974  0.21249  0.69269  Biso   1.000  C
  C137     1.0000 0.18047  0.23302  0.70970  Biso   1.000  C
  C138     1.0000 0.19538  0.26314  0.74358  Biso   1.000  C
  H46      1.0000 0.24360  0.27370  0.75470  Biso   1.000  H
  O46      1.0000 0.22239  0.18374  0.66249  Biso   1.000  O
  O47      1.0000 0.30071  0.22359  0.70999  Biso   1.000  O
  C139     1.0000 0.08480  0.26840  0.81950  Biso   1.000  C
  C140     1.0000 0.09780  0.29080  0.85420  Biso   1.000  C
  C141     1.0000 0.17680  0.35130  0.86610  Biso   1.000  C
  C142     1.0000 0.24280  0.37670  0.84320  Biso   1.000  C
  H47      1.0000 0.29820  0.40230  0.85190  Biso   1.000  H
  C143     1.0000 0.22980  0.35430  0.80850  Biso   1.000  C
  H48      1.0000 0.27490  0.37600  0.79240  Biso   1.000  H
  O48      1.0000 0.96700  0.21050  0.85050  Biso   1.000  O
  N31      1.0000 0.02790  0.26380  0.87450  Biso   1.000  N
  N32      1.0000 0.00100  0.21840  0.81840  Biso   1.000  N
  C144     1.0000 0.17450  0.35130  0.86610  Biso   1.000  C
  C145     1.0000 0.90641  0.54582  0.02602  Biso   1.000  C
  C146     1.0000 0.84714  0.56635  0.04303  Biso   1.000  C
  C147     1.0000 0.86205  0.59647  0.07691  Biso   1.000  C
  H49      1.0000 0.91027  0.60703  0.08803  Biso   1.000  H
  O49      1.0000 0.88906  0.51707  0.99582  Biso   1.000  O
  O50      1.0000 0.96738  0.55692  0.04332  Biso   1.000  O
  C148     1.0000 0.75147  0.60173  0.15283  Biso   1.000  C
  C149     1.0000 0.76447  0.62413  0.18753  Biso   1.000  C
  C150     1.0000 0.84347  0.68463  0.19943  Biso   1.000  C
  C151     1.0000 0.90947  0.71003  0.17653  Biso   1.000  C
  H50      1.0000 0.96487  0.73563  0.18523  Biso   1.000  H
  C152     1.0000 0.89647  0.68763  0.14183  Biso   1.000  C
  H51      1.0000 0.94157  0.70933  0.12573  Biso   1.000  H
  O51      1.0000 0.63367  0.54383  0.18383  Biso   1.000  O
  N33      1.0000 0.69457  0.59713  0.20783  Biso   1.000  N
  N34      1.0000 0.66767  0.55173  0.15173  Biso   1.000  N
  C153     1.0000 0.84117  0.68463  0.19943  Biso   1.000  C
  C154     1.0000 0.57307  0.87916  0.35936  Biso   1.000  C
  C155     1.0000 0.51380  0.89969  0.37637  Biso   1.000  C
  C156     1.0000 0.52871  0.92981  0.41025  Biso   1.000  C
  H52      1.0000 0.57693  0.94037  0.42137  Biso   1.000  H
  O52      1.0000 0.55572  0.85041  0.32916  Biso   1.000  O
  O53      1.0000 0.63404  0.89026  0.37666  Biso   1.000  O
  C157     1.0000 0.41813  0.93507  0.48617  Biso   1.000  C
  C158     1.0000 0.43113  0.95747  0.52087  Biso   1.000  C
  C159     1.0000 0.51013  0.01797  0.53277  Biso   1.000  C
  C160     1.0000 0.57613  0.04337  0.50987  Biso   1.000  C
  H53      1.0000 0.63153  0.06897  0.51857  Biso   1.000  H
  C161     1.0000 0.56313  0.02097  0.47517  Biso   1.000  C
  H54      1.0000 0.60823  0.04267  0.45907  Biso   1.000  H
  O54      1.0000 0.30033  0.87717  0.51717  Biso   1.000  O
  N35      1.0000 0.36123  0.93047  0.54117  Biso   1.000  N
  N36      1.0000 0.33433  0.88507  0.48507  Biso   1.000  N
  C162     1.0000 0.50783  0.01797  0.53277  Biso   1.000  C
  C163     1.0000 0.23974  0.02725  0.69269  Biso   1.000  C
  C164     1.0000 0.18047  0.94745  0.70970  Biso   1.000  C
  C165     1.0000 0.19538  0.93224  0.74358  Biso   1.000  C
  H55      1.0000 0.24360  0.96990  0.75470  Biso   1.000  H
  O55      1.0000 0.22239  0.03865  0.66249  Biso   1.000  O
  O56      1.0000 0.30071  0.07712  0.70999  Biso   1.000  O
  C166     1.0000 0.08480  0.81640  0.81950  Biso   1.000  C
  C167     1.0000 0.09780  0.80700  0.85420  Biso   1.000  C
  C168     1.0000 0.24280  0.86610  0.84320  Biso   1.000  C
  H56      1.0000 0.29820  0.89590  0.85190  Biso   1.000  H
  C169     1.0000 0.22980  0.87550  0.80850  Biso   1.000  C
  H57      1.0000 0.27490  0.89890  0.79240  Biso   1.000  H
  O57      1.0000 0.96700  0.75650  0.85050  Biso   1.000  O
  N37      1.0000 0.02790  0.76410  0.87450  Biso   1.000  N
  N38      1.0000 0.00100  0.78260  0.81840  Biso   1.000  N
  C170     1.0000 0.90641  0.36058  0.02602  Biso   1.000  C
  C171     1.0000 0.84714  0.28078  0.04303  Biso   1.000  C
  C172     1.0000 0.86205  0.26557  0.07691  Biso   1.000  C
  H58      1.0000 0.91027  0.30323  0.08803  Biso   1.000  H
  O58      1.0000 0.88906  0.37198  0.99582  Biso   1.000  O
  O59      1.0000 0.96738  0.41045  0.04332  Biso   1.000  O
  C173     1.0000 0.75147  0.14973  0.15283  Biso   1.000  C
  C174     1.0000 0.76447  0.14033  0.18753  Biso   1.000  C
  C175     1.0000 0.90947  0.19943  0.17653  Biso   1.000  C
  H59      1.0000 0.96487  0.22923  0.18523  Biso   1.000  H
  C176     1.0000 0.89647  0.20883  0.14183  Biso   1.000  C
  H60      1.0000 0.94157  0.23223  0.12573  Biso   1.000  H
  O60      1.0000 0.63367  0.08983  0.18383  Biso   1.000  O
  N39      1.0000 0.69457  0.09743  0.20783  Biso   1.000  N
  N40      1.0000 0.66767  0.11593  0.15173  Biso   1.000  N
  C177     1.0000 0.57307  0.69392  0.35936  Biso   1.000  C
  C178     1.0000 0.51380  0.61412  0.37637  Biso   1.000  C
  C179     1.0000 0.52871  0.59891  0.41025  Biso   1.000  C
  H61      1.0000 0.57693  0.63657  0.42137  Biso   1.000  H
  O61      1.0000 0.55572  0.70532  0.32916  Biso   1.000  O
  O62      1.0000 0.63404  0.74379  0.37666  Biso   1.000  O
  C180     1.0000 0.41813  0.48307  0.48617  Biso   1.000  C
  C181     1.0000 0.43113  0.47367  0.52087  Biso   1.000  C
  C182     1.0000 0.57613  0.53277  0.50987  Biso   1.000  C
  H62      1.0000 0.63153  0.56257  0.51857  Biso   1.000  H
  C183     1.0000 0.56313  0.54217  0.47517  Biso   1.000  C
  H63      1.0000 0.60823  0.56557  0.45907  Biso   1.000  H
  O63      1.0000 0.30033  0.42317  0.51717  Biso   1.000  O
  N41      1.0000 0.36123  0.43077  0.54117  Biso   1.000  N
  N42      1.0000 0.33433  0.44927  0.48507  Biso   1.000  N
  C184     1.0000 0.97275  0.21249  0.69269  Biso   1.000  C
  C185     1.0000 0.05255  0.23302  0.70970  Biso   1.000  C
  C186     1.0000 0.06776  0.26314  0.74358  Biso   1.000  C
  H64      1.0000 0.03010  0.27370  0.75470  Biso   1.000  H
  O64      1.0000 0.96135  0.18374  0.66249  Biso   1.000  O
  O65      1.0000 0.92288  0.22359  0.70999  Biso   1.000  O
  C187     1.0000 0.18360  0.26840  0.81950  Biso   1.000  C
  C188     1.0000 0.19300  0.29080  0.85420  Biso   1.000  C
  C189     1.0000 0.13390  0.37670  0.84320  Biso   1.000  C
  H65      1.0000 0.10410  0.40230  0.85190  Biso   1.000  H
  C190     1.0000 0.12450  0.35430  0.80850  Biso   1.000  C
  H66      1.0000 0.10110  0.37600  0.79240  Biso   1.000  H
  O66      1.0000 0.24350  0.21050  0.85050  Biso   1.000  O
  N43      1.0000 0.23590  0.26380  0.87450  Biso   1.000  N
  N44      1.0000 0.21740  0.21840  0.81840  Biso   1.000  N
  C191     1.0000 0.63942  0.54582  0.02602  Biso   1.000  C
  C192     1.0000 0.71922  0.56635  0.04303  Biso   1.000  C
  C193     1.0000 0.73443  0.59647  0.07691  Biso   1.000  C
  H67      1.0000 0.69677  0.60703  0.08803  Biso   1.000  H
  O67      1.0000 0.62802  0.51707  0.99582  Biso   1.000  O
  O68      1.0000 0.58955  0.55692  0.04332  Biso   1.000  O
  C194     1.0000 0.85027  0.60173  0.15283  Biso   1.000  C
  C195     1.0000 0.85967  0.62413  0.18753  Biso   1.000  C
  C196     1.0000 0.80057  0.71003  0.17653  Biso   1.000  C
  H68      1.0000 0.77077  0.73563  0.18523  Biso   1.000  H
  C197     1.0000 0.79117  0.68763  0.14183  Biso   1.000  C
  H69      1.0000 0.76777  0.70933  0.12573  Biso   1.000  H
  O69      1.0000 0.91017  0.54383  0.18383  Biso   1.000  O
  N45      1.0000 0.90257  0.59713  0.20783  Biso   1.000  N
  N46      1.0000 0.88407  0.55173  0.15173  Biso   1.000  N
  C198     1.0000 0.30608  0.87916  0.35936  Biso   1.000  C
  C199     1.0000 0.38588  0.89969  0.37637  Biso   1.000  C
  C200     1.0000 0.40109  0.92981  0.41025  Biso   1.000  C
  H70      1.0000 0.36343  0.94037  0.42137  Biso   1.000  H
  O70      1.0000 0.29468  0.85041  0.32916  Biso   1.000  O
  O71      1.0000 0.25621  0.89026  0.37666  Biso   1.000  O
  C201     1.0000 0.51693  0.93507  0.48617  Biso   1.000  C
  C202     1.0000 0.52633  0.95747  0.52087  Biso   1.000  C
  C203     1.0000 0.46723  0.04337  0.50987  Biso   1.000  C
  H71      1.0000 0.43743  0.06897  0.51857  Biso   1.000  H
  C204     1.0000 0.45783  0.02097  0.47517  Biso   1.000  C
  H72      1.0000 0.43443  0.04267  0.45907  Biso   1.000  H
  O72      1.0000 0.57683  0.87717  0.51717  Biso   1.000  O
  N47      1.0000 0.56923  0.93047  0.54117  Biso   1.000  N
  N48      1.0000 0.55073  0.88507  0.48507  Biso   1.000  N
  C205     1.0000 0.78751  0.76026  0.69269  Biso   1.000  C
  C206     1.0000 0.76698  0.81953  0.70970  Biso   1.000  C
  C207     1.0000 0.73686  0.80462  0.74358  Biso   1.000  C
  H73      1.0000 0.72630  0.75640  0.75470  Biso   1.000  H
  O73      1.0000 0.81626  0.77761  0.66249  Biso   1.000  O
  O74      1.0000 0.77641  0.69929  0.70999  Biso   1.000  O
  C208     1.0000 0.73160  0.91520  0.81950  Biso   1.000  C
  C209     1.0000 0.70920  0.90220  0.85420  Biso   1.000  C
  C210     1.0000 0.62330  0.75720  0.84320  Biso   1.000  C
  H74      1.0000 0.59770  0.70180  0.85190  Biso   1.000  H
  C211     1.0000 0.64570  0.77020  0.80850  Biso   1.000  C
  H75      1.0000 0.62400  0.72510  0.79240  Biso   1.000  H
  O75      1.0000 0.78950  0.03300  0.85050  Biso   1.000  O
  N49      1.0000 0.73620  0.97210  0.87450  Biso   1.000  N
  N50      1.0000 0.78160  0.99900  0.81840  Biso   1.000  N
  C212     1.0000 0.45418  0.09359  0.02602  Biso   1.000  C
  C213     1.0000 0.43365  0.15286  0.04303  Biso   1.000  C
  C214     1.0000 0.40353  0.13795  0.07691  Biso   1.000  C
  H76      1.0000 0.39297  0.08973  0.08803  Biso   1.000  H
  O76      1.0000 0.48293  0.11094  0.99582  Biso   1.000  O
  O77      1.0000 0.44308  0.03262  0.04332  Biso   1.000  O
  C215     1.0000 0.39827  0.24853  0.15283  Biso   1.000  C
  C216     1.0000 0.37587  0.23553  0.18753  Biso   1.000  C
  C217     1.0000 0.28997  0.09053  0.17653  Biso   1.000  C
  H77      1.0000 0.26437  0.03513  0.18523  Biso   1.000  H
  C218     1.0000 0.31237  0.10353  0.14183  Biso   1.000  C
  H78      1.0000 0.29067  0.05843  0.12573  Biso   1.000  H
  O78      1.0000 0.45617  0.36633  0.18383  Biso   1.000  O
  N51      1.0000 0.40287  0.30543  0.20783  Biso   1.000  N
  N52      1.0000 0.44827  0.33233  0.15173  Biso   1.000  N
  C219     1.0000 0.12084  0.42693  0.35936  Biso   1.000  C
  C220     1.0000 0.10031  0.48620  0.37637  Biso   1.000  C
  C221     1.0000 0.07019  0.47129  0.41025  Biso   1.000  C
  H79      1.0000 0.05963  0.42307  0.42137  Biso   1.000  H
  O79      1.0000 0.14959  0.44428  0.32916  Biso   1.000  O
  O80      1.0000 0.10974  0.36596  0.37666  Biso   1.000  O
  C222     1.0000 0.06493  0.58187  0.48617  Biso   1.000  C
  C223     1.0000 0.04253  0.56887  0.52087  Biso   1.000  C
  C224     1.0000 0.95663  0.42387  0.50987  Biso   1.000  C
  H80      1.0000 0.93103  0.36847  0.51857  Biso   1.000  H
  C225     1.0000 0.97903  0.43687  0.47517  Biso   1.000  C
  H81      1.0000 0.95733  0.39177  0.45907  Biso   1.000  H
  O81      1.0000 0.12283  0.69967  0.51717  Biso   1.000  O
  N53      1.0000 0.06953  0.63877  0.54117  Biso   1.000  N
  N54      1.0000 0.11493  0.66567  0.48507  Biso   1.000  N
  C226     1.0000 0.02725  0.23974  0.30731  Biso   1.000  C
  C227     1.0000 0.94745  0.18047  0.29030  Biso   1.000  C
  C228     1.0000 0.93224  0.19538  0.25642  Biso   1.000  C
  H82      1.0000 0.96990  0.24360  0.24530  Biso   1.000  H
  O82      1.0000 0.03865  0.22239  0.33751  Biso   1.000  O
  O83      1.0000 0.07712  0.30071  0.29001  Biso   1.000  O
  C229     1.0000 0.81640  0.08480  0.18050  Biso   1.000  C
  C230     1.0000 0.80700  0.09780  0.14580  Biso   1.000  C
  C231     1.0000 0.86610  0.24280  0.15680  Biso   1.000  C
  H83      1.0000 0.89590  0.29820  0.14810  Biso   1.000  H
  C232     1.0000 0.87550  0.22980  0.19150  Biso   1.000  C
  H84      1.0000 0.89890  0.27490  0.20760  Biso   1.000  H
  O84      1.0000 0.75650  0.96700  0.14950  Biso   1.000  O
  N55      1.0000 0.76410  0.02790  0.12550  Biso   1.000  N
  N56      1.0000 0.78260  0.00100  0.18160  Biso   1.000  N
  C233     1.0000 0.69392  0.57307  0.64064  Biso   1.000  C
  C234     1.0000 0.61412  0.51380  0.62363  Biso   1.000  C
  C235     1.0000 0.59891  0.52871  0.58975  Biso   1.000  C
  H85      1.0000 0.63657  0.57693  0.57863  Biso   1.000  H
  O85      1.0000 0.70532  0.55572  0.67084  Biso   1.000  O
  O86      1.0000 0.74379  0.63404  0.62334  Biso   1.000  O
  C236     1.0000 0.48307  0.41813  0.51383  Biso   1.000  C
  C237     1.0000 0.47367  0.43113  0.47913  Biso   1.000  C
  C238     1.0000 0.53277  0.57613  0.49013  Biso   1.000  C
  H86      1.0000 0.56257  0.63153  0.48143  Biso   1.000  H
  C239     1.0000 0.54217  0.56313  0.52483  Biso   1.000  C
  H87      1.0000 0.56557  0.60823  0.54093  Biso   1.000  H
  O87      1.0000 0.42317  0.30033  0.48283  Biso   1.000  O
  N57      1.0000 0.43077  0.36123  0.45883  Biso   1.000  N
  N58      1.0000 0.44927  0.33433  0.51493  Biso   1.000  N
  C240     1.0000 0.36058  0.90641  0.97398  Biso   1.000  C
  C241     1.0000 0.28078  0.84714  0.95697  Biso   1.000  C
  C242     1.0000 0.26557  0.86205  0.92309  Biso   1.000  C
  H88      1.0000 0.30323  0.91027  0.91197  Biso   1.000  H
  O88      1.0000 0.37198  0.88906  0.00418  Biso   1.000  O
  O89      1.0000 0.41045  0.96738  0.95668  Biso   1.000  O
  C243     1.0000 0.14973  0.75147  0.84717  Biso   1.000  C
  C244     1.0000 0.14033  0.76447  0.81247  Biso   1.000  C
  C245     1.0000 0.19943  0.90947  0.82347  Biso   1.000  C
  H89      1.0000 0.22923  0.96487  0.81477  Biso   1.000  H
  C246     1.0000 0.20883  0.89647  0.85817  Biso   1.000  C
  H90      1.0000 0.23223  0.94157  0.87427  Biso   1.000  H
  O90      1.0000 0.08983  0.63367  0.81617  Biso   1.000  O
  N59      1.0000 0.09743  0.69457  0.79217  Biso   1.000  N
  N60      1.0000 0.11593  0.66767  0.84827  Biso   1.000  N
  C247     1.0000 0.21249  0.97275  0.30731  Biso   1.000  C
  C248     1.0000 0.23302  0.05255  0.29030  Biso   1.000  C
  C249     1.0000 0.26314  0.06776  0.25642  Biso   1.000  C
  H91      1.0000 0.27370  0.03010  0.24530  Biso   1.000  H
  O91      1.0000 0.18374  0.96135  0.33751  Biso   1.000  O
  O92      1.0000 0.22359  0.92288  0.29001  Biso   1.000  O
  C250     1.0000 0.26840  0.18360  0.18050  Biso   1.000  C
  C251     1.0000 0.29080  0.19300  0.14580  Biso   1.000  C
  C252     1.0000 0.37670  0.13390  0.15680  Biso   1.000  C
  H92      1.0000 0.40230  0.10410  0.14810  Biso   1.000  H
  C253     1.0000 0.35430  0.12450  0.19150  Biso   1.000  C
  H93      1.0000 0.37600  0.10110  0.20760  Biso   1.000  H
  O93      1.0000 0.21050  0.24350  0.14950  Biso   1.000  O
  N61      1.0000 0.26380  0.23590  0.12550  Biso   1.000  N
  N62      1.0000 0.21840  0.21740  0.18160  Biso   1.000  N
  C254     1.0000 0.87916  0.30608  0.64064  Biso   1.000  C
  C255     1.0000 0.89969  0.38588  0.62363  Biso   1.000  C
  C256     1.0000 0.92981  0.40109  0.58975  Biso   1.000  C
  H94      1.0000 0.94037  0.36343  0.57863  Biso   1.000  H
  O94      1.0000 0.85041  0.29468  0.67084  Biso   1.000  O
  O95      1.0000 0.89026  0.25621  0.62334  Biso   1.000  O
  C257     1.0000 0.93507  0.51693  0.51383  Biso   1.000  C
  C258     1.0000 0.95747  0.52633  0.47913  Biso   1.000  C
  C259     1.0000 0.04337  0.46723  0.49013  Biso   1.000  C
  H95      1.0000 0.06897  0.43743  0.48143  Biso   1.000  H
  C260     1.0000 0.02097  0.45783  0.52483  Biso   1.000  C
  H96      1.0000 0.04267  0.43443  0.54093  Biso   1.000  H
  O96      1.0000 0.87717  0.57683  0.48283  Biso   1.000  O
  N63      1.0000 0.93047  0.56923  0.45883  Biso   1.000  N
  N64      1.0000 0.88507  0.55073  0.51493  Biso   1.000  N
  C261     1.0000 0.54582  0.63942  0.97398  Biso   1.000  C
  C262     1.0000 0.56635  0.71922  0.95697  Biso   1.000  C
  C263     1.0000 0.59647  0.73443  0.92309  Biso   1.000  C
  H97      1.0000 0.60703  0.69677  0.91197  Biso   1.000  H
  O97      1.0000 0.51707  0.62802  0.00418  Biso   1.000  O
  O98      1.0000 0.55692  0.58955  0.95668  Biso   1.000  O
  C264     1.0000 0.60173  0.85027  0.84717  Biso   1.000  C
  C265     1.0000 0.62413  0.85967  0.81247  Biso   1.000  C
  C266     1.0000 0.71003  0.80057  0.82347  Biso   1.000  C
  H98      1.0000 0.73563  0.77077  0.81477  Biso   1.000  H
  C267     1.0000 0.68763  0.79117  0.85817  Biso   1.000  C
  H99      1.0000 0.70933  0.76777  0.87427  Biso   1.000  H
  O99      1.0000 0.54383  0.91017  0.81617  Biso   1.000  O
  N65      1.0000 0.59713  0.90257  0.79217  Biso   1.000  N
  N66      1.0000 0.55173  0.88407  0.84827  Biso   1.000  N
  C268     1.0000 0.76026  0.78751  0.30731  Biso   1.000  C
  C269     1.0000 0.81953  0.76698  0.29030  Biso   1.000  C
  C270     1.0000 0.80462  0.73686  0.25642  Biso   1.000  C
  H100     1.0000 0.75640  0.72630  0.24530  Biso   1.000  H
  O100     1.0000 0.77761  0.81626  0.33751  Biso   1.000  O
  O101     1.0000 0.69929  0.77641  0.29001  Biso   1.000  O
  C271     1.0000 0.91520  0.73160  0.18050  Biso   1.000  C
  C272     1.0000 0.90220  0.70920  0.14580  Biso   1.000  C
  C273     1.0000 0.75720  0.62330  0.15680  Biso   1.000  C
  H101     1.0000 0.70180  0.59770  0.14810  Biso   1.000  H
  C274     1.0000 0.77020  0.64570  0.19150  Biso   1.000  C
  H102     1.0000 0.72510  0.62400  0.20760  Biso   1.000  H
  O102     1.0000 0.03300  0.78950  0.14950  Biso   1.000  O
  N67      1.0000 0.97210  0.73620  0.12550  Biso   1.000  N
  N68      1.0000 0.99900  0.78160  0.18160  Biso   1.000  N
  C275     1.0000 0.42693  0.12084  0.64064  Biso   1.000  C
  C276     1.0000 0.48620  0.10031  0.62363  Biso   1.000  C
  C277     1.0000 0.47129  0.07019  0.58975  Biso   1.000  C
  H103     1.0000 0.42307  0.05963  0.57863  Biso   1.000  H
  O103     1.0000 0.44428  0.14959  0.67084  Biso   1.000  O
  O104     1.0000 0.36596  0.10974  0.62334  Biso   1.000  O
  C278     1.0000 0.58187  0.06493  0.51383  Biso   1.000  C
  C279     1.0000 0.56887  0.04253  0.47913  Biso   1.000  C
  C280     1.0000 0.42387  0.95663  0.49013  Biso   1.000  C
  H104     1.0000 0.36847  0.93103  0.48143  Biso   1.000  H
  C281     1.0000 0.43687  0.97903  0.52483  Biso   1.000  C
  H105     1.0000 0.39177  0.95733  0.54093  Biso   1.000  H
  O105     1.0000 0.69967  0.12283  0.48283  Biso   1.000  O
  N69      1.0000 0.63877  0.06953  0.45883  Biso   1.000  N
  N70      1.0000 0.66567  0.11493  0.51493  Biso   1.000  N
  C282     1.0000 0.09359  0.45418  0.97398  Biso   1.000  C
  C283     1.0000 0.15286  0.43365  0.95697  Biso   1.000  C
  C284     1.0000 0.13795  0.40353  0.92309  Biso   1.000  C
  H106     1.0000 0.08973  0.39297  0.91197  Biso   1.000  H
  O106     1.0000 0.11094  0.48293  0.00418  Biso   1.000  O
  O107     1.0000 0.03262  0.44308  0.95668  Biso   1.000  O
  C285     1.0000 0.24853  0.39827  0.84717  Biso   1.000  C
  C286     1.0000 0.23553  0.37587  0.81247  Biso   1.000  C
  C287     1.0000 0.09053  0.28997  0.82347  Biso   1.000  C
  H107     1.0000 0.03513  0.26437  0.81477  Biso   1.000  H
  C288     1.0000 0.10353  0.31237  0.85817  Biso   1.000  C
  H108     1.0000 0.05843  0.29067  0.87427  Biso   1.000  H
  O108     1.0000 0.36633  0.45617  0.81617  Biso   1.000  O
  N71      1.0000 0.30543  0.40287  0.79217  Biso   1.000  N
  N72      1.0000 0.33233  0.44827  0.84827  Biso   1.000  N
  C289     1.0000 0.89075  0.10925  0.30699  Biso   1.000  C
  H109     1.0000 0.90060  0.09940  0.32960  Biso   1.000  H
  C290     1.0000 0.86127  0.13873  0.23932  Biso   1.000  C
  C291     1.0000 0.84920  0.15080  0.20330  Biso   1.000  C
  C292     1.0000 0.55742  0.44258  0.64032  Biso   1.000  C
  H110     1.0000 0.56727  0.43273  0.66293  Biso   1.000  H
  C293     1.0000 0.52794  0.47206  0.57265  Biso   1.000  C
  C294     1.0000 0.51587  0.48413  0.53663  Biso   1.000  C
  C295     1.0000 0.22408  0.77592  0.97366  Biso   1.000  C
  H111     1.0000 0.23393  0.76607  0.99627  Biso   1.000  H
  C296     1.0000 0.19460  0.80540  0.90599  Biso   1.000  C
  C297     1.0000 0.18253  0.81747  0.86997  Biso   1.000  C
  C298     1.0000 0.89075  0.78150  0.30699  Biso   1.000  C
  H112     1.0000 0.90060  0.80120  0.32960  Biso   1.000  H
  C299     1.0000 0.86127  0.72254  0.23932  Biso   1.000  C
  C300     1.0000 0.84920  0.69840  0.20330  Biso   1.000  C
  C301     1.0000 0.55742  0.11483  0.64032  Biso   1.000  C
  H113     1.0000 0.56727  0.13453  0.66293  Biso   1.000  H
  C302     1.0000 0.52794  0.05587  0.57265  Biso   1.000  C
  C303     1.0000 0.51587  0.03173  0.53663  Biso   1.000  C
  C304     1.0000 0.22408  0.44817  0.97366  Biso   1.000  C
  H114     1.0000 0.23393  0.46787  0.99627  Biso   1.000  H
  C305     1.0000 0.19460  0.38921  0.90599  Biso   1.000  C
  C306     1.0000 0.18253  0.36507  0.86997  Biso   1.000  C
  C307     1.0000 0.21850  0.10925  0.30699  Biso   1.000  C
  H115     1.0000 0.19880  0.09940  0.32960  Biso   1.000  H
  C308     1.0000 0.27746  0.13873  0.23932  Biso   1.000  C
  C309     1.0000 0.30160  0.15080  0.20330  Biso   1.000  C
  C310     1.0000 0.88517  0.44258  0.64032  Biso   1.000  C
  H116     1.0000 0.86547  0.43273  0.66293  Biso   1.000  H
  C311     1.0000 0.94413  0.47206  0.57265  Biso   1.000  C
  C312     1.0000 0.96827  0.48413  0.53663  Biso   1.000  C
  C313     1.0000 0.55183  0.77592  0.97366  Biso   1.000  C
  H117     1.0000 0.53213  0.76607  0.99627  Biso   1.000  H
  C314     1.0000 0.61079  0.80540  0.90599  Biso   1.000  C
  C315     1.0000 0.63493  0.81747  0.86997  Biso   1.000  C
  C316     1.0000 0.10925  0.89075  0.69301  Biso   1.000  C
  H118     1.0000 0.09940  0.90060  0.67040  Biso   1.000  H
  C317     1.0000 0.13873  0.86127  0.76068  Biso   1.000  C
  C318     1.0000 0.15080  0.84920  0.79670  Biso   1.000  C
  C319     1.0000 0.77592  0.22408  0.02634  Biso   1.000  C
  H119     1.0000 0.76607  0.23393  0.00373  Biso   1.000  H
  C320     1.0000 0.80540  0.19460  0.09401  Biso   1.000  C
  C321     1.0000 0.81747  0.18253  0.13003  Biso   1.000  C
  C322     1.0000 0.44258  0.55742  0.35968  Biso   1.000  C
  H120     1.0000 0.43273  0.56727  0.33707  Biso   1.000  H
  C323     1.0000 0.47206  0.52794  0.42735  Biso   1.000  C
  C324     1.0000 0.48413  0.51587  0.46337  Biso   1.000  C
  C325     1.0000 0.78150  0.89075  0.69301  Biso   1.000  C
  H121     1.0000 0.80120  0.90060  0.67040  Biso   1.000  H
  C326     1.0000 0.72254  0.86127  0.76068  Biso   1.000  C
  C327     1.0000 0.69840  0.84920  0.79670  Biso   1.000  C
  C328     1.0000 0.44817  0.22408  0.02634  Biso   1.000  C
  H122     1.0000 0.46787  0.23393  0.00373  Biso   1.000  H
  C329     1.0000 0.38921  0.19460  0.09401  Biso   1.000  C
  C330     1.0000 0.36507  0.18253  0.13003  Biso   1.000  C
  C331     1.0000 0.11483  0.55742  0.35968  Biso   1.000  C
  H123     1.0000 0.13453  0.56727  0.33707  Biso   1.000  H
  C332     1.0000 0.05587  0.52794  0.42735  Biso   1.000  C
  C333     1.0000 0.03173  0.51587  0.46337  Biso   1.000  C
  C334     1.0000 0.10925  0.21850  0.69301  Biso   1.000  C
  H124     1.0000 0.09940  0.19880  0.67040  Biso   1.000  H
  C335     1.0000 0.13873  0.27746  0.76068  Biso   1.000  C
  C336     1.0000 0.15080  0.30160  0.79670  Biso   1.000  C
  C337     1.0000 0.77592  0.55183  0.02634  Biso   1.000  C
  H125     1.0000 0.76607  0.53213  0.00373  Biso   1.000  H
  C338     1.0000 0.80540  0.61079  0.09401  Biso   1.000  C
  C339     1.0000 0.81747  0.63493  0.13003  Biso   1.000  C
  C340     1.0000 0.44258  0.88517  0.35968  Biso   1.000  C
  H126     1.0000 0.43273  0.86547  0.33707  Biso   1.000  H
  C341     1.0000 0.47206  0.94413  0.42735  Biso   1.000  C
  C342     1.0000 0.48413  0.96827  0.46337  Biso   1.000  C
  Cu1      1.0000 0.71277  0.85638  0.36166  Biso   1.000  Cu
  Cu2      1.0000 0.37944  0.18972  0.69499  Biso   1.000  Cu
  Cu3      1.0000 0.04610  0.52305  0.02833  Biso   1.000  Cu
  Cu4      1.0000 0.14362  0.85638  0.36166  Biso   1.000  Cu
  Cu5      1.0000 0.81028  0.18972  0.69499  Biso   1.000  Cu
  Cu6      1.0000 0.47695  0.52305  0.02833  Biso   1.000  Cu
  Cu7      1.0000 0.14361  0.28723  0.36166  Biso   1.000  Cu
  Cu8      1.0000 0.81028  0.62056  0.69499  Biso   1.000  Cu
  Cu9      1.0000 0.47695  0.95390  0.02833  Biso   1.000  Cu
  Cu10     1.0000 0.85638  0.71277  0.63834  Biso   1.000  Cu
  Cu11     1.0000 0.52305  0.04610  0.97167  Biso   1.000  Cu
  Cu12     1.0000 0.18972  0.37944  0.30501  Biso   1.000  Cu
  Cu13     1.0000 0.85639  0.14362  0.63834  Biso   1.000  Cu
  Cu14     1.0000 0.52305  0.47695  0.97167  Biso   1.000  Cu
  Cu15     1.0000 0.18972  0.81028  0.30501  Biso   1.000  Cu
  Cu16     1.0000 0.28723  0.14361  0.63834  Biso   1.000  Cu
  Cu17     1.0000 0.95390  0.47695  0.97167  Biso   1.000  Cu
  Cu18     1.0000 0.62056  0.81028  0.30501  Biso   1.000  Cu
