data_image0
_cell_length_a       33.6473
_cell_length_b       33.6473
_cell_length_c       33.6473
_cell_angle_alpha    90
_cell_angle_beta     90
_cell_angle_gamma    90

_symmetry_space_group_name_H-M    "P 1"
_symmetry_int_tables_number       1

loop_
  _symmetry_equiv_pos_as_xyz
  'x, y, z'

loop_
  _atom_site_label
  _atom_site_occupancy
  _atom_site_fract_x
  _atom_site_fract_y
  _atom_site_fract_z
  _atom_site_thermal_displace_type
  _atom_site_B_iso_or_equiv
  _atom_site_type_symbol
  C1       1.0000 0.40820  0.09470  0.49720  Biso   1.000  C
  C2       1.0000 0.37810  0.12550  0.48650  Biso   1.000  C
  C3       1.0000 0.38940  0.16380  0.47290  Biso   1.000  C
  H1       1.0000 0.41670  0.17020  0.46990  Biso   1.000  H
  C4       1.0000 0.36130  0.19130  0.46420  Biso   1.000  C
  C5       1.0000 0.32020  0.18260  0.46930  Biso   1.000  C
  C6       1.0000 0.31050  0.14500  0.48400  Biso   1.000  C
  H2       1.0000 0.28340  0.13950  0.48990  Biso   1.000  H
  C7       1.0000 0.33830  0.11530  0.49050  Biso   1.000  C
  H3       1.0000 0.33040  0.08910  0.49740  Biso   1.000  H
  C8       1.0000 0.29130  0.21190  0.46270  Biso   1.000  C
  C9       1.0000 0.26490  0.23620  0.46070  Biso   1.000  C
  O1       1.0000 0.36770  0.22850  0.44920  Biso   1.000  O
  C10      1.0000 0.40760  0.24270  0.44430  Biso   1.000  C
  H4       1.0000 0.42140  0.22700  0.42360  Biso   1.000  H
  H5       1.0000 0.42250  0.24000  0.46950  Biso   1.000  H
  C11      1.0000 0.40570  0.28520  0.43220  Biso   1.000  C
  C12      1.0000 0.38210  0.30990  0.46310  Biso   1.000  C
  H6       1.0000 0.35420  0.30050  0.46320  Biso   1.000  H
  H7       1.0000 0.38200  0.33800  0.45450  Biso   1.000  H
  C13      1.0000 0.37110  0.26860  0.53610  Biso   1.000  C
  H8       1.0000 0.38370  0.24270  0.53170  Biso   1.000  H
  H9       1.0000 0.34450  0.26860  0.52440  Biso   1.000  H
  H10      1.0000 0.36910  0.27360  0.56480  Biso   1.000  H
  C14      1.0000 0.44880  0.29960  0.42770  Biso   1.000  C
  H11      1.0000 0.46180  0.28330  0.40690  Biso   1.000  H
  H12      1.0000 0.46290  0.29430  0.45300  Biso   1.000  H
  C15      1.0000 0.46470  0.37340  0.46460  Biso   1.000  C
  H13      1.0000 0.48800  0.36100  0.47690  Biso   1.000  H
  H14      1.0000 0.44140  0.36920  0.48160  Biso   1.000  H
  H15      1.0000 0.46940  0.40190  0.46150  Biso   1.000  H
  C16      1.0000 0.38240  0.29260  0.39370  Biso   1.000  C
  H16      1.0000 0.38090  0.32160  0.38920  Biso   1.000  H
  H17      1.0000 0.35490  0.28270  0.39740  Biso   1.000  H
  C17      1.0000 0.37000  0.22580  0.34500  Biso   1.000  C
  H18      1.0000 0.37770  0.20980  0.32140  Biso   1.000  H
  H19      1.0000 0.37210  0.20950  0.36860  Biso   1.000  H
  H20      1.0000 0.34270  0.23500  0.34130  Biso   1.000  H
  C18      1.0000 0.59560  0.09000  0.49260  Biso   1.000  C
  C19      1.0000 0.62700  0.12050  0.48280  Biso   1.000  C
  C20      1.0000 0.61630  0.16130  0.48620  Biso   1.000  C
  H21      1.0000 0.58970  0.16820  0.49290  Biso   1.000  H
  C21      1.0000 0.64350  0.19010  0.48020  Biso   1.000  C
  C22      1.0000 0.68160  0.18020  0.46460  Biso   1.000  C
  C23      1.0000 0.69120  0.14020  0.46020  Biso   1.000  C
  H22      1.0000 0.71630  0.13330  0.44930  Biso   1.000  H
  C24      1.0000 0.66530  0.10980  0.47120  Biso   1.000  C
  H23      1.0000 0.67350  0.08280  0.47090  Biso   1.000  H
  C25      1.0000 0.71050  0.20960  0.45750  Biso   1.000  C
  C26      1.0000 0.73590  0.23520  0.45540  Biso   1.000  C
  O2       1.0000 0.63590  0.22980  0.48370  Biso   1.000  O
  C27      1.0000 0.60430  0.24200  0.50920  Biso   1.000  C
  H24      1.0000 0.60790  0.23100  0.53620  Biso   1.000  H
  H25      1.0000 0.57840  0.23300  0.49860  Biso   1.000  H
  C28      1.0000 0.60660  0.28910  0.50990  Biso   1.000  C
  C29      1.0000 0.64280  0.30170  0.52670  Biso   1.000  C
  H26      1.0000 0.64330  0.33110  0.52600  Biso   1.000  H
  H27      1.0000 0.66450  0.29230  0.50920  Biso   1.000  H
  S1       1.0000 0.65410  0.28680  0.57500  Biso   1.000  S
  C30      1.0000 0.70180  0.31410  0.57270  Biso   1.000  C
  H28      1.0000 0.71600  0.31090  0.59790  Biso   1.000  H
  H29      1.0000 0.71800  0.30340  0.55100  Biso   1.000  H
  H30      1.0000 0.69660  0.34230  0.56790  Biso   1.000  H
  C31      1.0000 0.57520  0.30070  0.53760  Biso   1.000  C
  H31      1.0000 0.57950  0.28650  0.56300  Biso   1.000  H
  H32      1.0000 0.54940  0.29170  0.52670  Biso   1.000  H
  C32      1.0000 0.52170  0.36170  0.56930  Biso   1.000  C
  H33      1.0000 0.51890  0.39010  0.57530  Biso   1.000  H
  H34      1.0000 0.50130  0.35380  0.55010  Biso   1.000  H
  H35      1.0000 0.51850  0.34630  0.59380  Biso   1.000  H
  C33      1.0000 0.60050  0.30430  0.46770  Biso   1.000  C
  H36      1.0000 0.62360  0.29560  0.45160  Biso   1.000  H
  H37      1.0000 0.60090  0.33370  0.46850  Biso   1.000  H
  C34      1.0000 0.57350  0.24530  0.41440  Biso   1.000  C
  H38      1.0000 0.60170  0.24120  0.42020  Biso   1.000  H
  H39      1.0000 0.57000  0.24970  0.38580  Biso   1.000  H
  H40      1.0000 0.55840  0.22170  0.42250  Biso   1.000  H
  O3       1.0000 0.44550  0.10780  0.49760  Biso   1.000  O
  O4       1.0000 0.39660  0.05990  0.50100  Biso   1.000  O
  O5       1.0000 0.56000  0.10360  0.49590  Biso   1.000  O
  O6       1.0000 0.60630  0.05450  0.49510  Biso   1.000  O
  S2       1.0000 0.40110  0.30740  0.51310  Biso   1.000  S
  S3       1.0000 0.45580  0.35074  0.41530  Biso   1.000  S
  S4       1.0000 0.40350  0.26900  0.34880  Biso   1.000  S
  S5       1.0000 0.57160  0.35230  0.54800  Biso   1.000  S
  S6       1.0000 0.55530  0.28880  0.44190  Biso   1.000  S
  Zr1      1.0000 0.50169  0.07346  0.49820  Biso   1.000  Zr
  O7       1.0000 0.53200  0.02950  0.46990  Biso   1.000  O
  Hg1      1.0000 0.65763  0.38376  0.38919  Biso   1.000  Hg
  Cl1      1.0000 0.69730  0.35070  0.43980  Biso   1.000  Cl
  Cl2      1.0000 0.61870  0.34920  0.34350  Biso   1.000  Cl
  C35      1.0000 0.39300  0.23000  0.31100  Biso   1.000  C
  H41      1.0000 0.41490  0.22910  0.29220  Biso   1.000  H
  H42      1.0000 0.38980  0.20470  0.32440  Biso   1.000  H
  H43      1.0000 0.36830  0.23710  0.29720  Biso   1.000  H
  C36      1.0000 0.62530  0.12270  0.49000  Biso   1.000  C
  C37      1.0000 0.61610  0.16310  0.49760  Biso   1.000  C
  H44      1.0000 0.58990  0.17090  0.50480  Biso   1.000  H
  C38      1.0000 0.64550  0.19010  0.49430  Biso   1.000  C
  C39      1.0000 0.68430  0.17740  0.48350  Biso   1.000  C
  C40      1.0000 0.69230  0.13760  0.47620  Biso   1.000  C
  H45      1.0000 0.71850  0.12980  0.46900  Biso   1.000  H
  C41      1.0000 0.66270  0.10900  0.47940  Biso   1.000  C
  H46      1.0000 0.66780  0.08160  0.47450  Biso   1.000  H
  C42      1.0000 0.71470  0.20610  0.48020  Biso   1.000  C
  C43      1.0000 0.73720  0.23410  0.47870  Biso   1.000  C
  O8       1.0000 0.64350  0.23000  0.50010  Biso   1.000  O
  H47      1.0000 0.59580  0.23150  0.53530  Biso   1.000  H
  H48      1.0000 0.58550  0.23270  0.48850  Biso   1.000  H
  O9       1.0000 0.54090  0.03770  0.45570  Biso   1.000  O
  H49      1.0000 0.55810  0.05380  0.43750  Biso   1.000  H
  C44      1.0000 0.09180  0.40530  0.49720  Biso   1.000  C
  C45      1.0000 0.12190  0.37450  0.48650  Biso   1.000  C
  C46      1.0000 0.11060  0.33620  0.47290  Biso   1.000  C
  H50      1.0000 0.08330  0.32980  0.46990  Biso   1.000  H
  C47      1.0000 0.13870  0.30870  0.46420  Biso   1.000  C
  C48      1.0000 0.17980  0.31740  0.46930  Biso   1.000  C
  C49      1.0000 0.18950  0.35500  0.48400  Biso   1.000  C
  H51      1.0000 0.21660  0.36050  0.48990  Biso   1.000  H
  C50      1.0000 0.16170  0.38470  0.49050  Biso   1.000  C
  H52      1.0000 0.16960  0.41090  0.49740  Biso   1.000  H
  C51      1.0000 0.20870  0.28810  0.46270  Biso   1.000  C
  C52      1.0000 0.23510  0.26380  0.46070  Biso   1.000  C
  O10      1.0000 0.13230  0.27150  0.44920  Biso   1.000  O
  C53      1.0000 0.09240  0.25730  0.44430  Biso   1.000  C
  H53      1.0000 0.07860  0.27300  0.42360  Biso   1.000  H
  H54      1.0000 0.07750  0.26000  0.46950  Biso   1.000  H
  C54      1.0000 0.09430  0.21480  0.43220  Biso   1.000  C
  C55      1.0000 0.11790  0.19010  0.46310  Biso   1.000  C
  H55      1.0000 0.14580  0.19950  0.46320  Biso   1.000  H
  H56      1.0000 0.11800  0.16200  0.45450  Biso   1.000  H
  C56      1.0000 0.12890  0.23140  0.53610  Biso   1.000  C
  H57      1.0000 0.11630  0.25730  0.53170  Biso   1.000  H
  H58      1.0000 0.15550  0.23140  0.52440  Biso   1.000  H
  H59      1.0000 0.13090  0.22640  0.56480  Biso   1.000  H
  C57      1.0000 0.05120  0.20040  0.42770  Biso   1.000  C
  H60      1.0000 0.03820  0.21670  0.40690  Biso   1.000  H
  H61      1.0000 0.03710  0.20570  0.45300  Biso   1.000  H
  C58      1.0000 0.03530  0.12660  0.46460  Biso   1.000  C
  H62      1.0000 0.01200  0.13900  0.47690  Biso   1.000  H
  H63      1.0000 0.05860  0.13080  0.48160  Biso   1.000  H
  H64      1.0000 0.03060  0.09810  0.46150  Biso   1.000  H
  C59      1.0000 0.11760  0.20740  0.39370  Biso   1.000  C
  H65      1.0000 0.11910  0.17840  0.38920  Biso   1.000  H
  H66      1.0000 0.14510  0.21730  0.39740  Biso   1.000  H
  C60      1.0000 0.13000  0.27420  0.34500  Biso   1.000  C
  H67      1.0000 0.12230  0.29020  0.32140  Biso   1.000  H
  H68      1.0000 0.12790  0.29050  0.36860  Biso   1.000  H
  H69      1.0000 0.15730  0.26500  0.34130  Biso   1.000  H
  C61      1.0000 0.90440  0.41000  0.49260  Biso   1.000  C
  C62      1.0000 0.87300  0.37950  0.48280  Biso   1.000  C
  C63      1.0000 0.88370  0.33870  0.48620  Biso   1.000  C
  H70      1.0000 0.91030  0.33180  0.49290  Biso   1.000  H
  C64      1.0000 0.85650  0.30990  0.48020  Biso   1.000  C
  C65      1.0000 0.81840  0.31980  0.46460  Biso   1.000  C
  C66      1.0000 0.80880  0.35980  0.46020  Biso   1.000  C
  H71      1.0000 0.78370  0.36670  0.44930  Biso   1.000  H
  C67      1.0000 0.83470  0.39020  0.47120  Biso   1.000  C
  H72      1.0000 0.82650  0.41720  0.47090  Biso   1.000  H
  C68      1.0000 0.78950  0.29040  0.45750  Biso   1.000  C
  C69      1.0000 0.76410  0.26480  0.45540  Biso   1.000  C
  O11      1.0000 0.86410  0.27020  0.48370  Biso   1.000  O
  C70      1.0000 0.89570  0.25800  0.50920  Biso   1.000  C
  H73      1.0000 0.89210  0.26900  0.53620  Biso   1.000  H
  H74      1.0000 0.92160  0.26700  0.49860  Biso   1.000  H
  C71      1.0000 0.89340  0.21090  0.50990  Biso   1.000  C
  C72      1.0000 0.85720  0.19830  0.52670  Biso   1.000  C
  H75      1.0000 0.85670  0.16890  0.52600  Biso   1.000  H
  H76      1.0000 0.83550  0.20770  0.50920  Biso   1.000  H
  S7       1.0000 0.84590  0.21320  0.57500  Biso   1.000  S
  C73      1.0000 0.79820  0.18590  0.57270  Biso   1.000  C
  H77      1.0000 0.78400  0.18910  0.59790  Biso   1.000  H
  H78      1.0000 0.78200  0.19660  0.55100  Biso   1.000  H
  H79      1.0000 0.80340  0.15770  0.56790  Biso   1.000  H
  C74      1.0000 0.92480  0.19930  0.53760  Biso   1.000  C
  H80      1.0000 0.92050  0.21350  0.56300  Biso   1.000  H
  H81      1.0000 0.95060  0.20830  0.52670  Biso   1.000  H
  C75      1.0000 0.97830  0.13830  0.56930  Biso   1.000  C
  H82      1.0000 0.98110  0.10990  0.57530  Biso   1.000  H
  H83      1.0000 0.99870  0.14620  0.55010  Biso   1.000  H
  H84      1.0000 0.98150  0.15370  0.59380  Biso   1.000  H
  C76      1.0000 0.89950  0.19570  0.46770  Biso   1.000  C
  H85      1.0000 0.87640  0.20440  0.45160  Biso   1.000  H
  H86      1.0000 0.89910  0.16630  0.46850  Biso   1.000  H
  C77      1.0000 0.92650  0.25470  0.41440  Biso   1.000  C
  H87      1.0000 0.89830  0.25880  0.42020  Biso   1.000  H
  H88      1.0000 0.93000  0.25030  0.38580  Biso   1.000  H
  H89      1.0000 0.94160  0.27830  0.42250  Biso   1.000  H
  O12      1.0000 0.05450  0.39220  0.49760  Biso   1.000  O
  O13      1.0000 0.10340  0.44010  0.50100  Biso   1.000  O
  O14      1.0000 0.94000  0.39640  0.49590  Biso   1.000  O
  O15      1.0000 0.89370  0.44550  0.49510  Biso   1.000  O
  S8       1.0000 0.09890  0.19260  0.51310  Biso   1.000  S
  S9       1.0000 0.04420  0.14926  0.41530  Biso   1.000  S
  S10      1.0000 0.09650  0.23100  0.34880  Biso   1.000  S
  S11      1.0000 0.92840  0.14770  0.54800  Biso   1.000  S
  S12      1.0000 0.94470  0.21120  0.44190  Biso   1.000  S
  Zr2      1.0000 0.99831  0.42654  0.49820  Biso   1.000  Zr
  O16      1.0000 0.96800  0.47050  0.46990  Biso   1.000  O
  Hg2      1.0000 0.84237  0.11624  0.38919  Biso   1.000  Hg
  Cl3      1.0000 0.80270  0.14930  0.43980  Biso   1.000  Cl
  Cl4      1.0000 0.88130  0.15080  0.34350  Biso   1.000  Cl
  C78      1.0000 0.10700  0.27000  0.31100  Biso   1.000  C
  H90      1.0000 0.08510  0.27090  0.29220  Biso   1.000  H
  H91      1.0000 0.11020  0.29530  0.32440  Biso   1.000  H
  H92      1.0000 0.13170  0.26290  0.29720  Biso   1.000  H
  C79      1.0000 0.87470  0.37730  0.49000  Biso   1.000  C
  C80      1.0000 0.88390  0.33690  0.49760  Biso   1.000  C
  H93      1.0000 0.91010  0.32910  0.50480  Biso   1.000  H
  C81      1.0000 0.85450  0.30990  0.49430  Biso   1.000  C
  C82      1.0000 0.81570  0.32260  0.48350  Biso   1.000  C
  C83      1.0000 0.80770  0.36240  0.47620  Biso   1.000  C
  H94      1.0000 0.78150  0.37020  0.46900  Biso   1.000  H
  C84      1.0000 0.83730  0.39100  0.47940  Biso   1.000  C
  H95      1.0000 0.83220  0.41840  0.47450  Biso   1.000  H
  C85      1.0000 0.78530  0.29390  0.48020  Biso   1.000  C
  C86      1.0000 0.76280  0.26590  0.47870  Biso   1.000  C
  O17      1.0000 0.85650  0.27000  0.50010  Biso   1.000  O
  H96      1.0000 0.90420  0.26850  0.53530  Biso   1.000  H
  H97      1.0000 0.91450  0.26730  0.48850  Biso   1.000  H
  O18      1.0000 0.95910  0.46230  0.45570  Biso   1.000  O
  H98      1.0000 0.94190  0.44620  0.43750  Biso   1.000  H
  C87      1.0000 0.09180  0.09470  0.00280  Biso   1.000  C
  C88      1.0000 0.12190  0.12550  0.01350  Biso   1.000  C
  C89      1.0000 0.11060  0.16380  0.02710  Biso   1.000  C
  H99      1.0000 0.08330  0.17020  0.03010  Biso   1.000  H
  C90      1.0000 0.13870  0.19130  0.03580  Biso   1.000  C
  C91      1.0000 0.17980  0.18260  0.03070  Biso   1.000  C
  C92      1.0000 0.18950  0.14500  0.01600  Biso   1.000  C
  H100     1.0000 0.21660  0.13950  0.01010  Biso   1.000  H
  C93      1.0000 0.16170  0.11530  0.00950  Biso   1.000  C
  H101     1.0000 0.16960  0.08910  0.00260  Biso   1.000  H
  C94      1.0000 0.20870  0.21190  0.03730  Biso   1.000  C
  C95      1.0000 0.23510  0.23620  0.03930  Biso   1.000  C
  O19      1.0000 0.13230  0.22850  0.05080  Biso   1.000  O
  C96      1.0000 0.09240  0.24270  0.05570  Biso   1.000  C
  H102     1.0000 0.07860  0.22700  0.07640  Biso   1.000  H
  H103     1.0000 0.07750  0.24000  0.03050  Biso   1.000  H
  C97      1.0000 0.09430  0.28520  0.06780  Biso   1.000  C
  C98      1.0000 0.11790  0.30990  0.03690  Biso   1.000  C
  H104     1.0000 0.14580  0.30050  0.03680  Biso   1.000  H
  H105     1.0000 0.11800  0.33800  0.04550  Biso   1.000  H
  C99      1.0000 0.12890  0.26860  0.96390  Biso   1.000  C
  H106     1.0000 0.11630  0.24270  0.96830  Biso   1.000  H
  H107     1.0000 0.15550  0.26860  0.97560  Biso   1.000  H
  H108     1.0000 0.13090  0.27360  0.93520  Biso   1.000  H
  C100     1.0000 0.05120  0.29960  0.07230  Biso   1.000  C
  H109     1.0000 0.03820  0.28330  0.09310  Biso   1.000  H
  H110     1.0000 0.03710  0.29430  0.04700  Biso   1.000  H
  C101     1.0000 0.03530  0.37340  0.03540  Biso   1.000  C
  H111     1.0000 0.01200  0.36100  0.02310  Biso   1.000  H
  H112     1.0000 0.05860  0.36920  0.01840  Biso   1.000  H
  H113     1.0000 0.03060  0.40190  0.03850  Biso   1.000  H
  C102     1.0000 0.11760  0.29260  0.10630  Biso   1.000  C
  H114     1.0000 0.11910  0.32160  0.11080  Biso   1.000  H
  H115     1.0000 0.14510  0.28270  0.10260  Biso   1.000  H
  C103     1.0000 0.13000  0.22580  0.15500  Biso   1.000  C
  H116     1.0000 0.12230  0.20980  0.17860  Biso   1.000  H
  H117     1.0000 0.12790  0.20950  0.13140  Biso   1.000  H
  H118     1.0000 0.15730  0.23500  0.15870  Biso   1.000  H
  C104     1.0000 0.90440  0.09000  0.00740  Biso   1.000  C
  C105     1.0000 0.87300  0.12050  0.01720  Biso   1.000  C
  C106     1.0000 0.88370  0.16130  0.01380  Biso   1.000  C
  H119     1.0000 0.91030  0.16820  0.00710  Biso   1.000  H
  C107     1.0000 0.85650  0.19010  0.01980  Biso   1.000  C
  C108     1.0000 0.81840  0.18020  0.03540  Biso   1.000  C
  C109     1.0000 0.80880  0.14020  0.03980  Biso   1.000  C
  H120     1.0000 0.78370  0.13330  0.05070  Biso   1.000  H
  C110     1.0000 0.83470  0.10980  0.02880  Biso   1.000  C
  H121     1.0000 0.82650  0.08280  0.02910  Biso   1.000  H
  C111     1.0000 0.78950  0.20960  0.04250  Biso   1.000  C
  C112     1.0000 0.76410  0.23520  0.04460  Biso   1.000  C
  O20      1.0000 0.86410  0.22980  0.01630  Biso   1.000  O
  C113     1.0000 0.89570  0.24200  0.99080  Biso   1.000  C
  H122     1.0000 0.89210  0.23100  0.96380  Biso   1.000  H
  H123     1.0000 0.92160  0.23300  0.00140  Biso   1.000  H
  C114     1.0000 0.89340  0.28910  0.99010  Biso   1.000  C
  C115     1.0000 0.85720  0.30170  0.97330  Biso   1.000  C
  H124     1.0000 0.85670  0.33110  0.97400  Biso   1.000  H
  H125     1.0000 0.83550  0.29230  0.99080  Biso   1.000  H
  S13      1.0000 0.84590  0.28680  0.92500  Biso   1.000  S
  C116     1.0000 0.79820  0.31410  0.92730  Biso   1.000  C
  H126     1.0000 0.78400  0.31090  0.90210  Biso   1.000  H
  H127     1.0000 0.78200  0.30340  0.94900  Biso   1.000  H
  H128     1.0000 0.80340  0.34230  0.93210  Biso   1.000  H
  C117     1.0000 0.92480  0.30070  0.96240  Biso   1.000  C
  H129     1.0000 0.92050  0.28650  0.93700  Biso   1.000  H
  H130     1.0000 0.95060  0.29170  0.97330  Biso   1.000  H
  C118     1.0000 0.97830  0.36170  0.93070  Biso   1.000  C
  H131     1.0000 0.98110  0.39010  0.92470  Biso   1.000  H
  H132     1.0000 0.99870  0.35380  0.94990  Biso   1.000  H
  H133     1.0000 0.98150  0.34630  0.90620  Biso   1.000  H
  C119     1.0000 0.89950  0.30430  0.03230  Biso   1.000  C
  H134     1.0000 0.87640  0.29560  0.04840  Biso   1.000  H
  H135     1.0000 0.89910  0.33370  0.03150  Biso   1.000  H
  C120     1.0000 0.92650  0.24530  0.08560  Biso   1.000  C
  H136     1.0000 0.89830  0.24120  0.07980  Biso   1.000  H
  H137     1.0000 0.93000  0.24970  0.11420  Biso   1.000  H
  H138     1.0000 0.94160  0.22170  0.07750  Biso   1.000  H
  O21      1.0000 0.05450  0.10780  0.00240  Biso   1.000  O
  O22      1.0000 0.10340  0.05990  0.99900  Biso   1.000  O
  O23      1.0000 0.94000  0.10360  0.00410  Biso   1.000  O
  O24      1.0000 0.89370  0.05450  0.00490  Biso   1.000  O
  S14      1.0000 0.09890  0.30740  0.98690  Biso   1.000  S
  S15      1.0000 0.04420  0.35074  0.08470  Biso   1.000  S
  S16      1.0000 0.09650  0.26900  0.15120  Biso   1.000  S
  S17      1.0000 0.92840  0.35230  0.95200  Biso   1.000  S
  S18      1.0000 0.94470  0.28880  0.05810  Biso   1.000  S
  Zr3      1.0000 0.99831  0.07346  0.00180  Biso   1.000  Zr
  O25      1.0000 0.96800  0.02950  0.03010  Biso   1.000  O
  Hg3      1.0000 0.84237  0.38376  0.11081  Biso   1.000  Hg
  Cl5      1.0000 0.80270  0.35070  0.06020  Biso   1.000  Cl
  Cl6      1.0000 0.88130  0.34920  0.15650  Biso   1.000  Cl
  C121     1.0000 0.10700  0.23000  0.18900  Biso   1.000  C
  H139     1.0000 0.08510  0.22910  0.20780  Biso   1.000  H
  H140     1.0000 0.11020  0.20470  0.17560  Biso   1.000  H
  H141     1.0000 0.13170  0.23710  0.20280  Biso   1.000  H
  C122     1.0000 0.87470  0.12270  0.01000  Biso   1.000  C
  C123     1.0000 0.88390  0.16310  0.00240  Biso   1.000  C
  H142     1.0000 0.91010  0.17090  0.99520  Biso   1.000  H
  C124     1.0000 0.85450  0.19010  0.00570  Biso   1.000  C
  C125     1.0000 0.81570  0.17740  0.01650  Biso   1.000  C
  C126     1.0000 0.80770  0.13760  0.02380  Biso   1.000  C
  H143     1.0000 0.78150  0.12980  0.03100  Biso   1.000  H
  C127     1.0000 0.83730  0.10900  0.02060  Biso   1.000  C
  H144     1.0000 0.83220  0.08160  0.02550  Biso   1.000  H
  C128     1.0000 0.78530  0.20610  0.01980  Biso   1.000  C
  C129     1.0000 0.76280  0.23410  0.02130  Biso   1.000  C
  O26      1.0000 0.85650  0.23000  0.99990  Biso   1.000  O
  H145     1.0000 0.90420  0.23150  0.96470  Biso   1.000  H
  H146     1.0000 0.91450  0.23270  0.01150  Biso   1.000  H
  O27      1.0000 0.95910  0.03770  0.04430  Biso   1.000  O
  H147     1.0000 0.94190  0.05380  0.06250  Biso   1.000  H
  C130     1.0000 0.40820  0.40530  0.00280  Biso   1.000  C
  C131     1.0000 0.37810  0.37450  0.01350  Biso   1.000  C
  C132     1.0000 0.38940  0.33620  0.02710  Biso   1.000  C
  H148     1.0000 0.41670  0.32980  0.03010  Biso   1.000  H
  C133     1.0000 0.36130  0.30870  0.03580  Biso   1.000  C
  C134     1.0000 0.32020  0.31740  0.03070  Biso   1.000  C
  C135     1.0000 0.31050  0.35500  0.01600  Biso   1.000  C
  H149     1.0000 0.28340  0.36050  0.01010  Biso   1.000  H
  C136     1.0000 0.33830  0.38470  0.00950  Biso   1.000  C
  H150     1.0000 0.33040  0.41090  0.00260  Biso   1.000  H
  C137     1.0000 0.29130  0.28810  0.03730  Biso   1.000  C
  C138     1.0000 0.26490  0.26380  0.03930  Biso   1.000  C
  O28      1.0000 0.36770  0.27150  0.05080  Biso   1.000  O
  C139     1.0000 0.40760  0.25730  0.05570  Biso   1.000  C
  H151     1.0000 0.42140  0.27300  0.07640  Biso   1.000  H
  H152     1.0000 0.42250  0.26000  0.03050  Biso   1.000  H
  C140     1.0000 0.40570  0.21480  0.06780  Biso   1.000  C
  C141     1.0000 0.38210  0.19010  0.03690  Biso   1.000  C
  H153     1.0000 0.35420  0.19950  0.03680  Biso   1.000  H
  H154     1.0000 0.38200  0.16200  0.04550  Biso   1.000  H
  C142     1.0000 0.37110  0.23140  0.96390  Biso   1.000  C
  H155     1.0000 0.38370  0.25730  0.96830  Biso   1.000  H
  H156     1.0000 0.34450  0.23140  0.97560  Biso   1.000  H
  H157     1.0000 0.36910  0.22640  0.93520  Biso   1.000  H
  C143     1.0000 0.44880  0.20040  0.07230  Biso   1.000  C
  H158     1.0000 0.46180  0.21670  0.09310  Biso   1.000  H
  H159     1.0000 0.46290  0.20570  0.04700  Biso   1.000  H
  C144     1.0000 0.46470  0.12660  0.03540  Biso   1.000  C
  H160     1.0000 0.48800  0.13900  0.02310  Biso   1.000  H
  H161     1.0000 0.44140  0.13080  0.01840  Biso   1.000  H
  H162     1.0000 0.46940  0.09810  0.03850  Biso   1.000  H
  C145     1.0000 0.38240  0.20740  0.10630  Biso   1.000  C
  H163     1.0000 0.38090  0.17840  0.11080  Biso   1.000  H
  H164     1.0000 0.35490  0.21730  0.10260  Biso   1.000  H
  C146     1.0000 0.37000  0.27420  0.15500  Biso   1.000  C
  H165     1.0000 0.37770  0.29020  0.17860  Biso   1.000  H
  H166     1.0000 0.37210  0.29050  0.13140  Biso   1.000  H
  H167     1.0000 0.34270  0.26500  0.15870  Biso   1.000  H
  C147     1.0000 0.59560  0.41000  0.00740  Biso   1.000  C
  C148     1.0000 0.62700  0.37950  0.01720  Biso   1.000  C
  C149     1.0000 0.61630  0.33870  0.01380  Biso   1.000  C
  H168     1.0000 0.58970  0.33180  0.00710  Biso   1.000  H
  C150     1.0000 0.64350  0.30990  0.01980  Biso   1.000  C
  C151     1.0000 0.68160  0.31980  0.03540  Biso   1.000  C
  C152     1.0000 0.69120  0.35980  0.03980  Biso   1.000  C
  H169     1.0000 0.71630  0.36670  0.05070  Biso   1.000  H
  C153     1.0000 0.66530  0.39020  0.02880  Biso   1.000  C
  H170     1.0000 0.67350  0.41720  0.02910  Biso   1.000  H
  C154     1.0000 0.71050  0.29040  0.04250  Biso   1.000  C
  C155     1.0000 0.73590  0.26480  0.04460  Biso   1.000  C
  O29      1.0000 0.63590  0.27020  0.01630  Biso   1.000  O
  C156     1.0000 0.60430  0.25800  0.99080  Biso   1.000  C
  H171     1.0000 0.60790  0.26900  0.96380  Biso   1.000  H
  H172     1.0000 0.57840  0.26700  0.00140  Biso   1.000  H
  C157     1.0000 0.60660  0.21090  0.99010  Biso   1.000  C
  C158     1.0000 0.64280  0.19830  0.97330  Biso   1.000  C
  H173     1.0000 0.64330  0.16890  0.97400  Biso   1.000  H
  H174     1.0000 0.66450  0.20770  0.99080  Biso   1.000  H
  S19      1.0000 0.65410  0.21320  0.92500  Biso   1.000  S
  C159     1.0000 0.70180  0.18590  0.92730  Biso   1.000  C
  H175     1.0000 0.71600  0.18910  0.90210  Biso   1.000  H
  H176     1.0000 0.71800  0.19660  0.94900  Biso   1.000  H
  H177     1.0000 0.69660  0.15770  0.93210  Biso   1.000  H
  C160     1.0000 0.57520  0.19930  0.96240  Biso   1.000  C
  H178     1.0000 0.57950  0.21350  0.93700  Biso   1.000  H
  H179     1.0000 0.54940  0.20830  0.97330  Biso   1.000  H
  C161     1.0000 0.52170  0.13830  0.93070  Biso   1.000  C
  H180     1.0000 0.51890  0.10990  0.92470  Biso   1.000  H
  H181     1.0000 0.50130  0.14620  0.94990  Biso   1.000  H
  H182     1.0000 0.51850  0.15370  0.90620  Biso   1.000  H
  C162     1.0000 0.60050  0.19570  0.03230  Biso   1.000  C
  H183     1.0000 0.62360  0.20440  0.04840  Biso   1.000  H
  H184     1.0000 0.60090  0.16630  0.03150  Biso   1.000  H
  C163     1.0000 0.57350  0.25470  0.08560  Biso   1.000  C
  H185     1.0000 0.60170  0.25880  0.07980  Biso   1.000  H
  H186     1.0000 0.57000  0.25030  0.11420  Biso   1.000  H
  H187     1.0000 0.55840  0.27830  0.07750  Biso   1.000  H
  O30      1.0000 0.44550  0.39220  0.00240  Biso   1.000  O
  O31      1.0000 0.39660  0.44010  0.99900  Biso   1.000  O
  O32      1.0000 0.56000  0.39640  0.00410  Biso   1.000  O
  O33      1.0000 0.60630  0.44550  0.00490  Biso   1.000  O
  S20      1.0000 0.40110  0.19260  0.98690  Biso   1.000  S
  S21      1.0000 0.45580  0.14926  0.08470  Biso   1.000  S
  S22      1.0000 0.40350  0.23100  0.15120  Biso   1.000  S
  S23      1.0000 0.57160  0.14770  0.95200  Biso   1.000  S
  S24      1.0000 0.55530  0.21120  0.05810  Biso   1.000  S
  Zr4      1.0000 0.50169  0.42654  0.00180  Biso   1.000  Zr
  O34      1.0000 0.53200  0.47050  0.03010  Biso   1.000  O
  Hg4      1.0000 0.65763  0.11624  0.11081  Biso   1.000  Hg
  Cl7      1.0000 0.69730  0.14930  0.06020  Biso   1.000  Cl
  Cl8      1.0000 0.61870  0.15080  0.15650  Biso   1.000  Cl
  C164     1.0000 0.39300  0.27000  0.18900  Biso   1.000  C
  H188     1.0000 0.41490  0.27090  0.20780  Biso   1.000  H
  H189     1.0000 0.38980  0.29530  0.17560  Biso   1.000  H
  H190     1.0000 0.36830  0.26290  0.20280  Biso   1.000  H
  C165     1.0000 0.62530  0.37730  0.01000  Biso   1.000  C
  C166     1.0000 0.61610  0.33690  0.00240  Biso   1.000  C
  H191     1.0000 0.58990  0.32910  0.99520  Biso   1.000  H
  C167     1.0000 0.64550  0.30990  0.00570  Biso   1.000  C
  C168     1.0000 0.68430  0.32260  0.01650  Biso   1.000  C
  C169     1.0000 0.69230  0.36240  0.02380  Biso   1.000  C
  H192     1.0000 0.71850  0.37020  0.03100  Biso   1.000  H
  C170     1.0000 0.66270  0.39100  0.02060  Biso   1.000  C
  H193     1.0000 0.66780  0.41840  0.02550  Biso   1.000  H
  C171     1.0000 0.71470  0.29390  0.01980  Biso   1.000  C
  C172     1.0000 0.73720  0.26590  0.02130  Biso   1.000  C
  O35      1.0000 0.64350  0.27000  0.99990  Biso   1.000  O
  H194     1.0000 0.59580  0.26850  0.96470  Biso   1.000  H
  H195     1.0000 0.58550  0.26730  0.01150  Biso   1.000  H
  O36      1.0000 0.54090  0.46230  0.04430  Biso   1.000  O
  H196     1.0000 0.55810  0.44620  0.06250  Biso   1.000  H
  C173     1.0000 0.49720  0.40820  0.09470  Biso   1.000  C
  C174     1.0000 0.48650  0.37810  0.12550  Biso   1.000  C
  C175     1.0000 0.47290  0.38940  0.16380  Biso   1.000  C
  H197     1.0000 0.46990  0.41670  0.17020  Biso   1.000  H
  C176     1.0000 0.46420  0.36130  0.19130  Biso   1.000  C
  C177     1.0000 0.46930  0.32020  0.18260  Biso   1.000  C
  C178     1.0000 0.48400  0.31050  0.14500  Biso   1.000  C
  H198     1.0000 0.48990  0.28340  0.13950  Biso   1.000  H
  C179     1.0000 0.49050  0.33830  0.11530  Biso   1.000  C
  H199     1.0000 0.49740  0.33040  0.08910  Biso   1.000  H
  C180     1.0000 0.46270  0.29130  0.21190  Biso   1.000  C
  C181     1.0000 0.46070  0.26490  0.23620  Biso   1.000  C
  O37      1.0000 0.44920  0.36770  0.22850  Biso   1.000  O
  C182     1.0000 0.44430  0.40760  0.24270  Biso   1.000  C
  H200     1.0000 0.42360  0.42140  0.22700  Biso   1.000  H
  H201     1.0000 0.46950  0.42250  0.24000  Biso   1.000  H
  C183     1.0000 0.43220  0.40570  0.28520  Biso   1.000  C
  C184     1.0000 0.46310  0.38210  0.30990  Biso   1.000  C
  H202     1.0000 0.46320  0.35420  0.30050  Biso   1.000  H
  H203     1.0000 0.45450  0.38200  0.33800  Biso   1.000  H
  C185     1.0000 0.53610  0.37110  0.26860  Biso   1.000  C
  H204     1.0000 0.53170  0.38370  0.24270  Biso   1.000  H
  H205     1.0000 0.52440  0.34450  0.26860  Biso   1.000  H
  H206     1.0000 0.56480  0.36910  0.27360  Biso   1.000  H
  C186     1.0000 0.42770  0.44880  0.29960  Biso   1.000  C
  H207     1.0000 0.40690  0.46180  0.28330  Biso   1.000  H
  H208     1.0000 0.45300  0.46290  0.29430  Biso   1.000  H
  C187     1.0000 0.46460  0.46470  0.37340  Biso   1.000  C
  H209     1.0000 0.47690  0.48800  0.36100  Biso   1.000  H
  H210     1.0000 0.48160  0.44140  0.36920  Biso   1.000  H
  H211     1.0000 0.46150  0.46940  0.40190  Biso   1.000  H
  C188     1.0000 0.39370  0.38240  0.29260  Biso   1.000  C
  H212     1.0000 0.38920  0.38090  0.32160  Biso   1.000  H
  H213     1.0000 0.39740  0.35490  0.28270  Biso   1.000  H
  C189     1.0000 0.34500  0.37000  0.22580  Biso   1.000  C
  H214     1.0000 0.32140  0.37770  0.20980  Biso   1.000  H
  H215     1.0000 0.36860  0.37210  0.20950  Biso   1.000  H
  H216     1.0000 0.34130  0.34270  0.23500  Biso   1.000  H
  C190     1.0000 0.49260  0.59560  0.09000  Biso   1.000  C
  C191     1.0000 0.48280  0.62700  0.12050  Biso   1.000  C
  C192     1.0000 0.48620  0.61630  0.16130  Biso   1.000  C
  H217     1.0000 0.49290  0.58970  0.16820  Biso   1.000  H
  C193     1.0000 0.48020  0.64350  0.19010  Biso   1.000  C
  C194     1.0000 0.46460  0.68160  0.18020  Biso   1.000  C
  C195     1.0000 0.46020  0.69120  0.14020  Biso   1.000  C
  H218     1.0000 0.44930  0.71630  0.13330  Biso   1.000  H
  C196     1.0000 0.47120  0.66530  0.10980  Biso   1.000  C
  H219     1.0000 0.47090  0.67350  0.08280  Biso   1.000  H
  C197     1.0000 0.45750  0.71050  0.20960  Biso   1.000  C
  C198     1.0000 0.45540  0.73590  0.23520  Biso   1.000  C
  O38      1.0000 0.48370  0.63590  0.22980  Biso   1.000  O
  C199     1.0000 0.50920  0.60430  0.24200  Biso   1.000  C
  H220     1.0000 0.53620  0.60790  0.23100  Biso   1.000  H
  H221     1.0000 0.49860  0.57840  0.23300  Biso   1.000  H
  C200     1.0000 0.50990  0.60660  0.28910  Biso   1.000  C
  C201     1.0000 0.52670  0.64280  0.30170  Biso   1.000  C
  H222     1.0000 0.52600  0.64330  0.33110  Biso   1.000  H
  H223     1.0000 0.50920  0.66450  0.29230  Biso   1.000  H
  S25      1.0000 0.57500  0.65410  0.28680  Biso   1.000  S
  C202     1.0000 0.57270  0.70180  0.31410  Biso   1.000  C
  H224     1.0000 0.59790  0.71600  0.31090  Biso   1.000  H
  H225     1.0000 0.55100  0.71800  0.30340  Biso   1.000  H
  H226     1.0000 0.56790  0.69660  0.34230  Biso   1.000  H
  C203     1.0000 0.53760  0.57520  0.30070  Biso   1.000  C
  H227     1.0000 0.56300  0.57950  0.28650  Biso   1.000  H
  H228     1.0000 0.52670  0.54940  0.29170  Biso   1.000  H
  C204     1.0000 0.56930  0.52170  0.36170  Biso   1.000  C
  H229     1.0000 0.57530  0.51890  0.39010  Biso   1.000  H
  H230     1.0000 0.55010  0.50130  0.35380  Biso   1.000  H
  H231     1.0000 0.59380  0.51850  0.34630  Biso   1.000  H
  C205     1.0000 0.46770  0.60050  0.30430  Biso   1.000  C
  H232     1.0000 0.45160  0.62360  0.29560  Biso   1.000  H
  H233     1.0000 0.46850  0.60090  0.33370  Biso   1.000  H
  C206     1.0000 0.41440  0.57350  0.24530  Biso   1.000  C
  H234     1.0000 0.42020  0.60170  0.24120  Biso   1.000  H
  H235     1.0000 0.38580  0.57000  0.24970  Biso   1.000  H
  H236     1.0000 0.42250  0.55840  0.22170  Biso   1.000  H
  O39      1.0000 0.49760  0.44550  0.10780  Biso   1.000  O
  O40      1.0000 0.50100  0.39660  0.05990  Biso   1.000  O
  O41      1.0000 0.49590  0.56000  0.10360  Biso   1.000  O
  O42      1.0000 0.49510  0.60630  0.05450  Biso   1.000  O
  S26      1.0000 0.51310  0.40110  0.30740  Biso   1.000  S
  S27      1.0000 0.41530  0.45580  0.35074  Biso   1.000  S
  S28      1.0000 0.34880  0.40350  0.26900  Biso   1.000  S
  S29      1.0000 0.54800  0.57160  0.35230  Biso   1.000  S
  S30      1.0000 0.44190  0.55530  0.28880  Biso   1.000  S
  Zr5      1.0000 0.49820  0.50169  0.07346  Biso   1.000  Zr
  O43      1.0000 0.46990  0.53200  0.02950  Biso   1.000  O
  Hg5      1.0000 0.38919  0.65763  0.38376  Biso   1.000  Hg
  Cl9      1.0000 0.43980  0.69730  0.35070  Biso   1.000  Cl
  Cl10     1.0000 0.34350  0.61870  0.34920  Biso   1.000  Cl
  C207     1.0000 0.31100  0.39300  0.23000  Biso   1.000  C
  H237     1.0000 0.29220  0.41490  0.22910  Biso   1.000  H
  H238     1.0000 0.32440  0.38980  0.20470  Biso   1.000  H
  H239     1.0000 0.29720  0.36830  0.23710  Biso   1.000  H
  C208     1.0000 0.49000  0.62530  0.12270  Biso   1.000  C
  C209     1.0000 0.49760  0.61610  0.16310  Biso   1.000  C
  H240     1.0000 0.50480  0.58990  0.17090  Biso   1.000  H
  C210     1.0000 0.49430  0.64550  0.19010  Biso   1.000  C
  C211     1.0000 0.48350  0.68430  0.17740  Biso   1.000  C
  C212     1.0000 0.47620  0.69230  0.13760  Biso   1.000  C
  H241     1.0000 0.46900  0.71850  0.12980  Biso   1.000  H
  C213     1.0000 0.47940  0.66270  0.10900  Biso   1.000  C
  H242     1.0000 0.47450  0.66780  0.08160  Biso   1.000  H
  C214     1.0000 0.48020  0.71470  0.20610  Biso   1.000  C
  C215     1.0000 0.47870  0.73720  0.23410  Biso   1.000  C
  O44      1.0000 0.50010  0.64350  0.23000  Biso   1.000  O
  H243     1.0000 0.53530  0.59580  0.23150  Biso   1.000  H
  H244     1.0000 0.48850  0.58550  0.23270  Biso   1.000  H
  O45      1.0000 0.45570  0.54090  0.03770  Biso   1.000  O
  H245     1.0000 0.43750  0.55810  0.05380  Biso   1.000  H
  C216     1.0000 0.49720  0.09180  0.40530  Biso   1.000  C
  C217     1.0000 0.48650  0.12190  0.37450  Biso   1.000  C
  C218     1.0000 0.47290  0.11060  0.33620  Biso   1.000  C
  H246     1.0000 0.46990  0.08330  0.32980  Biso   1.000  H
  C219     1.0000 0.46420  0.13870  0.30870  Biso   1.000  C
  C220     1.0000 0.46930  0.17980  0.31740  Biso   1.000  C
  C221     1.0000 0.48400  0.18950  0.35500  Biso   1.000  C
  H247     1.0000 0.48990  0.21660  0.36050  Biso   1.000  H
  C222     1.0000 0.49050  0.16170  0.38470  Biso   1.000  C
  H248     1.0000 0.49740  0.16960  0.41090  Biso   1.000  H
  C223     1.0000 0.46270  0.20870  0.28810  Biso   1.000  C
  C224     1.0000 0.46070  0.23510  0.26380  Biso   1.000  C
  O46      1.0000 0.44920  0.13230  0.27150  Biso   1.000  O
  C225     1.0000 0.44430  0.09240  0.25730  Biso   1.000  C
  H249     1.0000 0.42360  0.07860  0.27300  Biso   1.000  H
  H250     1.0000 0.46950  0.07750  0.26000  Biso   1.000  H
  C226     1.0000 0.43220  0.09430  0.21480  Biso   1.000  C
  C227     1.0000 0.46310  0.11790  0.19010  Biso   1.000  C
  H251     1.0000 0.46320  0.14580  0.19950  Biso   1.000  H
  H252     1.0000 0.45450  0.11800  0.16200  Biso   1.000  H
  C228     1.0000 0.53610  0.12890  0.23140  Biso   1.000  C
  H253     1.0000 0.53170  0.11630  0.25730  Biso   1.000  H
  H254     1.0000 0.52440  0.15550  0.23140  Biso   1.000  H
  H255     1.0000 0.56480  0.13090  0.22640  Biso   1.000  H
  C229     1.0000 0.42770  0.05120  0.20040  Biso   1.000  C
  H256     1.0000 0.40690  0.03820  0.21670  Biso   1.000  H
  H257     1.0000 0.45300  0.03710  0.20570  Biso   1.000  H
  C230     1.0000 0.46460  0.03530  0.12660  Biso   1.000  C
  H258     1.0000 0.47690  0.01200  0.13900  Biso   1.000  H
  H259     1.0000 0.48160  0.05860  0.13080  Biso   1.000  H
  H260     1.0000 0.46150  0.03060  0.09810  Biso   1.000  H
  C231     1.0000 0.39370  0.11760  0.20740  Biso   1.000  C
  H261     1.0000 0.38920  0.11910  0.17840  Biso   1.000  H
  H262     1.0000 0.39740  0.14510  0.21730  Biso   1.000  H
  C232     1.0000 0.34500  0.13000  0.27420  Biso   1.000  C
  H263     1.0000 0.32140  0.12230  0.29020  Biso   1.000  H
  H264     1.0000 0.36860  0.12790  0.29050  Biso   1.000  H
  H265     1.0000 0.34130  0.15730  0.26500  Biso   1.000  H
  C233     1.0000 0.49260  0.90440  0.41000  Biso   1.000  C
  C234     1.0000 0.48280  0.87300  0.37950  Biso   1.000  C
  C235     1.0000 0.48620  0.88370  0.33870  Biso   1.000  C
  H266     1.0000 0.49290  0.91030  0.33180  Biso   1.000  H
  C236     1.0000 0.48020  0.85650  0.30990  Biso   1.000  C
  C237     1.0000 0.46460  0.81840  0.31980  Biso   1.000  C
  C238     1.0000 0.46020  0.80880  0.35980  Biso   1.000  C
  H267     1.0000 0.44930  0.78370  0.36670  Biso   1.000  H
  C239     1.0000 0.47120  0.83470  0.39020  Biso   1.000  C
  H268     1.0000 0.47090  0.82650  0.41720  Biso   1.000  H
  C240     1.0000 0.45750  0.78950  0.29040  Biso   1.000  C
  C241     1.0000 0.45540  0.76410  0.26480  Biso   1.000  C
  O47      1.0000 0.48370  0.86410  0.27020  Biso   1.000  O
  C242     1.0000 0.50920  0.89570  0.25800  Biso   1.000  C
  H269     1.0000 0.53620  0.89210  0.26900  Biso   1.000  H
  H270     1.0000 0.49860  0.92160  0.26700  Biso   1.000  H
  C243     1.0000 0.50990  0.89340  0.21090  Biso   1.000  C
  C244     1.0000 0.52670  0.85720  0.19830  Biso   1.000  C
  H271     1.0000 0.52600  0.85670  0.16890  Biso   1.000  H
  H272     1.0000 0.50920  0.83550  0.20770  Biso   1.000  H
  S31      1.0000 0.57500  0.84590  0.21320  Biso   1.000  S
  C245     1.0000 0.57270  0.79820  0.18590  Biso   1.000  C
  H273     1.0000 0.59790  0.78400  0.18910  Biso   1.000  H
  H274     1.0000 0.55100  0.78200  0.19660  Biso   1.000  H
  H275     1.0000 0.56790  0.80340  0.15770  Biso   1.000  H
  C246     1.0000 0.53760  0.92480  0.19930  Biso   1.000  C
  H276     1.0000 0.56300  0.92050  0.21350  Biso   1.000  H
  H277     1.0000 0.52670  0.95060  0.20830  Biso   1.000  H
  C247     1.0000 0.56930  0.97830  0.13830  Biso   1.000  C
  H278     1.0000 0.57530  0.98110  0.10990  Biso   1.000  H
  H279     1.0000 0.55010  0.99870  0.14620  Biso   1.000  H
  H280     1.0000 0.59380  0.98150  0.15370  Biso   1.000  H
  C248     1.0000 0.46770  0.89950  0.19570  Biso   1.000  C
  H281     1.0000 0.45160  0.87640  0.20440  Biso   1.000  H
  H282     1.0000 0.46850  0.89910  0.16630  Biso   1.000  H
  C249     1.0000 0.41440  0.92650  0.25470  Biso   1.000  C
  H283     1.0000 0.42020  0.89830  0.25880  Biso   1.000  H
  H284     1.0000 0.38580  0.93000  0.25030  Biso   1.000  H
  H285     1.0000 0.42250  0.94160  0.27830  Biso   1.000  H
  O48      1.0000 0.49760  0.05450  0.39220  Biso   1.000  O
  O49      1.0000 0.50100  0.10340  0.44010  Biso   1.000  O
  O50      1.0000 0.49590  0.94000  0.39640  Biso   1.000  O
  O51      1.0000 0.49510  0.89370  0.44550  Biso   1.000  O
  S32      1.0000 0.51310  0.09890  0.19260  Biso   1.000  S
  S33      1.0000 0.41530  0.04420  0.14926  Biso   1.000  S
  S34      1.0000 0.34880  0.09650  0.23100  Biso   1.000  S
  S35      1.0000 0.54800  0.92840  0.14770  Biso   1.000  S
  S36      1.0000 0.44190  0.94470  0.21120  Biso   1.000  S
  Zr6      1.0000 0.49820  0.99831  0.42654  Biso   1.000  Zr
  O52      1.0000 0.46990  0.96800  0.47050  Biso   1.000  O
  Hg6      1.0000 0.38919  0.84237  0.11624  Biso   1.000  Hg
  Cl11     1.0000 0.43980  0.80270  0.14930  Biso   1.000  Cl
  Cl12     1.0000 0.34350  0.88130  0.15080  Biso   1.000  Cl
  C250     1.0000 0.31100  0.10700  0.27000  Biso   1.000  C
  H286     1.0000 0.29220  0.08510  0.27090  Biso   1.000  H
  H287     1.0000 0.32440  0.11020  0.29530  Biso   1.000  H
  H288     1.0000 0.29720  0.13170  0.26290  Biso   1.000  H
  C251     1.0000 0.49000  0.87470  0.37730  Biso   1.000  C
  C252     1.0000 0.49760  0.88390  0.33690  Biso   1.000  C
  H289     1.0000 0.50480  0.91010  0.32910  Biso   1.000  H
  C253     1.0000 0.49430  0.85450  0.30990  Biso   1.000  C
  C254     1.0000 0.48350  0.81570  0.32260  Biso   1.000  C
  C255     1.0000 0.47620  0.80770  0.36240  Biso   1.000  C
  H290     1.0000 0.46900  0.78150  0.37020  Biso   1.000  H
  C256     1.0000 0.47940  0.83730  0.39100  Biso   1.000  C
  H291     1.0000 0.47450  0.83220  0.41840  Biso   1.000  H
  C257     1.0000 0.48020  0.78530  0.29390  Biso   1.000  C
  C258     1.0000 0.47870  0.76280  0.26590  Biso   1.000  C
  O53      1.0000 0.50010  0.85650  0.27000  Biso   1.000  O
  H292     1.0000 0.53530  0.90420  0.26850  Biso   1.000  H
  H293     1.0000 0.48850  0.91450  0.26730  Biso   1.000  H
  O54      1.0000 0.45570  0.95910  0.46230  Biso   1.000  O
  H294     1.0000 0.43750  0.94190  0.44620  Biso   1.000  H
  C259     1.0000 0.00280  0.09180  0.09470  Biso   1.000  C
  C260     1.0000 0.01350  0.12190  0.12550  Biso   1.000  C
  C261     1.0000 0.02710  0.11060  0.16380  Biso   1.000  C
  H295     1.0000 0.03010  0.08330  0.17020  Biso   1.000  H
  C262     1.0000 0.03580  0.13870  0.19130  Biso   1.000  C
  C263     1.0000 0.03070  0.17980  0.18260  Biso   1.000  C
  C264     1.0000 0.01600  0.18950  0.14500  Biso   1.000  C
  H296     1.0000 0.01010  0.21660  0.13950  Biso   1.000  H
  C265     1.0000 0.00950  0.16170  0.11530  Biso   1.000  C
  H297     1.0000 0.00260  0.16960  0.08910  Biso   1.000  H
  C266     1.0000 0.03730  0.20870  0.21190  Biso   1.000  C
  C267     1.0000 0.03930  0.23510  0.23620  Biso   1.000  C
  O55      1.0000 0.05080  0.13230  0.22850  Biso   1.000  O
  C268     1.0000 0.05570  0.09240  0.24270  Biso   1.000  C
  H298     1.0000 0.07640  0.07860  0.22700  Biso   1.000  H
  H299     1.0000 0.03050  0.07750  0.24000  Biso   1.000  H
  C269     1.0000 0.06780  0.09430  0.28520  Biso   1.000  C
  C270     1.0000 0.03690  0.11790  0.30990  Biso   1.000  C
  H300     1.0000 0.03680  0.14580  0.30050  Biso   1.000  H
  H301     1.0000 0.04550  0.11800  0.33800  Biso   1.000  H
  C271     1.0000 0.96390  0.12890  0.26860  Biso   1.000  C
  H302     1.0000 0.96830  0.11630  0.24270  Biso   1.000  H
  H303     1.0000 0.97560  0.15550  0.26860  Biso   1.000  H
  H304     1.0000 0.93520  0.13090  0.27360  Biso   1.000  H
  C272     1.0000 0.07230  0.05120  0.29960  Biso   1.000  C
  H305     1.0000 0.09310  0.03820  0.28330  Biso   1.000  H
  H306     1.0000 0.04700  0.03710  0.29430  Biso   1.000  H
  C273     1.0000 0.03540  0.03530  0.37340  Biso   1.000  C
  H307     1.0000 0.02310  0.01200  0.36100  Biso   1.000  H
  H308     1.0000 0.01840  0.05860  0.36920  Biso   1.000  H
  H309     1.0000 0.03850  0.03060  0.40190  Biso   1.000  H
  C274     1.0000 0.10630  0.11760  0.29260  Biso   1.000  C
  H310     1.0000 0.11080  0.11910  0.32160  Biso   1.000  H
  H311     1.0000 0.10260  0.14510  0.28270  Biso   1.000  H
  C275     1.0000 0.15500  0.13000  0.22580  Biso   1.000  C
  H312     1.0000 0.17860  0.12230  0.20980  Biso   1.000  H
  H313     1.0000 0.13140  0.12790  0.20950  Biso   1.000  H
  H314     1.0000 0.15870  0.15730  0.23500  Biso   1.000  H
  C276     1.0000 0.00740  0.90440  0.09000  Biso   1.000  C
  C277     1.0000 0.01720  0.87300  0.12050  Biso   1.000  C
  C278     1.0000 0.01380  0.88370  0.16130  Biso   1.000  C
  H315     1.0000 0.00710  0.91030  0.16820  Biso   1.000  H
  C279     1.0000 0.01980  0.85650  0.19010  Biso   1.000  C
  C280     1.0000 0.03540  0.81840  0.18020  Biso   1.000  C
  C281     1.0000 0.03980  0.80880  0.14020  Biso   1.000  C
  H316     1.0000 0.05070  0.78370  0.13330  Biso   1.000  H
  C282     1.0000 0.02880  0.83470  0.10980  Biso   1.000  C
  H317     1.0000 0.02910  0.82650  0.08280  Biso   1.000  H
  C283     1.0000 0.04250  0.78950  0.20960  Biso   1.000  C
  C284     1.0000 0.04460  0.76410  0.23520  Biso   1.000  C
  O56      1.0000 0.01630  0.86410  0.22980  Biso   1.000  O
  C285     1.0000 0.99080  0.89570  0.24200  Biso   1.000  C
  H318     1.0000 0.96380  0.89210  0.23100  Biso   1.000  H
  H319     1.0000 0.00140  0.92160  0.23300  Biso   1.000  H
  C286     1.0000 0.99010  0.89340  0.28910  Biso   1.000  C
  C287     1.0000 0.97330  0.85720  0.30170  Biso   1.000  C
  H320     1.0000 0.97400  0.85670  0.33110  Biso   1.000  H
  H321     1.0000 0.99080  0.83550  0.29230  Biso   1.000  H
  S37      1.0000 0.92500  0.84590  0.28680  Biso   1.000  S
  C288     1.0000 0.92730  0.79820  0.31410  Biso   1.000  C
  H322     1.0000 0.90210  0.78400  0.31090  Biso   1.000  H
  H323     1.0000 0.94900  0.78200  0.30340  Biso   1.000  H
  H324     1.0000 0.93210  0.80340  0.34230  Biso   1.000  H
  C289     1.0000 0.96240  0.92480  0.30070  Biso   1.000  C
  H325     1.0000 0.93700  0.92050  0.28650  Biso   1.000  H
  H326     1.0000 0.97330  0.95060  0.29170  Biso   1.000  H
  C290     1.0000 0.93070  0.97830  0.36170  Biso   1.000  C
  H327     1.0000 0.92470  0.98110  0.39010  Biso   1.000  H
  H328     1.0000 0.94990  0.99870  0.35380  Biso   1.000  H
  H329     1.0000 0.90620  0.98150  0.34630  Biso   1.000  H
  C291     1.0000 0.03230  0.89950  0.30430  Biso   1.000  C
  H330     1.0000 0.04840  0.87640  0.29560  Biso   1.000  H
  H331     1.0000 0.03150  0.89910  0.33370  Biso   1.000  H
  C292     1.0000 0.08560  0.92650  0.24530  Biso   1.000  C
  H332     1.0000 0.07980  0.89830  0.24120  Biso   1.000  H
  H333     1.0000 0.11420  0.93000  0.24970  Biso   1.000  H
  H334     1.0000 0.07750  0.94160  0.22170  Biso   1.000  H
  O57      1.0000 0.00240  0.05450  0.10780  Biso   1.000  O
  O58      1.0000 0.99900  0.10340  0.05990  Biso   1.000  O
  O59      1.0000 0.00410  0.94000  0.10360  Biso   1.000  O
  O60      1.0000 0.00490  0.89370  0.05450  Biso   1.000  O
  S38      1.0000 0.98690  0.09890  0.30740  Biso   1.000  S
  S39      1.0000 0.08470  0.04420  0.35074  Biso   1.000  S
  S40      1.0000 0.15120  0.09650  0.26900  Biso   1.000  S
  S41      1.0000 0.95200  0.92840  0.35230  Biso   1.000  S
  S42      1.0000 0.05810  0.94470  0.28880  Biso   1.000  S
  Zr7      1.0000 0.00180  0.99831  0.07346  Biso   1.000  Zr
  O61      1.0000 0.03010  0.96800  0.02950  Biso   1.000  O
  Hg7      1.0000 0.11081  0.84237  0.38376  Biso   1.000  Hg
  Cl13     1.0000 0.06020  0.80270  0.35070  Biso   1.000  Cl
  Cl14     1.0000 0.15650  0.88130  0.34920  Biso   1.000  Cl
  C293     1.0000 0.18900  0.10700  0.23000  Biso   1.000  C
  H335     1.0000 0.20780  0.08510  0.22910  Biso   1.000  H
  H336     1.0000 0.17560  0.11020  0.20470  Biso   1.000  H
  H337     1.0000 0.20280  0.13170  0.23710  Biso   1.000  H
  C294     1.0000 0.01000  0.87470  0.12270  Biso   1.000  C
  C295     1.0000 0.00240  0.88390  0.16310  Biso   1.000  C
  H338     1.0000 0.99520  0.91010  0.17090  Biso   1.000  H
  C296     1.0000 0.00570  0.85450  0.19010  Biso   1.000  C
  C297     1.0000 0.01650  0.81570  0.17740  Biso   1.000  C
  C298     1.0000 0.02380  0.80770  0.13760  Biso   1.000  C
  H339     1.0000 0.03100  0.78150  0.12980  Biso   1.000  H
  C299     1.0000 0.02060  0.83730  0.10900  Biso   1.000  C
  H340     1.0000 0.02550  0.83220  0.08160  Biso   1.000  H
  C300     1.0000 0.01980  0.78530  0.20610  Biso   1.000  C
  C301     1.0000 0.02130  0.76280  0.23410  Biso   1.000  C
  O62      1.0000 0.99990  0.85650  0.23000  Biso   1.000  O
  H341     1.0000 0.96470  0.90420  0.23150  Biso   1.000  H
  H342     1.0000 0.01150  0.91450  0.23270  Biso   1.000  H
  O63      1.0000 0.04430  0.95910  0.03770  Biso   1.000  O
  H343     1.0000 0.06250  0.94190  0.05380  Biso   1.000  H
  C302     1.0000 0.00280  0.40820  0.40530  Biso   1.000  C
  C303     1.0000 0.01350  0.37810  0.37450  Biso   1.000  C
  C304     1.0000 0.02710  0.38940  0.33620  Biso   1.000  C
  H344     1.0000 0.03010  0.41670  0.32980  Biso   1.000  H
  C305     1.0000 0.03580  0.36130  0.30870  Biso   1.000  C
  C306     1.0000 0.03070  0.32020  0.31740  Biso   1.000  C
  C307     1.0000 0.01600  0.31050  0.35500  Biso   1.000  C
  H345     1.0000 0.01010  0.28340  0.36050  Biso   1.000  H
  C308     1.0000 0.00950  0.33830  0.38470  Biso   1.000  C
  H346     1.0000 0.00260  0.33040  0.41090  Biso   1.000  H
  C309     1.0000 0.03730  0.29130  0.28810  Biso   1.000  C
  C310     1.0000 0.03930  0.26490  0.26380  Biso   1.000  C
  O64      1.0000 0.05080  0.36770  0.27150  Biso   1.000  O
  C311     1.0000 0.05570  0.40760  0.25730  Biso   1.000  C
  H347     1.0000 0.07640  0.42140  0.27300  Biso   1.000  H
  H348     1.0000 0.03050  0.42250  0.26000  Biso   1.000  H
  C312     1.0000 0.06780  0.40570  0.21480  Biso   1.000  C
  C313     1.0000 0.03690  0.38210  0.19010  Biso   1.000  C
  H349     1.0000 0.03680  0.35420  0.19950  Biso   1.000  H
  H350     1.0000 0.04550  0.38200  0.16200  Biso   1.000  H
  C314     1.0000 0.96390  0.37110  0.23140  Biso   1.000  C
  H351     1.0000 0.96830  0.38370  0.25730  Biso   1.000  H
  H352     1.0000 0.97560  0.34450  0.23140  Biso   1.000  H
  H353     1.0000 0.93520  0.36910  0.22640  Biso   1.000  H
  C315     1.0000 0.07230  0.44880  0.20040  Biso   1.000  C
  H354     1.0000 0.09310  0.46180  0.21670  Biso   1.000  H
  H355     1.0000 0.04700  0.46290  0.20570  Biso   1.000  H
  C316     1.0000 0.03540  0.46470  0.12660  Biso   1.000  C
  H356     1.0000 0.02310  0.48800  0.13900  Biso   1.000  H
  H357     1.0000 0.01840  0.44140  0.13080  Biso   1.000  H
  H358     1.0000 0.03850  0.46940  0.09810  Biso   1.000  H
  C317     1.0000 0.10630  0.38240  0.20740  Biso   1.000  C
  H359     1.0000 0.11080  0.38090  0.17840  Biso   1.000  H
  H360     1.0000 0.10260  0.35490  0.21730  Biso   1.000  H
  C318     1.0000 0.15500  0.37000  0.27420  Biso   1.000  C
  H361     1.0000 0.17860  0.37770  0.29020  Biso   1.000  H
  H362     1.0000 0.13140  0.37210  0.29050  Biso   1.000  H
  H363     1.0000 0.15870  0.34270  0.26500  Biso   1.000  H
  C319     1.0000 0.00740  0.59560  0.41000  Biso   1.000  C
  C320     1.0000 0.01720  0.62700  0.37950  Biso   1.000  C
  C321     1.0000 0.01380  0.61630  0.33870  Biso   1.000  C
  H364     1.0000 0.00710  0.58970  0.33180  Biso   1.000  H
  C322     1.0000 0.01980  0.64350  0.30990  Biso   1.000  C
  C323     1.0000 0.03540  0.68160  0.31980  Biso   1.000  C
  C324     1.0000 0.03980  0.69120  0.35980  Biso   1.000  C
  H365     1.0000 0.05070  0.71630  0.36670  Biso   1.000  H
  C325     1.0000 0.02880  0.66530  0.39020  Biso   1.000  C
  H366     1.0000 0.02910  0.67350  0.41720  Biso   1.000  H
  C326     1.0000 0.04250  0.71050  0.29040  Biso   1.000  C
  C327     1.0000 0.04460  0.73590  0.26480  Biso   1.000  C
  O65      1.0000 0.01630  0.63590  0.27020  Biso   1.000  O
  C328     1.0000 0.99080  0.60430  0.25800  Biso   1.000  C
  H367     1.0000 0.96380  0.60790  0.26900  Biso   1.000  H
  H368     1.0000 0.00140  0.57840  0.26700  Biso   1.000  H
  C329     1.0000 0.99010  0.60660  0.21090  Biso   1.000  C
  C330     1.0000 0.97330  0.64280  0.19830  Biso   1.000  C
  H369     1.0000 0.97400  0.64330  0.16890  Biso   1.000  H
  H370     1.0000 0.99080  0.66450  0.20770  Biso   1.000  H
  S43      1.0000 0.92500  0.65410  0.21320  Biso   1.000  S
  C331     1.0000 0.92730  0.70180  0.18590  Biso   1.000  C
  H371     1.0000 0.90210  0.71600  0.18910  Biso   1.000  H
  H372     1.0000 0.94900  0.71800  0.19660  Biso   1.000  H
  H373     1.0000 0.93210  0.69660  0.15770  Biso   1.000  H
  C332     1.0000 0.96240  0.57520  0.19930  Biso   1.000  C
  H374     1.0000 0.93700  0.57950  0.21350  Biso   1.000  H
  H375     1.0000 0.97330  0.54940  0.20830  Biso   1.000  H
  C333     1.0000 0.93070  0.52170  0.13830  Biso   1.000  C
  H376     1.0000 0.92470  0.51890  0.10990  Biso   1.000  H
  H377     1.0000 0.94990  0.50130  0.14620  Biso   1.000  H
  H378     1.0000 0.90620  0.51850  0.15370  Biso   1.000  H
  C334     1.0000 0.03230  0.60050  0.19570  Biso   1.000  C
  H379     1.0000 0.04840  0.62360  0.20440  Biso   1.000  H
  H380     1.0000 0.03150  0.60090  0.16630  Biso   1.000  H
  C335     1.0000 0.08560  0.57350  0.25470  Biso   1.000  C
  H381     1.0000 0.07980  0.60170  0.25880  Biso   1.000  H
  H382     1.0000 0.11420  0.57000  0.25030  Biso   1.000  H
  H383     1.0000 0.07750  0.55840  0.27830  Biso   1.000  H
  O66      1.0000 0.00240  0.44550  0.39220  Biso   1.000  O
  O67      1.0000 0.99900  0.39660  0.44010  Biso   1.000  O
  O68      1.0000 0.00410  0.56000  0.39640  Biso   1.000  O
  O69      1.0000 0.00490  0.60630  0.44550  Biso   1.000  O
  S44      1.0000 0.98690  0.40110  0.19260  Biso   1.000  S
  S45      1.0000 0.08470  0.45580  0.14926  Biso   1.000  S
  S46      1.0000 0.15120  0.40350  0.23100  Biso   1.000  S
  S47      1.0000 0.95200  0.57160  0.14770  Biso   1.000  S
  S48      1.0000 0.05810  0.55530  0.21120  Biso   1.000  S
  Zr8      1.0000 0.00180  0.50169  0.42654  Biso   1.000  Zr
  O70      1.0000 0.03010  0.53200  0.47050  Biso   1.000  O
  Hg8      1.0000 0.11081  0.65763  0.11624  Biso   1.000  Hg
  Cl15     1.0000 0.06020  0.69730  0.14930  Biso   1.000  Cl
  Cl16     1.0000 0.15650  0.61870  0.15080  Biso   1.000  Cl
  C336     1.0000 0.18900  0.39300  0.27000  Biso   1.000  C
  H384     1.0000 0.20780  0.41490  0.27090  Biso   1.000  H
  H385     1.0000 0.17560  0.38980  0.29530  Biso   1.000  H
  H386     1.0000 0.20280  0.36830  0.26290  Biso   1.000  H
  C337     1.0000 0.01000  0.62530  0.37730  Biso   1.000  C
  C338     1.0000 0.00240  0.61610  0.33690  Biso   1.000  C
  H387     1.0000 0.99520  0.58990  0.32910  Biso   1.000  H
  C339     1.0000 0.00570  0.64550  0.30990  Biso   1.000  C
  C340     1.0000 0.01650  0.68430  0.32260  Biso   1.000  C
  C341     1.0000 0.02380  0.69230  0.36240  Biso   1.000  C
  H388     1.0000 0.03100  0.71850  0.37020  Biso   1.000  H
  C342     1.0000 0.02060  0.66270  0.39100  Biso   1.000  C
  H389     1.0000 0.02550  0.66780  0.41840  Biso   1.000  H
  C343     1.0000 0.01980  0.71470  0.29390  Biso   1.000  C
  C344     1.0000 0.02130  0.73720  0.26590  Biso   1.000  C
  O71      1.0000 0.99990  0.64350  0.27000  Biso   1.000  O
  H390     1.0000 0.96470  0.59580  0.26850  Biso   1.000  H
  H391     1.0000 0.01150  0.58550  0.26730  Biso   1.000  H
  O72      1.0000 0.04430  0.54090  0.46230  Biso   1.000  O
  H392     1.0000 0.06250  0.55810  0.44620  Biso   1.000  H
  C345     1.0000 0.09470  0.49720  0.40820  Biso   1.000  C
  C346     1.0000 0.12550  0.48650  0.37810  Biso   1.000  C
  C347     1.0000 0.16380  0.47290  0.38940  Biso   1.000  C
  H393     1.0000 0.17020  0.46990  0.41670  Biso   1.000  H
  C348     1.0000 0.19130  0.46420  0.36130  Biso   1.000  C
  C349     1.0000 0.18260  0.46930  0.32020  Biso   1.000  C
  C350     1.0000 0.14500  0.48400  0.31050  Biso   1.000  C
  H394     1.0000 0.13950  0.48990  0.28340  Biso   1.000  H
  C351     1.0000 0.11530  0.49050  0.33830  Biso   1.000  C
  H395     1.0000 0.08910  0.49740  0.33040  Biso   1.000  H
  C352     1.0000 0.21190  0.46270  0.29130  Biso   1.000  C
  C353     1.0000 0.23620  0.46070  0.26490  Biso   1.000  C
  O73      1.0000 0.22850  0.44920  0.36770  Biso   1.000  O
  C354     1.0000 0.24270  0.44430  0.40760  Biso   1.000  C
  H396     1.0000 0.22700  0.42360  0.42140  Biso   1.000  H
  H397     1.0000 0.24000  0.46950  0.42250  Biso   1.000  H
  C355     1.0000 0.28520  0.43220  0.40570  Biso   1.000  C
  C356     1.0000 0.30990  0.46310  0.38210  Biso   1.000  C
  H398     1.0000 0.30050  0.46320  0.35420  Biso   1.000  H
  H399     1.0000 0.33800  0.45450  0.38200  Biso   1.000  H
  C357     1.0000 0.26860  0.53610  0.37110  Biso   1.000  C
  H400     1.0000 0.24270  0.53170  0.38370  Biso   1.000  H
  H401     1.0000 0.26860  0.52440  0.34450  Biso   1.000  H
  H402     1.0000 0.27360  0.56480  0.36910  Biso   1.000  H
  C358     1.0000 0.29960  0.42770  0.44880  Biso   1.000  C
  H403     1.0000 0.28330  0.40690  0.46180  Biso   1.000  H
  H404     1.0000 0.29430  0.45300  0.46290  Biso   1.000  H
  C359     1.0000 0.37340  0.46460  0.46470  Biso   1.000  C
  H405     1.0000 0.36100  0.47690  0.48800  Biso   1.000  H
  H406     1.0000 0.36920  0.48160  0.44140  Biso   1.000  H
  H407     1.0000 0.40190  0.46150  0.46940  Biso   1.000  H
  C360     1.0000 0.29260  0.39370  0.38240  Biso   1.000  C
  H408     1.0000 0.32160  0.38920  0.38090  Biso   1.000  H
  H409     1.0000 0.28270  0.39740  0.35490  Biso   1.000  H
  C361     1.0000 0.22580  0.34500  0.37000  Biso   1.000  C
  H410     1.0000 0.20980  0.32140  0.37770  Biso   1.000  H
  H411     1.0000 0.20950  0.36860  0.37210  Biso   1.000  H
  H412     1.0000 0.23500  0.34130  0.34270  Biso   1.000  H
  C362     1.0000 0.09000  0.49260  0.59560  Biso   1.000  C
  C363     1.0000 0.12050  0.48280  0.62700  Biso   1.000  C
  C364     1.0000 0.16130  0.48620  0.61630  Biso   1.000  C
  H413     1.0000 0.16820  0.49290  0.58970  Biso   1.000  H
  C365     1.0000 0.19010  0.48020  0.64350  Biso   1.000  C
  C366     1.0000 0.18020  0.46460  0.68160  Biso   1.000  C
  C367     1.0000 0.14020  0.46020  0.69120  Biso   1.000  C
  H414     1.0000 0.13330  0.44930  0.71630  Biso   1.000  H
  C368     1.0000 0.10980  0.47120  0.66530  Biso   1.000  C
  H415     1.0000 0.08280  0.47090  0.67350  Biso   1.000  H
  C369     1.0000 0.20960  0.45750  0.71050  Biso   1.000  C
  C370     1.0000 0.23520  0.45540  0.73590  Biso   1.000  C
  O74      1.0000 0.22980  0.48370  0.63590  Biso   1.000  O
  C371     1.0000 0.24200  0.50920  0.60430  Biso   1.000  C
  H416     1.0000 0.23100  0.53620  0.60790  Biso   1.000  H
  H417     1.0000 0.23300  0.49860  0.57840  Biso   1.000  H
  C372     1.0000 0.28910  0.50990  0.60660  Biso   1.000  C
  C373     1.0000 0.30170  0.52670  0.64280  Biso   1.000  C
  H418     1.0000 0.33110  0.52600  0.64330  Biso   1.000  H
  H419     1.0000 0.29230  0.50920  0.66450  Biso   1.000  H
  S49      1.0000 0.28680  0.57500  0.65410  Biso   1.000  S
  C374     1.0000 0.31410  0.57270  0.70180  Biso   1.000  C
  H420     1.0000 0.31090  0.59790  0.71600  Biso   1.000  H
  H421     1.0000 0.30340  0.55100  0.71800  Biso   1.000  H
  H422     1.0000 0.34230  0.56790  0.69660  Biso   1.000  H
  C375     1.0000 0.30070  0.53760  0.57520  Biso   1.000  C
  H423     1.0000 0.28650  0.56300  0.57950  Biso   1.000  H
  H424     1.0000 0.29170  0.52670  0.54940  Biso   1.000  H
  C376     1.0000 0.36170  0.56930  0.52170  Biso   1.000  C
  H425     1.0000 0.39010  0.57530  0.51890  Biso   1.000  H
  H426     1.0000 0.35380  0.55010  0.50130  Biso   1.000  H
  H427     1.0000 0.34630  0.59380  0.51850  Biso   1.000  H
  C377     1.0000 0.30430  0.46770  0.60050  Biso   1.000  C
  H428     1.0000 0.29560  0.45160  0.62360  Biso   1.000  H
  H429     1.0000 0.33370  0.46850  0.60090  Biso   1.000  H
  C378     1.0000 0.24530  0.41440  0.57350  Biso   1.000  C
  H430     1.0000 0.24120  0.42020  0.60170  Biso   1.000  H
  H431     1.0000 0.24970  0.38580  0.57000  Biso   1.000  H
  H432     1.0000 0.22170  0.42250  0.55840  Biso   1.000  H
  O75      1.0000 0.10780  0.49760  0.44550  Biso   1.000  O
  O76      1.0000 0.05990  0.50100  0.39660  Biso   1.000  O
  O77      1.0000 0.10360  0.49590  0.56000  Biso   1.000  O
  O78      1.0000 0.05450  0.49510  0.60630  Biso   1.000  O
  S50      1.0000 0.30740  0.51310  0.40110  Biso   1.000  S
  S51      1.0000 0.35074  0.41530  0.45580  Biso   1.000  S
  S52      1.0000 0.26900  0.34880  0.40350  Biso   1.000  S
  S53      1.0000 0.35230  0.54800  0.57160  Biso   1.000  S
  S54      1.0000 0.28880  0.44190  0.55530  Biso   1.000  S
  Zr9      1.0000 0.07346  0.49820  0.50169  Biso   1.000  Zr
  O79      1.0000 0.02950  0.46990  0.53200  Biso   1.000  O
  Hg9      1.0000 0.38376  0.38919  0.65763  Biso   1.000  Hg
  Cl17     1.0000 0.35070  0.43980  0.69730  Biso   1.000  Cl
  Cl18     1.0000 0.34920  0.34350  0.61870  Biso   1.000  Cl
  C379     1.0000 0.23000  0.31100  0.39300  Biso   1.000  C
  H433     1.0000 0.22910  0.29220  0.41490  Biso   1.000  H
  H434     1.0000 0.20470  0.32440  0.38980  Biso   1.000  H
  H435     1.0000 0.23710  0.29720  0.36830  Biso   1.000  H
  C380     1.0000 0.12270  0.49000  0.62530  Biso   1.000  C
  C381     1.0000 0.16310  0.49760  0.61610  Biso   1.000  C
  H436     1.0000 0.17090  0.50480  0.58990  Biso   1.000  H
  C382     1.0000 0.19010  0.49430  0.64550  Biso   1.000  C
  C383     1.0000 0.17740  0.48350  0.68430  Biso   1.000  C
  C384     1.0000 0.13760  0.47620  0.69230  Biso   1.000  C
  H437     1.0000 0.12980  0.46900  0.71850  Biso   1.000  H
  C385     1.0000 0.10900  0.47940  0.66270  Biso   1.000  C
  H438     1.0000 0.08160  0.47450  0.66780  Biso   1.000  H
  C386     1.0000 0.20610  0.48020  0.71470  Biso   1.000  C
  C387     1.0000 0.23410  0.47870  0.73720  Biso   1.000  C
  O80      1.0000 0.23000  0.50010  0.64350  Biso   1.000  O
  H439     1.0000 0.23150  0.53530  0.59580  Biso   1.000  H
  H440     1.0000 0.23270  0.48850  0.58550  Biso   1.000  H
  O81      1.0000 0.03770  0.45570  0.54090  Biso   1.000  O
  H441     1.0000 0.05380  0.43750  0.55810  Biso   1.000  H
  C388     1.0000 0.40530  0.49720  0.09180  Biso   1.000  C
  C389     1.0000 0.37450  0.48650  0.12190  Biso   1.000  C
  C390     1.0000 0.33620  0.47290  0.11060  Biso   1.000  C
  H442     1.0000 0.32980  0.46990  0.08330  Biso   1.000  H
  C391     1.0000 0.30870  0.46420  0.13870  Biso   1.000  C
  C392     1.0000 0.31740  0.46930  0.17980  Biso   1.000  C
  C393     1.0000 0.35500  0.48400  0.18950  Biso   1.000  C
  H443     1.0000 0.36050  0.48990  0.21660  Biso   1.000  H
  C394     1.0000 0.38470  0.49050  0.16170  Biso   1.000  C
  H444     1.0000 0.41090  0.49740  0.16960  Biso   1.000  H
  C395     1.0000 0.28810  0.46270  0.20870  Biso   1.000  C
  C396     1.0000 0.26380  0.46070  0.23510  Biso   1.000  C
  O82      1.0000 0.27150  0.44920  0.13230  Biso   1.000  O
  C397     1.0000 0.25730  0.44430  0.09240  Biso   1.000  C
  H445     1.0000 0.27300  0.42360  0.07860  Biso   1.000  H
  H446     1.0000 0.26000  0.46950  0.07750  Biso   1.000  H
  C398     1.0000 0.21480  0.43220  0.09430  Biso   1.000  C
  C399     1.0000 0.19010  0.46310  0.11790  Biso   1.000  C
  H447     1.0000 0.19950  0.46320  0.14580  Biso   1.000  H
  H448     1.0000 0.16200  0.45450  0.11800  Biso   1.000  H
  C400     1.0000 0.23140  0.53610  0.12890  Biso   1.000  C
  H449     1.0000 0.25730  0.53170  0.11630  Biso   1.000  H
  H450     1.0000 0.23140  0.52440  0.15550  Biso   1.000  H
  H451     1.0000 0.22640  0.56480  0.13090  Biso   1.000  H
  C401     1.0000 0.20040  0.42770  0.05120  Biso   1.000  C
  H452     1.0000 0.21670  0.40690  0.03820  Biso   1.000  H
  H453     1.0000 0.20570  0.45300  0.03710  Biso   1.000  H
  C402     1.0000 0.12660  0.46460  0.03530  Biso   1.000  C
  H454     1.0000 0.13900  0.47690  0.01200  Biso   1.000  H
  H455     1.0000 0.13080  0.48160  0.05860  Biso   1.000  H
  H456     1.0000 0.09810  0.46150  0.03060  Biso   1.000  H
  C403     1.0000 0.20740  0.39370  0.11760  Biso   1.000  C
  H457     1.0000 0.17840  0.38920  0.11910  Biso   1.000  H
  H458     1.0000 0.21730  0.39740  0.14510  Biso   1.000  H
  C404     1.0000 0.27420  0.34500  0.13000  Biso   1.000  C
  H459     1.0000 0.29020  0.32140  0.12230  Biso   1.000  H
  H460     1.0000 0.29050  0.36860  0.12790  Biso   1.000  H
  H461     1.0000 0.26500  0.34130  0.15730  Biso   1.000  H
  C405     1.0000 0.41000  0.49260  0.90440  Biso   1.000  C
  C406     1.0000 0.37950  0.48280  0.87300  Biso   1.000  C
  C407     1.0000 0.33870  0.48620  0.88370  Biso   1.000  C
  H462     1.0000 0.33180  0.49290  0.91030  Biso   1.000  H
  C408     1.0000 0.30990  0.48020  0.85650  Biso   1.000  C
  C409     1.0000 0.31980  0.46460  0.81840  Biso   1.000  C
  C410     1.0000 0.35980  0.46020  0.80880  Biso   1.000  C
  H463     1.0000 0.36670  0.44930  0.78370  Biso   1.000  H
  C411     1.0000 0.39020  0.47120  0.83470  Biso   1.000  C
  H464     1.0000 0.41720  0.47090  0.82650  Biso   1.000  H
  C412     1.0000 0.29040  0.45750  0.78950  Biso   1.000  C
  C413     1.0000 0.26480  0.45540  0.76410  Biso   1.000  C
  O83      1.0000 0.27020  0.48370  0.86410  Biso   1.000  O
  C414     1.0000 0.25800  0.50920  0.89570  Biso   1.000  C
  H465     1.0000 0.26900  0.53620  0.89210  Biso   1.000  H
  H466     1.0000 0.26700  0.49860  0.92160  Biso   1.000  H
  C415     1.0000 0.21090  0.50990  0.89340  Biso   1.000  C
  C416     1.0000 0.19830  0.52670  0.85720  Biso   1.000  C
  H467     1.0000 0.16890  0.52600  0.85670  Biso   1.000  H
  H468     1.0000 0.20770  0.50920  0.83550  Biso   1.000  H
  S55      1.0000 0.21320  0.57500  0.84590  Biso   1.000  S
  C417     1.0000 0.18590  0.57270  0.79820  Biso   1.000  C
  H469     1.0000 0.18910  0.59790  0.78400  Biso   1.000  H
  H470     1.0000 0.19660  0.55100  0.78200  Biso   1.000  H
  H471     1.0000 0.15770  0.56790  0.80340  Biso   1.000  H
  C418     1.0000 0.19930  0.53760  0.92480  Biso   1.000  C
  H472     1.0000 0.21350  0.56300  0.92050  Biso   1.000  H
  H473     1.0000 0.20830  0.52670  0.95060  Biso   1.000  H
  C419     1.0000 0.13830  0.56930  0.97830  Biso   1.000  C
  H474     1.0000 0.10990  0.57530  0.98110  Biso   1.000  H
  H475     1.0000 0.14620  0.55010  0.99870  Biso   1.000  H
  H476     1.0000 0.15370  0.59380  0.98150  Biso   1.000  H
  C420     1.0000 0.19570  0.46770  0.89950  Biso   1.000  C
  H477     1.0000 0.20440  0.45160  0.87640  Biso   1.000  H
  H478     1.0000 0.16630  0.46850  0.89910  Biso   1.000  H
  C421     1.0000 0.25470  0.41440  0.92650  Biso   1.000  C
  H479     1.0000 0.25880  0.42020  0.89830  Biso   1.000  H
  H480     1.0000 0.25030  0.38580  0.93000  Biso   1.000  H
  H481     1.0000 0.27830  0.42250  0.94160  Biso   1.000  H
  O84      1.0000 0.39220  0.49760  0.05450  Biso   1.000  O
  O85      1.0000 0.44010  0.50100  0.10340  Biso   1.000  O
  O86      1.0000 0.39640  0.49590  0.94000  Biso   1.000  O
  O87      1.0000 0.44550  0.49510  0.89370  Biso   1.000  O
  S56      1.0000 0.19260  0.51310  0.09890  Biso   1.000  S
  S57      1.0000 0.14926  0.41530  0.04420  Biso   1.000  S
  S58      1.0000 0.23100  0.34880  0.09650  Biso   1.000  S
  S59      1.0000 0.14770  0.54800  0.92840  Biso   1.000  S
  S60      1.0000 0.21120  0.44190  0.94470  Biso   1.000  S
  Zr10     1.0000 0.42654  0.49820  0.99831  Biso   1.000  Zr
  O88      1.0000 0.47050  0.46990  0.96800  Biso   1.000  O
  Hg10     1.0000 0.11624  0.38919  0.84237  Biso   1.000  Hg
  Cl19     1.0000 0.14930  0.43980  0.80270  Biso   1.000  Cl
  Cl20     1.0000 0.15080  0.34350  0.88130  Biso   1.000  Cl
  C422     1.0000 0.27000  0.31100  0.10700  Biso   1.000  C
  H482     1.0000 0.27090  0.29220  0.08510  Biso   1.000  H
  H483     1.0000 0.29530  0.32440  0.11020  Biso   1.000  H
  H484     1.0000 0.26290  0.29720  0.13170  Biso   1.000  H
  C423     1.0000 0.37730  0.49000  0.87470  Biso   1.000  C
  C424     1.0000 0.33690  0.49760  0.88390  Biso   1.000  C
  H485     1.0000 0.32910  0.50480  0.91010  Biso   1.000  H
  C425     1.0000 0.30990  0.49430  0.85450  Biso   1.000  C
  C426     1.0000 0.32260  0.48350  0.81570  Biso   1.000  C
  C427     1.0000 0.36240  0.47620  0.80770  Biso   1.000  C
  H486     1.0000 0.37020  0.46900  0.78150  Biso   1.000  H
  C428     1.0000 0.39100  0.47940  0.83730  Biso   1.000  C
  H487     1.0000 0.41840  0.47450  0.83220  Biso   1.000  H
  C429     1.0000 0.29390  0.48020  0.78530  Biso   1.000  C
  C430     1.0000 0.26590  0.47870  0.76280  Biso   1.000  C
  O89      1.0000 0.27000  0.50010  0.85650  Biso   1.000  O
  H488     1.0000 0.26850  0.53530  0.90420  Biso   1.000  H
  H489     1.0000 0.26730  0.48850  0.91450  Biso   1.000  H
  O90      1.0000 0.46230  0.45570  0.95910  Biso   1.000  O
  H490     1.0000 0.44620  0.43750  0.94190  Biso   1.000  H
  C431     1.0000 0.09470  0.00280  0.09180  Biso   1.000  C
  C432     1.0000 0.12550  0.01350  0.12190  Biso   1.000  C
  C433     1.0000 0.16380  0.02710  0.11060  Biso   1.000  C
  H491     1.0000 0.17020  0.03010  0.08330  Biso   1.000  H
  C434     1.0000 0.19130  0.03580  0.13870  Biso   1.000  C
  C435     1.0000 0.18260  0.03070  0.17980  Biso   1.000  C
  C436     1.0000 0.14500  0.01600  0.18950  Biso   1.000  C
  H492     1.0000 0.13950  0.01010  0.21660  Biso   1.000  H
  C437     1.0000 0.11530  0.00950  0.16170  Biso   1.000  C
  H493     1.0000 0.08910  0.00260  0.16960  Biso   1.000  H
  C438     1.0000 0.21190  0.03730  0.20870  Biso   1.000  C
  C439     1.0000 0.23620  0.03930  0.23510  Biso   1.000  C
  O91      1.0000 0.22850  0.05080  0.13230  Biso   1.000  O
  C440     1.0000 0.24270  0.05570  0.09240  Biso   1.000  C
  H494     1.0000 0.22700  0.07640  0.07860  Biso   1.000  H
  H495     1.0000 0.24000  0.03050  0.07750  Biso   1.000  H
  C441     1.0000 0.28520  0.06780  0.09430  Biso   1.000  C
  C442     1.0000 0.30990  0.03690  0.11790  Biso   1.000  C
  H496     1.0000 0.30050  0.03680  0.14580  Biso   1.000  H
  H497     1.0000 0.33800  0.04550  0.11800  Biso   1.000  H
  C443     1.0000 0.26860  0.96390  0.12890  Biso   1.000  C
  H498     1.0000 0.24270  0.96830  0.11630  Biso   1.000  H
  H499     1.0000 0.26860  0.97560  0.15550  Biso   1.000  H
  H500     1.0000 0.27360  0.93520  0.13090  Biso   1.000  H
  C444     1.0000 0.29960  0.07230  0.05120  Biso   1.000  C
  H501     1.0000 0.28330  0.09310  0.03820  Biso   1.000  H
  H502     1.0000 0.29430  0.04700  0.03710  Biso   1.000  H
  C445     1.0000 0.37340  0.03540  0.03530  Biso   1.000  C
  H503     1.0000 0.36100  0.02310  0.01200  Biso   1.000  H
  H504     1.0000 0.36920  0.01840  0.05860  Biso   1.000  H
  H505     1.0000 0.40190  0.03850  0.03060  Biso   1.000  H
  C446     1.0000 0.29260  0.10630  0.11760  Biso   1.000  C
  H506     1.0000 0.32160  0.11080  0.11910  Biso   1.000  H
  H507     1.0000 0.28270  0.10260  0.14510  Biso   1.000  H
  C447     1.0000 0.22580  0.15500  0.13000  Biso   1.000  C
  H508     1.0000 0.20980  0.17860  0.12230  Biso   1.000  H
  H509     1.0000 0.20950  0.13140  0.12790  Biso   1.000  H
  H510     1.0000 0.23500  0.15870  0.15730  Biso   1.000  H
  C448     1.0000 0.09000  0.00740  0.90440  Biso   1.000  C
  C449     1.0000 0.12050  0.01720  0.87300  Biso   1.000  C
  C450     1.0000 0.16130  0.01380  0.88370  Biso   1.000  C
  H511     1.0000 0.16820  0.00710  0.91030  Biso   1.000  H
  C451     1.0000 0.19010  0.01980  0.85650  Biso   1.000  C
  C452     1.0000 0.18020  0.03540  0.81840  Biso   1.000  C
  C453     1.0000 0.14020  0.03980  0.80880  Biso   1.000  C
  H512     1.0000 0.13330  0.05070  0.78370  Biso   1.000  H
  C454     1.0000 0.10980  0.02880  0.83470  Biso   1.000  C
  H513     1.0000 0.08280  0.02910  0.82650  Biso   1.000  H
  C455     1.0000 0.20960  0.04250  0.78950  Biso   1.000  C
  C456     1.0000 0.23520  0.04460  0.76410  Biso   1.000  C
  O92      1.0000 0.22980  0.01630  0.86410  Biso   1.000  O
  C457     1.0000 0.24200  0.99080  0.89570  Biso   1.000  C
  H514     1.0000 0.23100  0.96380  0.89210  Biso   1.000  H
  H515     1.0000 0.23300  0.00140  0.92160  Biso   1.000  H
  C458     1.0000 0.28910  0.99010  0.89340  Biso   1.000  C
  C459     1.0000 0.30170  0.97330  0.85720  Biso   1.000  C
  H516     1.0000 0.33110  0.97400  0.85670  Biso   1.000  H
  H517     1.0000 0.29230  0.99080  0.83550  Biso   1.000  H
  S61      1.0000 0.28680  0.92500  0.84590  Biso   1.000  S
  C460     1.0000 0.31410  0.92730  0.79820  Biso   1.000  C
  H518     1.0000 0.31090  0.90210  0.78400  Biso   1.000  H
  H519     1.0000 0.30340  0.94900  0.78200  Biso   1.000  H
  H520     1.0000 0.34230  0.93210  0.80340  Biso   1.000  H
  C461     1.0000 0.30070  0.96240  0.92480  Biso   1.000  C
  H521     1.0000 0.28650  0.93700  0.92050  Biso   1.000  H
  H522     1.0000 0.29170  0.97330  0.95060  Biso   1.000  H
  C462     1.0000 0.36170  0.93070  0.97830  Biso   1.000  C
  H523     1.0000 0.39010  0.92470  0.98110  Biso   1.000  H
  H524     1.0000 0.35380  0.94990  0.99870  Biso   1.000  H
  H525     1.0000 0.34630  0.90620  0.98150  Biso   1.000  H
  C463     1.0000 0.30430  0.03230  0.89950  Biso   1.000  C
  H526     1.0000 0.29560  0.04840  0.87640  Biso   1.000  H
  H527     1.0000 0.33370  0.03150  0.89910  Biso   1.000  H
  C464     1.0000 0.24530  0.08560  0.92650  Biso   1.000  C
  H528     1.0000 0.24120  0.07980  0.89830  Biso   1.000  H
  H529     1.0000 0.24970  0.11420  0.93000  Biso   1.000  H
  H530     1.0000 0.22170  0.07750  0.94160  Biso   1.000  H
  O93      1.0000 0.10780  0.00240  0.05450  Biso   1.000  O
  O94      1.0000 0.05990  0.99900  0.10340  Biso   1.000  O
  O95      1.0000 0.10360  0.00410  0.94000  Biso   1.000  O
  O96      1.0000 0.05450  0.00490  0.89370  Biso   1.000  O
  S62      1.0000 0.30740  0.98690  0.09890  Biso   1.000  S
  S63      1.0000 0.35074  0.08470  0.04420  Biso   1.000  S
  S64      1.0000 0.26900  0.15120  0.09650  Biso   1.000  S
  S65      1.0000 0.35230  0.95200  0.92840  Biso   1.000  S
  S66      1.0000 0.28880  0.05810  0.94470  Biso   1.000  S
  Zr11     1.0000 0.07346  0.00180  0.99831  Biso   1.000  Zr
  O97      1.0000 0.02950  0.03010  0.96800  Biso   1.000  O
  Hg11     1.0000 0.38376  0.11081  0.84237  Biso   1.000  Hg
  Cl21     1.0000 0.35070  0.06020  0.80270  Biso   1.000  Cl
  Cl22     1.0000 0.34920  0.15650  0.88130  Biso   1.000  Cl
  C465     1.0000 0.23000  0.18900  0.10700  Biso   1.000  C
  H531     1.0000 0.22910  0.20780  0.08510  Biso   1.000  H
  H532     1.0000 0.20470  0.17560  0.11020  Biso   1.000  H
  H533     1.0000 0.23710  0.20280  0.13170  Biso   1.000  H
  C466     1.0000 0.12270  0.01000  0.87470  Biso   1.000  C
  C467     1.0000 0.16310  0.00240  0.88390  Biso   1.000  C
  H534     1.0000 0.17090  0.99520  0.91010  Biso   1.000  H
  C468     1.0000 0.19010  0.00570  0.85450  Biso   1.000  C
  C469     1.0000 0.17740  0.01650  0.81570  Biso   1.000  C
  C470     1.0000 0.13760  0.02380  0.80770  Biso   1.000  C
  H535     1.0000 0.12980  0.03100  0.78150  Biso   1.000  H
  C471     1.0000 0.10900  0.02060  0.83730  Biso   1.000  C
  H536     1.0000 0.08160  0.02550  0.83220  Biso   1.000  H
  C472     1.0000 0.20610  0.01980  0.78530  Biso   1.000  C
  C473     1.0000 0.23410  0.02130  0.76280  Biso   1.000  C
  O98      1.0000 0.23000  0.99990  0.85650  Biso   1.000  O
  H537     1.0000 0.23150  0.96470  0.90420  Biso   1.000  H
  H538     1.0000 0.23270  0.01150  0.91450  Biso   1.000  H
  O99      1.0000 0.03770  0.04430  0.95910  Biso   1.000  O
  H539     1.0000 0.05380  0.06250  0.94190  Biso   1.000  H
  C474     1.0000 0.40530  0.00280  0.40820  Biso   1.000  C
  C475     1.0000 0.37450  0.01350  0.37810  Biso   1.000  C
  C476     1.0000 0.33620  0.02710  0.38940  Biso   1.000  C
  H540     1.0000 0.32980  0.03010  0.41670  Biso   1.000  H
  C477     1.0000 0.30870  0.03580  0.36130  Biso   1.000  C
  C478     1.0000 0.31740  0.03070  0.32020  Biso   1.000  C
  C479     1.0000 0.35500  0.01600  0.31050  Biso   1.000  C
  H541     1.0000 0.36050  0.01010  0.28340  Biso   1.000  H
  C480     1.0000 0.38470  0.00950  0.33830  Biso   1.000  C
  H542     1.0000 0.41090  0.00260  0.33040  Biso   1.000  H
  C481     1.0000 0.28810  0.03730  0.29130  Biso   1.000  C
  C482     1.0000 0.26380  0.03930  0.26490  Biso   1.000  C
  O100     1.0000 0.27150  0.05080  0.36770  Biso   1.000  O
  C483     1.0000 0.25730  0.05570  0.40760  Biso   1.000  C
  H543     1.0000 0.27300  0.07640  0.42140  Biso   1.000  H
  H544     1.0000 0.26000  0.03050  0.42250  Biso   1.000  H
  C484     1.0000 0.21480  0.06780  0.40570  Biso   1.000  C
  C485     1.0000 0.19010  0.03690  0.38210  Biso   1.000  C
  H545     1.0000 0.19950  0.03680  0.35420  Biso   1.000  H
  H546     1.0000 0.16200  0.04550  0.38200  Biso   1.000  H
  C486     1.0000 0.23140  0.96390  0.37110  Biso   1.000  C
  H547     1.0000 0.25730  0.96830  0.38370  Biso   1.000  H
  H548     1.0000 0.23140  0.97560  0.34450  Biso   1.000  H
  H549     1.0000 0.22640  0.93520  0.36910  Biso   1.000  H
  C487     1.0000 0.20040  0.07230  0.44880  Biso   1.000  C
  H550     1.0000 0.21670  0.09310  0.46180  Biso   1.000  H
  H551     1.0000 0.20570  0.04700  0.46290  Biso   1.000  H
  C488     1.0000 0.12660  0.03540  0.46470  Biso   1.000  C
  H552     1.0000 0.13900  0.02310  0.48800  Biso   1.000  H
  H553     1.0000 0.13080  0.01840  0.44140  Biso   1.000  H
  H554     1.0000 0.09810  0.03850  0.46940  Biso   1.000  H
  C489     1.0000 0.20740  0.10630  0.38240  Biso   1.000  C
  H555     1.0000 0.17840  0.11080  0.38090  Biso   1.000  H
  H556     1.0000 0.21730  0.10260  0.35490  Biso   1.000  H
  C490     1.0000 0.27420  0.15500  0.37000  Biso   1.000  C
  H557     1.0000 0.29020  0.17860  0.37770  Biso   1.000  H
  H558     1.0000 0.29050  0.13140  0.37210  Biso   1.000  H
  H559     1.0000 0.26500  0.15870  0.34270  Biso   1.000  H
  C491     1.0000 0.41000  0.00740  0.59560  Biso   1.000  C
  C492     1.0000 0.37950  0.01720  0.62700  Biso   1.000  C
  C493     1.0000 0.33870  0.01380  0.61630  Biso   1.000  C
  H560     1.0000 0.33180  0.00710  0.58970  Biso   1.000  H
  C494     1.0000 0.30990  0.01980  0.64350  Biso   1.000  C
  C495     1.0000 0.31980  0.03540  0.68160  Biso   1.000  C
  C496     1.0000 0.35980  0.03980  0.69120  Biso   1.000  C
  H561     1.0000 0.36670  0.05070  0.71630  Biso   1.000  H
  C497     1.0000 0.39020  0.02880  0.66530  Biso   1.000  C
  H562     1.0000 0.41720  0.02910  0.67350  Biso   1.000  H
  C498     1.0000 0.29040  0.04250  0.71050  Biso   1.000  C
  C499     1.0000 0.26480  0.04460  0.73590  Biso   1.000  C
  O101     1.0000 0.27020  0.01630  0.63590  Biso   1.000  O
  C500     1.0000 0.25800  0.99080  0.60430  Biso   1.000  C
  H563     1.0000 0.26900  0.96380  0.60790  Biso   1.000  H
  H564     1.0000 0.26700  0.00140  0.57840  Biso   1.000  H
  C501     1.0000 0.21090  0.99010  0.60660  Biso   1.000  C
  C502     1.0000 0.19830  0.97330  0.64280  Biso   1.000  C
  H565     1.0000 0.16890  0.97400  0.64330  Biso   1.000  H
  H566     1.0000 0.20770  0.99080  0.66450  Biso   1.000  H
  S67      1.0000 0.21320  0.92500  0.65410  Biso   1.000  S
  C503     1.0000 0.18590  0.92730  0.70180  Biso   1.000  C
  H567     1.0000 0.18910  0.90210  0.71600  Biso   1.000  H
  H568     1.0000 0.19660  0.94900  0.71800  Biso   1.000  H
  H569     1.0000 0.15770  0.93210  0.69660  Biso   1.000  H
  C504     1.0000 0.19930  0.96240  0.57520  Biso   1.000  C
  H570     1.0000 0.21350  0.93700  0.57950  Biso   1.000  H
  H571     1.0000 0.20830  0.97330  0.54940  Biso   1.000  H
  C505     1.0000 0.13830  0.93070  0.52170  Biso   1.000  C
  H572     1.0000 0.10990  0.92470  0.51890  Biso   1.000  H
  H573     1.0000 0.14620  0.94990  0.50130  Biso   1.000  H
  H574     1.0000 0.15370  0.90620  0.51850  Biso   1.000  H
  C506     1.0000 0.19570  0.03230  0.60050  Biso   1.000  C
  H575     1.0000 0.20440  0.04840  0.62360  Biso   1.000  H
  H576     1.0000 0.16630  0.03150  0.60090  Biso   1.000  H
  C507     1.0000 0.25470  0.08560  0.57350  Biso   1.000  C
  H577     1.0000 0.25880  0.07980  0.60170  Biso   1.000  H
  H578     1.0000 0.25030  0.11420  0.57000  Biso   1.000  H
  H579     1.0000 0.27830  0.07750  0.55840  Biso   1.000  H
  O102     1.0000 0.39220  0.00240  0.44550  Biso   1.000  O
  O103     1.0000 0.44010  0.99900  0.39660  Biso   1.000  O
  O104     1.0000 0.39640  0.00410  0.56000  Biso   1.000  O
  O105     1.0000 0.44550  0.00490  0.60630  Biso   1.000  O
  S68      1.0000 0.19260  0.98690  0.40110  Biso   1.000  S
  S69      1.0000 0.14926  0.08470  0.45580  Biso   1.000  S
  S70      1.0000 0.23100  0.15120  0.40350  Biso   1.000  S
  S71      1.0000 0.14770  0.95200  0.57160  Biso   1.000  S
  S72      1.0000 0.21120  0.05810  0.55530  Biso   1.000  S
  Zr12     1.0000 0.42654  0.00180  0.50169  Biso   1.000  Zr
  O106     1.0000 0.47050  0.03010  0.53200  Biso   1.000  O
  Hg12     1.0000 0.11624  0.11081  0.65763  Biso   1.000  Hg
  Cl23     1.0000 0.14930  0.06020  0.69730  Biso   1.000  Cl
  Cl24     1.0000 0.15080  0.15650  0.61870  Biso   1.000  Cl
  C508     1.0000 0.27000  0.18900  0.39300  Biso   1.000  C
  H580     1.0000 0.27090  0.20780  0.41490  Biso   1.000  H
  H581     1.0000 0.29530  0.17560  0.38980  Biso   1.000  H
  H582     1.0000 0.26290  0.20280  0.36830  Biso   1.000  H
  C509     1.0000 0.37730  0.01000  0.62530  Biso   1.000  C
  C510     1.0000 0.33690  0.00240  0.61610  Biso   1.000  C
  H583     1.0000 0.32910  0.99520  0.58990  Biso   1.000  H
  C511     1.0000 0.30990  0.00570  0.64550  Biso   1.000  C
  C512     1.0000 0.32260  0.01650  0.68430  Biso   1.000  C
  C513     1.0000 0.36240  0.02380  0.69230  Biso   1.000  C
  H584     1.0000 0.37020  0.03100  0.71850  Biso   1.000  H
  C514     1.0000 0.39100  0.02060  0.66270  Biso   1.000  C
  H585     1.0000 0.41840  0.02550  0.66780  Biso   1.000  H
  C515     1.0000 0.29390  0.01980  0.71470  Biso   1.000  C
  C516     1.0000 0.26590  0.02130  0.73720  Biso   1.000  C
  O107     1.0000 0.27000  0.99990  0.64350  Biso   1.000  O
  H586     1.0000 0.26850  0.96470  0.59580  Biso   1.000  H
  H587     1.0000 0.26730  0.01150  0.58550  Biso   1.000  H
  O108     1.0000 0.46230  0.04430  0.54090  Biso   1.000  O
  H588     1.0000 0.44620  0.06250  0.55810  Biso   1.000  H
  C517     1.0000 0.59180  0.90530  0.50280  Biso   1.000  C
  C518     1.0000 0.62190  0.87450  0.51350  Biso   1.000  C
  C519     1.0000 0.61060  0.83620  0.52710  Biso   1.000  C
  H589     1.0000 0.58330  0.82980  0.53010  Biso   1.000  H
  C520     1.0000 0.63870  0.80870  0.53580  Biso   1.000  C
  C521     1.0000 0.67980  0.81740  0.53070  Biso   1.000  C
  C522     1.0000 0.68950  0.85500  0.51600  Biso   1.000  C
  H590     1.0000 0.71660  0.86050  0.51010  Biso   1.000  H
  C523     1.0000 0.66170  0.88470  0.50950  Biso   1.000  C
  H591     1.0000 0.66960  0.91090  0.50260  Biso   1.000  H
  C524     1.0000 0.70870  0.78810  0.53730  Biso   1.000  C
  C525     1.0000 0.73510  0.76380  0.53930  Biso   1.000  C
  O109     1.0000 0.63230  0.77150  0.55080  Biso   1.000  O
  C526     1.0000 0.59240  0.75730  0.55570  Biso   1.000  C
  H592     1.0000 0.57860  0.77300  0.57640  Biso   1.000  H
  H593     1.0000 0.57750  0.76000  0.53050  Biso   1.000  H
  C527     1.0000 0.59430  0.71480  0.56780  Biso   1.000  C
  C528     1.0000 0.61790  0.69010  0.53690  Biso   1.000  C
  H594     1.0000 0.64580  0.69950  0.53680  Biso   1.000  H
  H595     1.0000 0.61800  0.66200  0.54550  Biso   1.000  H
  C529     1.0000 0.62890  0.73140  0.46390  Biso   1.000  C
  H596     1.0000 0.61630  0.75730  0.46830  Biso   1.000  H
  H597     1.0000 0.65550  0.73140  0.47560  Biso   1.000  H
  H598     1.0000 0.63090  0.72640  0.43520  Biso   1.000  H
  C530     1.0000 0.55120  0.70040  0.57230  Biso   1.000  C
  H599     1.0000 0.53820  0.71670  0.59310  Biso   1.000  H
  H600     1.0000 0.53710  0.70570  0.54700  Biso   1.000  H
  C531     1.0000 0.53530  0.62660  0.53540  Biso   1.000  C
  H601     1.0000 0.51200  0.63900  0.52310  Biso   1.000  H
  H602     1.0000 0.55860  0.63080  0.51840  Biso   1.000  H
  H603     1.0000 0.53060  0.59810  0.53850  Biso   1.000  H
  C532     1.0000 0.61760  0.70740  0.60630  Biso   1.000  C
  H604     1.0000 0.61910  0.67840  0.61080  Biso   1.000  H
  H605     1.0000 0.64510  0.71730  0.60260  Biso   1.000  H
  C533     1.0000 0.63000  0.77420  0.65500  Biso   1.000  C
  H606     1.0000 0.62230  0.79020  0.67860  Biso   1.000  H
  H607     1.0000 0.62790  0.79050  0.63140  Biso   1.000  H
  H608     1.0000 0.65730  0.76500  0.65870  Biso   1.000  H
  C534     1.0000 0.40440  0.91000  0.50740  Biso   1.000  C
  C535     1.0000 0.37300  0.87950  0.51720  Biso   1.000  C
  C536     1.0000 0.38370  0.83870  0.51380  Biso   1.000  C
  H609     1.0000 0.41030  0.83180  0.50710  Biso   1.000  H
  C537     1.0000 0.35650  0.80990  0.51980  Biso   1.000  C
  C538     1.0000 0.31840  0.81980  0.53540  Biso   1.000  C
  C539     1.0000 0.30880  0.85980  0.53980  Biso   1.000  C
  H610     1.0000 0.28370  0.86670  0.55070  Biso   1.000  H
  C540     1.0000 0.33470  0.89020  0.52880  Biso   1.000  C
  H611     1.0000 0.32650  0.91720  0.52910  Biso   1.000  H
  C541     1.0000 0.28950  0.79040  0.54250  Biso   1.000  C
  C542     1.0000 0.26410  0.76480  0.54460  Biso   1.000  C
  O110     1.0000 0.36410  0.77020  0.51630  Biso   1.000  O
  C543     1.0000 0.39570  0.75800  0.49080  Biso   1.000  C
  H612     1.0000 0.39210  0.76900  0.46380  Biso   1.000  H
  H613     1.0000 0.42160  0.76700  0.50140  Biso   1.000  H
  C544     1.0000 0.39340  0.71090  0.49010  Biso   1.000  C
  C545     1.0000 0.35720  0.69830  0.47330  Biso   1.000  C
  H614     1.0000 0.35670  0.66890  0.47400  Biso   1.000  H
  H615     1.0000 0.33550  0.70770  0.49080  Biso   1.000  H
  S73      1.0000 0.34590  0.71320  0.42500  Biso   1.000  S
  C546     1.0000 0.29820  0.68590  0.42730  Biso   1.000  C
  H616     1.0000 0.28400  0.68910  0.40210  Biso   1.000  H
  H617     1.0000 0.28200  0.69660  0.44900  Biso   1.000  H
  H618     1.0000 0.30340  0.65770  0.43210  Biso   1.000  H
  C547     1.0000 0.42480  0.69930  0.46240  Biso   1.000  C
  H619     1.0000 0.42050  0.71350  0.43700  Biso   1.000  H
  H620     1.0000 0.45060  0.70830  0.47330  Biso   1.000  H
  C548     1.0000 0.47830  0.63830  0.43070  Biso   1.000  C
  H621     1.0000 0.48110  0.60990  0.42470  Biso   1.000  H
  H622     1.0000 0.49870  0.64620  0.44990  Biso   1.000  H
  H623     1.0000 0.48150  0.65370  0.40620  Biso   1.000  H
  C549     1.0000 0.39950  0.69570  0.53230  Biso   1.000  C
  H624     1.0000 0.37640  0.70440  0.54840  Biso   1.000  H
  H625     1.0000 0.39910  0.66630  0.53150  Biso   1.000  H
  C550     1.0000 0.42650  0.75470  0.58560  Biso   1.000  C
  H626     1.0000 0.39830  0.75880  0.57980  Biso   1.000  H
  H627     1.0000 0.43000  0.75030  0.61420  Biso   1.000  H
  H628     1.0000 0.44160  0.77830  0.57750  Biso   1.000  H
  O111     1.0000 0.55450  0.89220  0.50240  Biso   1.000  O
  O112     1.0000 0.60340  0.94010  0.49900  Biso   1.000  O
  O113     1.0000 0.44000  0.89640  0.50410  Biso   1.000  O
  O114     1.0000 0.39370  0.94550  0.50490  Biso   1.000  O
  S74      1.0000 0.59890  0.69260  0.48690  Biso   1.000  S
  S75      1.0000 0.54420  0.64926  0.58470  Biso   1.000  S
  S76      1.0000 0.59650  0.73100  0.65120  Biso   1.000  S
  S77      1.0000 0.42840  0.64770  0.45200  Biso   1.000  S
  S78      1.0000 0.44470  0.71120  0.55810  Biso   1.000  S
  Zr13     1.0000 0.49831  0.92654  0.50180  Biso   1.000  Zr
  O115     1.0000 0.46800  0.97050  0.53010  Biso   1.000  O
  Hg13     1.0000 0.34237  0.61624  0.61081  Biso   1.000  Hg
  Cl25     1.0000 0.30270  0.64930  0.56020  Biso   1.000  Cl
  Cl26     1.0000 0.38130  0.65080  0.65650  Biso   1.000  Cl
  C551     1.0000 0.60700  0.77000  0.68900  Biso   1.000  C
  H629     1.0000 0.58510  0.77090  0.70780  Biso   1.000  H
  H630     1.0000 0.61020  0.79530  0.67560  Biso   1.000  H
  H631     1.0000 0.63170  0.76290  0.70280  Biso   1.000  H
  C552     1.0000 0.37470  0.87730  0.51000  Biso   1.000  C
  C553     1.0000 0.38390  0.83690  0.50240  Biso   1.000  C
  H632     1.0000 0.41010  0.82910  0.49520  Biso   1.000  H
  C554     1.0000 0.35450  0.80990  0.50570  Biso   1.000  C
  C555     1.0000 0.31570  0.82260  0.51650  Biso   1.000  C
  C556     1.0000 0.30770  0.86240  0.52380  Biso   1.000  C
  H633     1.0000 0.28150  0.87020  0.53100  Biso   1.000  H
  C557     1.0000 0.33730  0.89100  0.52060  Biso   1.000  C
  H634     1.0000 0.33220  0.91840  0.52550  Biso   1.000  H
  C558     1.0000 0.28530  0.79390  0.51980  Biso   1.000  C
  C559     1.0000 0.26280  0.76590  0.52130  Biso   1.000  C
  O116     1.0000 0.35650  0.77000  0.49990  Biso   1.000  O
  H635     1.0000 0.40420  0.76850  0.46470  Biso   1.000  H
  H636     1.0000 0.41450  0.76730  0.51150  Biso   1.000  H
  O117     1.0000 0.45910  0.96230  0.54430  Biso   1.000  O
  H637     1.0000 0.44190  0.94620  0.56250  Biso   1.000  H
  C560     1.0000 0.90820  0.59470  0.50280  Biso   1.000  C
  C561     1.0000 0.87810  0.62550  0.51350  Biso   1.000  C
  C562     1.0000 0.88940  0.66380  0.52710  Biso   1.000  C
  H638     1.0000 0.91670  0.67020  0.53010  Biso   1.000  H
  C563     1.0000 0.86130  0.69130  0.53580  Biso   1.000  C
  C564     1.0000 0.82020  0.68260  0.53070  Biso   1.000  C
  C565     1.0000 0.81050  0.64500  0.51600  Biso   1.000  C
  H639     1.0000 0.78340  0.63950  0.51010  Biso   1.000  H
  C566     1.0000 0.83830  0.61530  0.50950  Biso   1.000  C
  H640     1.0000 0.83040  0.58910  0.50260  Biso   1.000  H
  C567     1.0000 0.79130  0.71190  0.53730  Biso   1.000  C
  C568     1.0000 0.76490  0.73620  0.53930  Biso   1.000  C
  O118     1.0000 0.86770  0.72850  0.55080  Biso   1.000  O
  C569     1.0000 0.90760  0.74270  0.55570  Biso   1.000  C
  H641     1.0000 0.92140  0.72700  0.57640  Biso   1.000  H
  H642     1.0000 0.92250  0.74000  0.53050  Biso   1.000  H
  C570     1.0000 0.90570  0.78520  0.56780  Biso   1.000  C
  C571     1.0000 0.88210  0.80990  0.53690  Biso   1.000  C
  H643     1.0000 0.85420  0.80050  0.53680  Biso   1.000  H
  H644     1.0000 0.88200  0.83800  0.54550  Biso   1.000  H
  C572     1.0000 0.87110  0.76860  0.46390  Biso   1.000  C
  H645     1.0000 0.88370  0.74270  0.46830  Biso   1.000  H
  H646     1.0000 0.84450  0.76860  0.47560  Biso   1.000  H
  H647     1.0000 0.86910  0.77360  0.43520  Biso   1.000  H
  C573     1.0000 0.94880  0.79960  0.57230  Biso   1.000  C
  H648     1.0000 0.96180  0.78330  0.59310  Biso   1.000  H
  H649     1.0000 0.96290  0.79430  0.54700  Biso   1.000  H
  C574     1.0000 0.96470  0.87340  0.53540  Biso   1.000  C
  H650     1.0000 0.98800  0.86100  0.52310  Biso   1.000  H
  H651     1.0000 0.94140  0.86920  0.51840  Biso   1.000  H
  H652     1.0000 0.96940  0.90190  0.53850  Biso   1.000  H
  C575     1.0000 0.88240  0.79260  0.60630  Biso   1.000  C
  H653     1.0000 0.88090  0.82160  0.61080  Biso   1.000  H
  H654     1.0000 0.85490  0.78270  0.60260  Biso   1.000  H
  C576     1.0000 0.87000  0.72580  0.65500  Biso   1.000  C
  H655     1.0000 0.87770  0.70980  0.67860  Biso   1.000  H
  H656     1.0000 0.87210  0.70950  0.63140  Biso   1.000  H
  H657     1.0000 0.84270  0.73500  0.65870  Biso   1.000  H
  C577     1.0000 0.09560  0.59000  0.50740  Biso   1.000  C
  C578     1.0000 0.12700  0.62050  0.51720  Biso   1.000  C
  C579     1.0000 0.11630  0.66130  0.51380  Biso   1.000  C
  H658     1.0000 0.08970  0.66820  0.50710  Biso   1.000  H
  C580     1.0000 0.14350  0.69010  0.51980  Biso   1.000  C
  C581     1.0000 0.18160  0.68020  0.53540  Biso   1.000  C
  C582     1.0000 0.19120  0.64020  0.53980  Biso   1.000  C
  H659     1.0000 0.21630  0.63330  0.55070  Biso   1.000  H
  C583     1.0000 0.16530  0.60980  0.52880  Biso   1.000  C
  H660     1.0000 0.17350  0.58280  0.52910  Biso   1.000  H
  C584     1.0000 0.21050  0.70960  0.54250  Biso   1.000  C
  C585     1.0000 0.23590  0.73520  0.54460  Biso   1.000  C
  O119     1.0000 0.13590  0.72980  0.51630  Biso   1.000  O
  C586     1.0000 0.10430  0.74200  0.49080  Biso   1.000  C
  H661     1.0000 0.10790  0.73100  0.46380  Biso   1.000  H
  H662     1.0000 0.07840  0.73300  0.50140  Biso   1.000  H
  C587     1.0000 0.10660  0.78910  0.49010  Biso   1.000  C
  C588     1.0000 0.14280  0.80170  0.47330  Biso   1.000  C
  H663     1.0000 0.14330  0.83110  0.47400  Biso   1.000  H
  H664     1.0000 0.16450  0.79230  0.49080  Biso   1.000  H
  S79      1.0000 0.15410  0.78680  0.42500  Biso   1.000  S
  C589     1.0000 0.20180  0.81410  0.42730  Biso   1.000  C
  H665     1.0000 0.21600  0.81090  0.40210  Biso   1.000  H
  H666     1.0000 0.21800  0.80340  0.44900  Biso   1.000  H
  H667     1.0000 0.19660  0.84230  0.43210  Biso   1.000  H
  C590     1.0000 0.07520  0.80070  0.46240  Biso   1.000  C
  H668     1.0000 0.07950  0.78650  0.43700  Biso   1.000  H
  H669     1.0000 0.04940  0.79170  0.47330  Biso   1.000  H
  C591     1.0000 0.02170  0.86170  0.43070  Biso   1.000  C
  H670     1.0000 0.01890  0.89010  0.42470  Biso   1.000  H
  H671     1.0000 0.00130  0.85380  0.44990  Biso   1.000  H
  H672     1.0000 0.01850  0.84630  0.40620  Biso   1.000  H
  C592     1.0000 0.10050  0.80430  0.53230  Biso   1.000  C
  H673     1.0000 0.12360  0.79560  0.54840  Biso   1.000  H
  H674     1.0000 0.10090  0.83370  0.53150  Biso   1.000  H
  C593     1.0000 0.07350  0.74530  0.58560  Biso   1.000  C
  H675     1.0000 0.10170  0.74120  0.57980  Biso   1.000  H
  H676     1.0000 0.07000  0.74970  0.61420  Biso   1.000  H
  H677     1.0000 0.05840  0.72170  0.57750  Biso   1.000  H
  O120     1.0000 0.94550  0.60780  0.50240  Biso   1.000  O
  O121     1.0000 0.89660  0.55990  0.49900  Biso   1.000  O
  O122     1.0000 0.06000  0.60360  0.50410  Biso   1.000  O
  O123     1.0000 0.10630  0.55450  0.50490  Biso   1.000  O
  S80      1.0000 0.90110  0.80740  0.48690  Biso   1.000  S
  S81      1.0000 0.95580  0.85074  0.58470  Biso   1.000  S
  S82      1.0000 0.90350  0.76900  0.65120  Biso   1.000  S
  S83      1.0000 0.07160  0.85230  0.45200  Biso   1.000  S
  S84      1.0000 0.05530  0.78880  0.55810  Biso   1.000  S
  Zr14     1.0000 0.00169  0.57346  0.50180  Biso   1.000  Zr
  O124     1.0000 0.03200  0.52950  0.53010  Biso   1.000  O
  Hg14     1.0000 0.15763  0.88376  0.61081  Biso   1.000  Hg
  Cl27     1.0000 0.19730  0.85070  0.56020  Biso   1.000  Cl
  Cl28     1.0000 0.11870  0.84920  0.65650  Biso   1.000  Cl
  C594     1.0000 0.89300  0.73000  0.68900  Biso   1.000  C
  H678     1.0000 0.91490  0.72910  0.70780  Biso   1.000  H
  H679     1.0000 0.88980  0.70470  0.67560  Biso   1.000  H
  H680     1.0000 0.86830  0.73710  0.70280  Biso   1.000  H
  C595     1.0000 0.12530  0.62270  0.51000  Biso   1.000  C
  C596     1.0000 0.11610  0.66310  0.50240  Biso   1.000  C
  H681     1.0000 0.08990  0.67090  0.49520  Biso   1.000  H
  C597     1.0000 0.14550  0.69010  0.50570  Biso   1.000  C
  C598     1.0000 0.18430  0.67740  0.51650  Biso   1.000  C
  C599     1.0000 0.19230  0.63760  0.52380  Biso   1.000  C
  H682     1.0000 0.21850  0.62980  0.53100  Biso   1.000  H
  C600     1.0000 0.16270  0.60900  0.52060  Biso   1.000  C
  H683     1.0000 0.16780  0.58160  0.52550  Biso   1.000  H
  C601     1.0000 0.21470  0.70610  0.51980  Biso   1.000  C
  C602     1.0000 0.23720  0.73410  0.52130  Biso   1.000  C
  O125     1.0000 0.14350  0.73000  0.49990  Biso   1.000  O
  H684     1.0000 0.09580  0.73150  0.46470  Biso   1.000  H
  H685     1.0000 0.08550  0.73270  0.51150  Biso   1.000  H
  O126     1.0000 0.04090  0.53770  0.54430  Biso   1.000  O
  H686     1.0000 0.05810  0.55380  0.56250  Biso   1.000  H
  C603     1.0000 0.90820  0.90530  0.99720  Biso   1.000  C
  C604     1.0000 0.87810  0.87450  0.98650  Biso   1.000  C
  C605     1.0000 0.88940  0.83620  0.97290  Biso   1.000  C
  H687     1.0000 0.91670  0.82980  0.96990  Biso   1.000  H
  C606     1.0000 0.86130  0.80870  0.96420  Biso   1.000  C
  C607     1.0000 0.82020  0.81740  0.96930  Biso   1.000  C
  C608     1.0000 0.81050  0.85500  0.98400  Biso   1.000  C
  H688     1.0000 0.78340  0.86050  0.98990  Biso   1.000  H
  C609     1.0000 0.83830  0.88470  0.99050  Biso   1.000  C
  H689     1.0000 0.83040  0.91090  0.99740  Biso   1.000  H
  C610     1.0000 0.79130  0.78810  0.96270  Biso   1.000  C
  C611     1.0000 0.76490  0.76380  0.96070  Biso   1.000  C
  O127     1.0000 0.86770  0.77150  0.94920  Biso   1.000  O
  C612     1.0000 0.90760  0.75730  0.94430  Biso   1.000  C
  H690     1.0000 0.92140  0.77300  0.92360  Biso   1.000  H
  H691     1.0000 0.92250  0.76000  0.96950  Biso   1.000  H
  C613     1.0000 0.90570  0.71480  0.93220  Biso   1.000  C
  C614     1.0000 0.88210  0.69010  0.96310  Biso   1.000  C
  H692     1.0000 0.85420  0.69950  0.96320  Biso   1.000  H
  H693     1.0000 0.88200  0.66200  0.95450  Biso   1.000  H
  C615     1.0000 0.87110  0.73140  0.03610  Biso   1.000  C
  H694     1.0000 0.88370  0.75730  0.03170  Biso   1.000  H
  H695     1.0000 0.84450  0.73140  0.02440  Biso   1.000  H
  H696     1.0000 0.86910  0.72640  0.06480  Biso   1.000  H
  C616     1.0000 0.94880  0.70040  0.92770  Biso   1.000  C
  H697     1.0000 0.96180  0.71670  0.90690  Biso   1.000  H
  H698     1.0000 0.96290  0.70570  0.95300  Biso   1.000  H
  C617     1.0000 0.96470  0.62660  0.96460  Biso   1.000  C
  H699     1.0000 0.98800  0.63900  0.97690  Biso   1.000  H
  H700     1.0000 0.94140  0.63080  0.98160  Biso   1.000  H
  H701     1.0000 0.96940  0.59810  0.96150  Biso   1.000  H
  C618     1.0000 0.88240  0.70740  0.89370  Biso   1.000  C
  H702     1.0000 0.88090  0.67840  0.88920  Biso   1.000  H
  H703     1.0000 0.85490  0.71730  0.89740  Biso   1.000  H
  C619     1.0000 0.87000  0.77420  0.84500  Biso   1.000  C
  H704     1.0000 0.87770  0.79020  0.82140  Biso   1.000  H
  H705     1.0000 0.87210  0.79050  0.86860  Biso   1.000  H
  H706     1.0000 0.84270  0.76500  0.84130  Biso   1.000  H
  C620     1.0000 0.09560  0.91000  0.99260  Biso   1.000  C
  C621     1.0000 0.12700  0.87950  0.98280  Biso   1.000  C
  C622     1.0000 0.11630  0.83870  0.98620  Biso   1.000  C
  H707     1.0000 0.08970  0.83180  0.99290  Biso   1.000  H
  C623     1.0000 0.14350  0.80990  0.98020  Biso   1.000  C
  C624     1.0000 0.18160  0.81980  0.96460  Biso   1.000  C
  C625     1.0000 0.19120  0.85980  0.96020  Biso   1.000  C
  H708     1.0000 0.21630  0.86670  0.94930  Biso   1.000  H
  C626     1.0000 0.16530  0.89020  0.97120  Biso   1.000  C
  H709     1.0000 0.17350  0.91720  0.97090  Biso   1.000  H
  C627     1.0000 0.21050  0.79040  0.95750  Biso   1.000  C
  C628     1.0000 0.23590  0.76480  0.95540  Biso   1.000  C
  O128     1.0000 0.13590  0.77020  0.98370  Biso   1.000  O
  C629     1.0000 0.10430  0.75800  0.00920  Biso   1.000  C
  H710     1.0000 0.10790  0.76900  0.03620  Biso   1.000  H
  H711     1.0000 0.07840  0.76700  0.99860  Biso   1.000  H
  C630     1.0000 0.10660  0.71090  0.00990  Biso   1.000  C
  C631     1.0000 0.14280  0.69830  0.02670  Biso   1.000  C
  H712     1.0000 0.14330  0.66890  0.02600  Biso   1.000  H
  H713     1.0000 0.16450  0.70770  0.00920  Biso   1.000  H
  S85      1.0000 0.15410  0.71320  0.07500  Biso   1.000  S
  C632     1.0000 0.20180  0.68590  0.07270  Biso   1.000  C
  H714     1.0000 0.21600  0.68910  0.09790  Biso   1.000  H
  H715     1.0000 0.21800  0.69660  0.05100  Biso   1.000  H
  H716     1.0000 0.19660  0.65770  0.06790  Biso   1.000  H
  C633     1.0000 0.07520  0.69930  0.03760  Biso   1.000  C
  H717     1.0000 0.07950  0.71350  0.06300  Biso   1.000  H
  H718     1.0000 0.04940  0.70830  0.02670  Biso   1.000  H
  C634     1.0000 0.02170  0.63830  0.06930  Biso   1.000  C
  H719     1.0000 0.01890  0.60990  0.07530  Biso   1.000  H
  H720     1.0000 0.00130  0.64620  0.05010  Biso   1.000  H
  H721     1.0000 0.01850  0.65370  0.09380  Biso   1.000  H
  C635     1.0000 0.10050  0.69570  0.96770  Biso   1.000  C
  H722     1.0000 0.12360  0.70440  0.95160  Biso   1.000  H
  H723     1.0000 0.10090  0.66630  0.96850  Biso   1.000  H
  C636     1.0000 0.07350  0.75470  0.91440  Biso   1.000  C
  H724     1.0000 0.10170  0.75880  0.92020  Biso   1.000  H
  H725     1.0000 0.07000  0.75030  0.88580  Biso   1.000  H
  H726     1.0000 0.05840  0.77830  0.92250  Biso   1.000  H
  O129     1.0000 0.94550  0.89220  0.99760  Biso   1.000  O
  O130     1.0000 0.89660  0.94010  0.00100  Biso   1.000  O
  O131     1.0000 0.06000  0.89640  0.99590  Biso   1.000  O
  O132     1.0000 0.10630  0.94550  0.99510  Biso   1.000  O
  S86      1.0000 0.90110  0.69260  0.01310  Biso   1.000  S
  S87      1.0000 0.95580  0.64926  0.91530  Biso   1.000  S
  S88      1.0000 0.90350  0.73100  0.84880  Biso   1.000  S
  S89      1.0000 0.07160  0.64770  0.04800  Biso   1.000  S
  S90      1.0000 0.05530  0.71120  0.94190  Biso   1.000  S
  Zr15     1.0000 0.00169  0.92654  0.99820  Biso   1.000  Zr
  O133     1.0000 0.03200  0.97050  0.96990  Biso   1.000  O
  Hg15     1.0000 0.15763  0.61624  0.88919  Biso   1.000  Hg
  Cl29     1.0000 0.19730  0.64930  0.93980  Biso   1.000  Cl
  Cl30     1.0000 0.11870  0.65080  0.84350  Biso   1.000  Cl
  C637     1.0000 0.89300  0.77000  0.81100  Biso   1.000  C
  H727     1.0000 0.91490  0.77090  0.79220  Biso   1.000  H
  H728     1.0000 0.88980  0.79530  0.82440  Biso   1.000  H
  H729     1.0000 0.86830  0.76290  0.79720  Biso   1.000  H
  C638     1.0000 0.12530  0.87730  0.99000  Biso   1.000  C
  C639     1.0000 0.11610  0.83690  0.99760  Biso   1.000  C
  H730     1.0000 0.08990  0.82910  0.00480  Biso   1.000  H
  C640     1.0000 0.14550  0.80990  0.99430  Biso   1.000  C
  C641     1.0000 0.18430  0.82260  0.98350  Biso   1.000  C
  C642     1.0000 0.19230  0.86240  0.97620  Biso   1.000  C
  H731     1.0000 0.21850  0.87020  0.96900  Biso   1.000  H
  C643     1.0000 0.16270  0.89100  0.97940  Biso   1.000  C
  H732     1.0000 0.16780  0.91840  0.97450  Biso   1.000  H
  C644     1.0000 0.21470  0.79390  0.98020  Biso   1.000  C
  C645     1.0000 0.23720  0.76590  0.97870  Biso   1.000  C
  O134     1.0000 0.14350  0.77000  0.00010  Biso   1.000  O
  H733     1.0000 0.09580  0.76850  0.03530  Biso   1.000  H
  H734     1.0000 0.08550  0.76730  0.98850  Biso   1.000  H
  O135     1.0000 0.04090  0.96230  0.95570  Biso   1.000  O
  H735     1.0000 0.05810  0.94620  0.93750  Biso   1.000  H
  C646     1.0000 0.59180  0.59470  0.99720  Biso   1.000  C
  C647     1.0000 0.62190  0.62550  0.98650  Biso   1.000  C
  C648     1.0000 0.61060  0.66380  0.97290  Biso   1.000  C
  H736     1.0000 0.58330  0.67020  0.96990  Biso   1.000  H
  C649     1.0000 0.63870  0.69130  0.96420  Biso   1.000  C
  C650     1.0000 0.67980  0.68260  0.96930  Biso   1.000  C
  C651     1.0000 0.68950  0.64500  0.98400  Biso   1.000  C
  H737     1.0000 0.71660  0.63950  0.98990  Biso   1.000  H
  C652     1.0000 0.66170  0.61530  0.99050  Biso   1.000  C
  H738     1.0000 0.66960  0.58910  0.99740  Biso   1.000  H
  C653     1.0000 0.70870  0.71190  0.96270  Biso   1.000  C
  C654     1.0000 0.73510  0.73620  0.96070  Biso   1.000  C
  O136     1.0000 0.63230  0.72850  0.94920  Biso   1.000  O
  C655     1.0000 0.59240  0.74270  0.94430  Biso   1.000  C
  H739     1.0000 0.57860  0.72700  0.92360  Biso   1.000  H
  H740     1.0000 0.57750  0.74000  0.96950  Biso   1.000  H
  C656     1.0000 0.59430  0.78520  0.93220  Biso   1.000  C
  C657     1.0000 0.61790  0.80990  0.96310  Biso   1.000  C
  H741     1.0000 0.64580  0.80050  0.96320  Biso   1.000  H
  H742     1.0000 0.61800  0.83800  0.95450  Biso   1.000  H
  C658     1.0000 0.62890  0.76860  0.03610  Biso   1.000  C
  H743     1.0000 0.61630  0.74270  0.03170  Biso   1.000  H
  H744     1.0000 0.65550  0.76860  0.02440  Biso   1.000  H
  H745     1.0000 0.63090  0.77360  0.06480  Biso   1.000  H
  C659     1.0000 0.55120  0.79960  0.92770  Biso   1.000  C
  H746     1.0000 0.53820  0.78330  0.90690  Biso   1.000  H
  H747     1.0000 0.53710  0.79430  0.95300  Biso   1.000  H
  C660     1.0000 0.53530  0.87340  0.96460  Biso   1.000  C
  H748     1.0000 0.51200  0.86100  0.97690  Biso   1.000  H
  H749     1.0000 0.55860  0.86920  0.98160  Biso   1.000  H
  H750     1.0000 0.53060  0.90190  0.96150  Biso   1.000  H
  C661     1.0000 0.61760  0.79260  0.89370  Biso   1.000  C
  H751     1.0000 0.61910  0.82160  0.88920  Biso   1.000  H
  H752     1.0000 0.64510  0.78270  0.89740  Biso   1.000  H
  C662     1.0000 0.63000  0.72580  0.84500  Biso   1.000  C
  H753     1.0000 0.62230  0.70980  0.82140  Biso   1.000  H
  H754     1.0000 0.62790  0.70950  0.86860  Biso   1.000  H
  H755     1.0000 0.65730  0.73500  0.84130  Biso   1.000  H
  C663     1.0000 0.40440  0.59000  0.99260  Biso   1.000  C
  C664     1.0000 0.37300  0.62050  0.98280  Biso   1.000  C
  C665     1.0000 0.38370  0.66130  0.98620  Biso   1.000  C
  H756     1.0000 0.41030  0.66820  0.99290  Biso   1.000  H
  C666     1.0000 0.35650  0.69010  0.98020  Biso   1.000  C
  C667     1.0000 0.31840  0.68020  0.96460  Biso   1.000  C
  C668     1.0000 0.30880  0.64020  0.96020  Biso   1.000  C
  H757     1.0000 0.28370  0.63330  0.94930  Biso   1.000  H
  C669     1.0000 0.33470  0.60980  0.97120  Biso   1.000  C
  H758     1.0000 0.32650  0.58280  0.97090  Biso   1.000  H
  C670     1.0000 0.28950  0.70960  0.95750  Biso   1.000  C
  C671     1.0000 0.26410  0.73520  0.95540  Biso   1.000  C
  O137     1.0000 0.36410  0.72980  0.98370  Biso   1.000  O
  C672     1.0000 0.39570  0.74200  0.00920  Biso   1.000  C
  H759     1.0000 0.39210  0.73100  0.03620  Biso   1.000  H
  H760     1.0000 0.42160  0.73300  0.99860  Biso   1.000  H
  C673     1.0000 0.39340  0.78910  0.00990  Biso   1.000  C
  C674     1.0000 0.35720  0.80170  0.02670  Biso   1.000  C
  H761     1.0000 0.35670  0.83110  0.02600  Biso   1.000  H
  H762     1.0000 0.33550  0.79230  0.00920  Biso   1.000  H
  S91      1.0000 0.34590  0.78680  0.07500  Biso   1.000  S
  C675     1.0000 0.29820  0.81410  0.07270  Biso   1.000  C
  H763     1.0000 0.28400  0.81090  0.09790  Biso   1.000  H
  H764     1.0000 0.28200  0.80340  0.05100  Biso   1.000  H
  H765     1.0000 0.30340  0.84230  0.06790  Biso   1.000  H
  C676     1.0000 0.42480  0.80070  0.03760  Biso   1.000  C
  H766     1.0000 0.42050  0.78650  0.06300  Biso   1.000  H
  H767     1.0000 0.45060  0.79170  0.02670  Biso   1.000  H
  C677     1.0000 0.47830  0.86170  0.06930  Biso   1.000  C
  H768     1.0000 0.48110  0.89010  0.07530  Biso   1.000  H
  H769     1.0000 0.49870  0.85380  0.05010  Biso   1.000  H
  H770     1.0000 0.48150  0.84630  0.09380  Biso   1.000  H
  C678     1.0000 0.39950  0.80430  0.96770  Biso   1.000  C
  H771     1.0000 0.37640  0.79560  0.95160  Biso   1.000  H
  H772     1.0000 0.39910  0.83370  0.96850  Biso   1.000  H
  C679     1.0000 0.42650  0.74530  0.91440  Biso   1.000  C
  H773     1.0000 0.39830  0.74120  0.92020  Biso   1.000  H
  H774     1.0000 0.43000  0.74970  0.88580  Biso   1.000  H
  H775     1.0000 0.44160  0.72170  0.92250  Biso   1.000  H
  O138     1.0000 0.55450  0.60780  0.99760  Biso   1.000  O
  O139     1.0000 0.60340  0.55990  0.00100  Biso   1.000  O
  O140     1.0000 0.44000  0.60360  0.99590  Biso   1.000  O
  O141     1.0000 0.39370  0.55450  0.99510  Biso   1.000  O
  S92      1.0000 0.59890  0.80740  0.01310  Biso   1.000  S
  S93      1.0000 0.54420  0.85074  0.91530  Biso   1.000  S
  S94      1.0000 0.59650  0.76900  0.84880  Biso   1.000  S
  S95      1.0000 0.42840  0.85230  0.04800  Biso   1.000  S
  S96      1.0000 0.44470  0.78880  0.94190  Biso   1.000  S
  Zr16     1.0000 0.49831  0.57346  0.99820  Biso   1.000  Zr
  O142     1.0000 0.46800  0.52950  0.96990  Biso   1.000  O
  Hg16     1.0000 0.34237  0.88376  0.88919  Biso   1.000  Hg
  Cl31     1.0000 0.30270  0.85070  0.93980  Biso   1.000  Cl
  Cl32     1.0000 0.38130  0.84920  0.84350  Biso   1.000  Cl
  C680     1.0000 0.60700  0.73000  0.81100  Biso   1.000  C
  H776     1.0000 0.58510  0.72910  0.79220  Biso   1.000  H
  H777     1.0000 0.61020  0.70470  0.82440  Biso   1.000  H
  H778     1.0000 0.63170  0.73710  0.79720  Biso   1.000  H
  C681     1.0000 0.37470  0.62270  0.99000  Biso   1.000  C
  C682     1.0000 0.38390  0.66310  0.99760  Biso   1.000  C
  H779     1.0000 0.41010  0.67090  0.00480  Biso   1.000  H
  C683     1.0000 0.35450  0.69010  0.99430  Biso   1.000  C
  C684     1.0000 0.31570  0.67740  0.98350  Biso   1.000  C
  C685     1.0000 0.30770  0.63760  0.97620  Biso   1.000  C
  H780     1.0000 0.28150  0.62980  0.96900  Biso   1.000  H
  C686     1.0000 0.33730  0.60900  0.97940  Biso   1.000  C
  H781     1.0000 0.33220  0.58160  0.97450  Biso   1.000  H
  C687     1.0000 0.28530  0.70610  0.98020  Biso   1.000  C
  C688     1.0000 0.26280  0.73410  0.97870  Biso   1.000  C
  O143     1.0000 0.35650  0.73000  0.00010  Biso   1.000  O
  H782     1.0000 0.40420  0.73150  0.03530  Biso   1.000  H
  H783     1.0000 0.41450  0.73270  0.98850  Biso   1.000  H
  O144     1.0000 0.45910  0.53770  0.95570  Biso   1.000  O
  H784     1.0000 0.44190  0.55380  0.93750  Biso   1.000  H
  C689     1.0000 0.50280  0.59180  0.90530  Biso   1.000  C
  C690     1.0000 0.51350  0.62190  0.87450  Biso   1.000  C
  C691     1.0000 0.52710  0.61060  0.83620  Biso   1.000  C
  H785     1.0000 0.53010  0.58330  0.82980  Biso   1.000  H
  C692     1.0000 0.53580  0.63870  0.80870  Biso   1.000  C
  C693     1.0000 0.53070  0.67980  0.81740  Biso   1.000  C
  C694     1.0000 0.51600  0.68950  0.85500  Biso   1.000  C
  H786     1.0000 0.51010  0.71660  0.86050  Biso   1.000  H
  C695     1.0000 0.50950  0.66170  0.88470  Biso   1.000  C
  H787     1.0000 0.50260  0.66960  0.91090  Biso   1.000  H
  C696     1.0000 0.53730  0.70870  0.78810  Biso   1.000  C
  C697     1.0000 0.53930  0.73510  0.76380  Biso   1.000  C
  O145     1.0000 0.55080  0.63230  0.77150  Biso   1.000  O
  C698     1.0000 0.55570  0.59240  0.75730  Biso   1.000  C
  H788     1.0000 0.57640  0.57860  0.77300  Biso   1.000  H
  H789     1.0000 0.53050  0.57750  0.76000  Biso   1.000  H
  C699     1.0000 0.56780  0.59430  0.71480  Biso   1.000  C
  C700     1.0000 0.53690  0.61790  0.69010  Biso   1.000  C
  H790     1.0000 0.53680  0.64580  0.69950  Biso   1.000  H
  H791     1.0000 0.54550  0.61800  0.66200  Biso   1.000  H
  C701     1.0000 0.46390  0.62890  0.73140  Biso   1.000  C
  H792     1.0000 0.46830  0.61630  0.75730  Biso   1.000  H
  H793     1.0000 0.47560  0.65550  0.73140  Biso   1.000  H
  H794     1.0000 0.43520  0.63090  0.72640  Biso   1.000  H
  C702     1.0000 0.57230  0.55120  0.70040  Biso   1.000  C
  H795     1.0000 0.59310  0.53820  0.71670  Biso   1.000  H
  H796     1.0000 0.54700  0.53710  0.70570  Biso   1.000  H
  C703     1.0000 0.53540  0.53530  0.62660  Biso   1.000  C
  H797     1.0000 0.52310  0.51200  0.63900  Biso   1.000  H
  H798     1.0000 0.51840  0.55860  0.63080  Biso   1.000  H
  H799     1.0000 0.53850  0.53060  0.59810  Biso   1.000  H
  C704     1.0000 0.60630  0.61760  0.70740  Biso   1.000  C
  H800     1.0000 0.61080  0.61910  0.67840  Biso   1.000  H
  H801     1.0000 0.60260  0.64510  0.71730  Biso   1.000  H
  C705     1.0000 0.65500  0.63000  0.77420  Biso   1.000  C
  H802     1.0000 0.67860  0.62230  0.79020  Biso   1.000  H
  H803     1.0000 0.63140  0.62790  0.79050  Biso   1.000  H
  H804     1.0000 0.65870  0.65730  0.76500  Biso   1.000  H
  C706     1.0000 0.50740  0.40440  0.91000  Biso   1.000  C
  C707     1.0000 0.51720  0.37300  0.87950  Biso   1.000  C
  C708     1.0000 0.51380  0.38370  0.83870  Biso   1.000  C
  H805     1.0000 0.50710  0.41030  0.83180  Biso   1.000  H
  C709     1.0000 0.51980  0.35650  0.80990  Biso   1.000  C
  C710     1.0000 0.53540  0.31840  0.81980  Biso   1.000  C
  C711     1.0000 0.53980  0.30880  0.85980  Biso   1.000  C
  H806     1.0000 0.55070  0.28370  0.86670  Biso   1.000  H
  C712     1.0000 0.52880  0.33470  0.89020  Biso   1.000  C
  H807     1.0000 0.52910  0.32650  0.91720  Biso   1.000  H
  C713     1.0000 0.54250  0.28950  0.79040  Biso   1.000  C
  C714     1.0000 0.54460  0.26410  0.76480  Biso   1.000  C
  O146     1.0000 0.51630  0.36410  0.77020  Biso   1.000  O
  C715     1.0000 0.49080  0.39570  0.75800  Biso   1.000  C
  H808     1.0000 0.46380  0.39210  0.76900  Biso   1.000  H
  H809     1.0000 0.50140  0.42160  0.76700  Biso   1.000  H
  C716     1.0000 0.49010  0.39340  0.71090  Biso   1.000  C
  C717     1.0000 0.47330  0.35720  0.69830  Biso   1.000  C
  H810     1.0000 0.47400  0.35670  0.66890  Biso   1.000  H
  H811     1.0000 0.49080  0.33550  0.70770  Biso   1.000  H
  S97      1.0000 0.42500  0.34590  0.71320  Biso   1.000  S
  C718     1.0000 0.42730  0.29820  0.68590  Biso   1.000  C
  H812     1.0000 0.40210  0.28400  0.68910  Biso   1.000  H
  H813     1.0000 0.44900  0.28200  0.69660  Biso   1.000  H
  H814     1.0000 0.43210  0.30340  0.65770  Biso   1.000  H
  C719     1.0000 0.46240  0.42480  0.69930  Biso   1.000  C
  H815     1.0000 0.43700  0.42050  0.71350  Biso   1.000  H
  H816     1.0000 0.47330  0.45060  0.70830  Biso   1.000  H
  C720     1.0000 0.43070  0.47830  0.63830  Biso   1.000  C
  H817     1.0000 0.42470  0.48110  0.60990  Biso   1.000  H
  H818     1.0000 0.44990  0.49870  0.64620  Biso   1.000  H
  H819     1.0000 0.40620  0.48150  0.65370  Biso   1.000  H
  C721     1.0000 0.53230  0.39950  0.69570  Biso   1.000  C
  H820     1.0000 0.54840  0.37640  0.70440  Biso   1.000  H
  H821     1.0000 0.53150  0.39910  0.66630  Biso   1.000  H
  C722     1.0000 0.58560  0.42650  0.75470  Biso   1.000  C
  H822     1.0000 0.57980  0.39830  0.75880  Biso   1.000  H
  H823     1.0000 0.61420  0.43000  0.75030  Biso   1.000  H
  H824     1.0000 0.57750  0.44160  0.77830  Biso   1.000  H
  O147     1.0000 0.50240  0.55450  0.89220  Biso   1.000  O
  O148     1.0000 0.49900  0.60340  0.94010  Biso   1.000  O
  O149     1.0000 0.50410  0.44000  0.89640  Biso   1.000  O
  O150     1.0000 0.50490  0.39370  0.94550  Biso   1.000  O
  S98      1.0000 0.48690  0.59890  0.69260  Biso   1.000  S
  S99      1.0000 0.58470  0.54420  0.64926  Biso   1.000  S
  S100     1.0000 0.65120  0.59650  0.73100  Biso   1.000  S
  S101     1.0000 0.45200  0.42840  0.64770  Biso   1.000  S
  S102     1.0000 0.55810  0.44470  0.71120  Biso   1.000  S
  Zr17     1.0000 0.50180  0.49831  0.92654  Biso   1.000  Zr
  O151     1.0000 0.53010  0.46800  0.97050  Biso   1.000  O
  Hg17     1.0000 0.61081  0.34237  0.61624  Biso   1.000  Hg
  Cl33     1.0000 0.56020  0.30270  0.64930  Biso   1.000  Cl
  Cl34     1.0000 0.65650  0.38130  0.65080  Biso   1.000  Cl
  C723     1.0000 0.68900  0.60700  0.77000  Biso   1.000  C
  H825     1.0000 0.70780  0.58510  0.77090  Biso   1.000  H
  H826     1.0000 0.67560  0.61020  0.79530  Biso   1.000  H
  H827     1.0000 0.70280  0.63170  0.76290  Biso   1.000  H
  C724     1.0000 0.51000  0.37470  0.87730  Biso   1.000  C
  C725     1.0000 0.50240  0.38390  0.83690  Biso   1.000  C
  H828     1.0000 0.49520  0.41010  0.82910  Biso   1.000  H
  C726     1.0000 0.50570  0.35450  0.80990  Biso   1.000  C
  C727     1.0000 0.51650  0.31570  0.82260  Biso   1.000  C
  C728     1.0000 0.52380  0.30770  0.86240  Biso   1.000  C
  H829     1.0000 0.53100  0.28150  0.87020  Biso   1.000  H
  C729     1.0000 0.52060  0.33730  0.89100  Biso   1.000  C
  H830     1.0000 0.52550  0.33220  0.91840  Biso   1.000  H
  C730     1.0000 0.51980  0.28530  0.79390  Biso   1.000  C
  C731     1.0000 0.52130  0.26280  0.76590  Biso   1.000  C
  O152     1.0000 0.49990  0.35650  0.77000  Biso   1.000  O
  H831     1.0000 0.46470  0.40420  0.76850  Biso   1.000  H
  H832     1.0000 0.51150  0.41450  0.76730  Biso   1.000  H
  O153     1.0000 0.54430  0.45910  0.96230  Biso   1.000  O
  H833     1.0000 0.56250  0.44190  0.94620  Biso   1.000  H
  C732     1.0000 0.50280  0.90820  0.59470  Biso   1.000  C
  C733     1.0000 0.51350  0.87810  0.62550  Biso   1.000  C
  C734     1.0000 0.52710  0.88940  0.66380  Biso   1.000  C
  H834     1.0000 0.53010  0.91670  0.67020  Biso   1.000  H
  C735     1.0000 0.53580  0.86130  0.69130  Biso   1.000  C
  C736     1.0000 0.53070  0.82020  0.68260  Biso   1.000  C
  C737     1.0000 0.51600  0.81050  0.64500  Biso   1.000  C
  H835     1.0000 0.51010  0.78340  0.63950  Biso   1.000  H
  C738     1.0000 0.50950  0.83830  0.61530  Biso   1.000  C
  H836     1.0000 0.50260  0.83040  0.58910  Biso   1.000  H
  C739     1.0000 0.53730  0.79130  0.71190  Biso   1.000  C
  C740     1.0000 0.53930  0.76490  0.73620  Biso   1.000  C
  O154     1.0000 0.55080  0.86770  0.72850  Biso   1.000  O
  C741     1.0000 0.55570  0.90760  0.74270  Biso   1.000  C
  H837     1.0000 0.57640  0.92140  0.72700  Biso   1.000  H
  H838     1.0000 0.53050  0.92250  0.74000  Biso   1.000  H
  C742     1.0000 0.56780  0.90570  0.78520  Biso   1.000  C
  C743     1.0000 0.53690  0.88210  0.80990  Biso   1.000  C
  H839     1.0000 0.53680  0.85420  0.80050  Biso   1.000  H
  H840     1.0000 0.54550  0.88200  0.83800  Biso   1.000  H
  C744     1.0000 0.46390  0.87110  0.76860  Biso   1.000  C
  H841     1.0000 0.46830  0.88370  0.74270  Biso   1.000  H
  H842     1.0000 0.47560  0.84450  0.76860  Biso   1.000  H
  H843     1.0000 0.43520  0.86910  0.77360  Biso   1.000  H
  C745     1.0000 0.57230  0.94880  0.79960  Biso   1.000  C
  H844     1.0000 0.59310  0.96180  0.78330  Biso   1.000  H
  H845     1.0000 0.54700  0.96290  0.79430  Biso   1.000  H
  C746     1.0000 0.53540  0.96470  0.87340  Biso   1.000  C
  H846     1.0000 0.52310  0.98800  0.86100  Biso   1.000  H
  H847     1.0000 0.51840  0.94140  0.86920  Biso   1.000  H
  H848     1.0000 0.53850  0.96940  0.90190  Biso   1.000  H
  C747     1.0000 0.60630  0.88240  0.79260  Biso   1.000  C
  H849     1.0000 0.61080  0.88090  0.82160  Biso   1.000  H
  H850     1.0000 0.60260  0.85490  0.78270  Biso   1.000  H
  C748     1.0000 0.65500  0.87000  0.72580  Biso   1.000  C
  H851     1.0000 0.67860  0.87770  0.70980  Biso   1.000  H
  H852     1.0000 0.63140  0.87210  0.70950  Biso   1.000  H
  H853     1.0000 0.65870  0.84270  0.73500  Biso   1.000  H
  C749     1.0000 0.50740  0.09560  0.59000  Biso   1.000  C
  C750     1.0000 0.51720  0.12700  0.62050  Biso   1.000  C
  C751     1.0000 0.51380  0.11630  0.66130  Biso   1.000  C
  H854     1.0000 0.50710  0.08970  0.66820  Biso   1.000  H
  C752     1.0000 0.51980  0.14350  0.69010  Biso   1.000  C
  C753     1.0000 0.53540  0.18160  0.68020  Biso   1.000  C
  C754     1.0000 0.53980  0.19120  0.64020  Biso   1.000  C
  H855     1.0000 0.55070  0.21630  0.63330  Biso   1.000  H
  C755     1.0000 0.52880  0.16530  0.60980  Biso   1.000  C
  H856     1.0000 0.52910  0.17350  0.58280  Biso   1.000  H
  C756     1.0000 0.54250  0.21050  0.70960  Biso   1.000  C
  C757     1.0000 0.54460  0.23590  0.73520  Biso   1.000  C
  O155     1.0000 0.51630  0.13590  0.72980  Biso   1.000  O
  C758     1.0000 0.49080  0.10430  0.74200  Biso   1.000  C
  H857     1.0000 0.46380  0.10790  0.73100  Biso   1.000  H
  H858     1.0000 0.50140  0.07840  0.73300  Biso   1.000  H
  C759     1.0000 0.49010  0.10660  0.78910  Biso   1.000  C
  C760     1.0000 0.47330  0.14280  0.80170  Biso   1.000  C
  H859     1.0000 0.47400  0.14330  0.83110  Biso   1.000  H
  H860     1.0000 0.49080  0.16450  0.79230  Biso   1.000  H
  S103     1.0000 0.42500  0.15410  0.78680  Biso   1.000  S
  C761     1.0000 0.42730  0.20180  0.81410  Biso   1.000  C
  H861     1.0000 0.40210  0.21600  0.81090  Biso   1.000  H
  H862     1.0000 0.44900  0.21800  0.80340  Biso   1.000  H
  H863     1.0000 0.43210  0.19660  0.84230  Biso   1.000  H
  C762     1.0000 0.46240  0.07520  0.80070  Biso   1.000  C
  H864     1.0000 0.43700  0.07950  0.78650  Biso   1.000  H
  H865     1.0000 0.47330  0.04940  0.79170  Biso   1.000  H
  C763     1.0000 0.43070  0.02170  0.86170  Biso   1.000  C
  H866     1.0000 0.42470  0.01890  0.89010  Biso   1.000  H
  H867     1.0000 0.44990  0.00130  0.85380  Biso   1.000  H
  H868     1.0000 0.40620  0.01850  0.84630  Biso   1.000  H
  C764     1.0000 0.53230  0.10050  0.80430  Biso   1.000  C
  H869     1.0000 0.54840  0.12360  0.79560  Biso   1.000  H
  H870     1.0000 0.53150  0.10090  0.83370  Biso   1.000  H
  C765     1.0000 0.58560  0.07350  0.74530  Biso   1.000  C
  H871     1.0000 0.57980  0.10170  0.74120  Biso   1.000  H
  H872     1.0000 0.61420  0.07000  0.74970  Biso   1.000  H
  H873     1.0000 0.57750  0.05840  0.72170  Biso   1.000  H
  O156     1.0000 0.50240  0.94550  0.60780  Biso   1.000  O
  O157     1.0000 0.49900  0.89660  0.55990  Biso   1.000  O
  O158     1.0000 0.50410  0.06000  0.60360  Biso   1.000  O
  O159     1.0000 0.50490  0.10630  0.55450  Biso   1.000  O
  S104     1.0000 0.48690  0.90110  0.80740  Biso   1.000  S
  S105     1.0000 0.58470  0.95580  0.85074  Biso   1.000  S
  S106     1.0000 0.65120  0.90350  0.76900  Biso   1.000  S
  S107     1.0000 0.45200  0.07160  0.85230  Biso   1.000  S
  S108     1.0000 0.55810  0.05530  0.78880  Biso   1.000  S
  Zr18     1.0000 0.50180  0.00169  0.57346  Biso   1.000  Zr
  O160     1.0000 0.53010  0.03200  0.52950  Biso   1.000  O
  Hg18     1.0000 0.61081  0.15763  0.88376  Biso   1.000  Hg
  Cl35     1.0000 0.56020  0.19730  0.85070  Biso   1.000  Cl
  Cl36     1.0000 0.65650  0.11870  0.84920  Biso   1.000  Cl
  C766     1.0000 0.68900  0.89300  0.73000  Biso   1.000  C
  H874     1.0000 0.70780  0.91490  0.72910  Biso   1.000  H
  H875     1.0000 0.67560  0.88980  0.70470  Biso   1.000  H
  H876     1.0000 0.70280  0.86830  0.73710  Biso   1.000  H
  C767     1.0000 0.51000  0.12530  0.62270  Biso   1.000  C
  C768     1.0000 0.50240  0.11610  0.66310  Biso   1.000  C
  H877     1.0000 0.49520  0.08990  0.67090  Biso   1.000  H
  C769     1.0000 0.50570  0.14550  0.69010  Biso   1.000  C
  C770     1.0000 0.51650  0.18430  0.67740  Biso   1.000  C
  C771     1.0000 0.52380  0.19230  0.63760  Biso   1.000  C
  H878     1.0000 0.53100  0.21850  0.62980  Biso   1.000  H
  C772     1.0000 0.52060  0.16270  0.60900  Biso   1.000  C
  H879     1.0000 0.52550  0.16780  0.58160  Biso   1.000  H
  C773     1.0000 0.51980  0.21470  0.70610  Biso   1.000  C
  C774     1.0000 0.52130  0.23720  0.73410  Biso   1.000  C
  O161     1.0000 0.49990  0.14350  0.73000  Biso   1.000  O
  H880     1.0000 0.46470  0.09580  0.73150  Biso   1.000  H
  H881     1.0000 0.51150  0.08550  0.73270  Biso   1.000  H
  O162     1.0000 0.54430  0.04090  0.53770  Biso   1.000  O
  H882     1.0000 0.56250  0.05810  0.55380  Biso   1.000  H
  C775     1.0000 0.99720  0.90820  0.90530  Biso   1.000  C
  C776     1.0000 0.98650  0.87810  0.87450  Biso   1.000  C
  C777     1.0000 0.97290  0.88940  0.83620  Biso   1.000  C
  H883     1.0000 0.96990  0.91670  0.82980  Biso   1.000  H
  C778     1.0000 0.96420  0.86130  0.80870  Biso   1.000  C
  C779     1.0000 0.96930  0.82020  0.81740  Biso   1.000  C
  C780     1.0000 0.98400  0.81050  0.85500  Biso   1.000  C
  H884     1.0000 0.98990  0.78340  0.86050  Biso   1.000  H
  C781     1.0000 0.99050  0.83830  0.88470  Biso   1.000  C
  H885     1.0000 0.99740  0.83040  0.91090  Biso   1.000  H
  C782     1.0000 0.96270  0.79130  0.78810  Biso   1.000  C
  C783     1.0000 0.96070  0.76490  0.76380  Biso   1.000  C
  O163     1.0000 0.94920  0.86770  0.77150  Biso   1.000  O
  C784     1.0000 0.94430  0.90760  0.75730  Biso   1.000  C
  H886     1.0000 0.92360  0.92140  0.77300  Biso   1.000  H
  H887     1.0000 0.96950  0.92250  0.76000  Biso   1.000  H
  C785     1.0000 0.93220  0.90570  0.71480  Biso   1.000  C
  C786     1.0000 0.96310  0.88210  0.69010  Biso   1.000  C
  H888     1.0000 0.96320  0.85420  0.69950  Biso   1.000  H
  H889     1.0000 0.95450  0.88200  0.66200  Biso   1.000  H
  C787     1.0000 0.03610  0.87110  0.73140  Biso   1.000  C
  H890     1.0000 0.03170  0.88370  0.75730  Biso   1.000  H
  H891     1.0000 0.02440  0.84450  0.73140  Biso   1.000  H
  H892     1.0000 0.06480  0.86910  0.72640  Biso   1.000  H
  C788     1.0000 0.92770  0.94880  0.70040  Biso   1.000  C
  H893     1.0000 0.90690  0.96180  0.71670  Biso   1.000  H
  H894     1.0000 0.95300  0.96290  0.70570  Biso   1.000  H
  C789     1.0000 0.96460  0.96470  0.62660  Biso   1.000  C
  H895     1.0000 0.97690  0.98800  0.63900  Biso   1.000  H
  H896     1.0000 0.98160  0.94140  0.63080  Biso   1.000  H
  H897     1.0000 0.96150  0.96940  0.59810  Biso   1.000  H
  C790     1.0000 0.89370  0.88240  0.70740  Biso   1.000  C
  H898     1.0000 0.88920  0.88090  0.67840  Biso   1.000  H
  H899     1.0000 0.89740  0.85490  0.71730  Biso   1.000  H
  C791     1.0000 0.84500  0.87000  0.77420  Biso   1.000  C
  H900     1.0000 0.82140  0.87770  0.79020  Biso   1.000  H
  H901     1.0000 0.86860  0.87210  0.79050  Biso   1.000  H
  H902     1.0000 0.84130  0.84270  0.76500  Biso   1.000  H
  C792     1.0000 0.99260  0.09560  0.91000  Biso   1.000  C
  C793     1.0000 0.98280  0.12700  0.87950  Biso   1.000  C
  C794     1.0000 0.98620  0.11630  0.83870  Biso   1.000  C
  H903     1.0000 0.99290  0.08970  0.83180  Biso   1.000  H
  C795     1.0000 0.98020  0.14350  0.80990  Biso   1.000  C
  C796     1.0000 0.96460  0.18160  0.81980  Biso   1.000  C
  C797     1.0000 0.96020  0.19120  0.85980  Biso   1.000  C
  H904     1.0000 0.94930  0.21630  0.86670  Biso   1.000  H
  C798     1.0000 0.97120  0.16530  0.89020  Biso   1.000  C
  H905     1.0000 0.97090  0.17350  0.91720  Biso   1.000  H
  C799     1.0000 0.95750  0.21050  0.79040  Biso   1.000  C
  C800     1.0000 0.95540  0.23590  0.76480  Biso   1.000  C
  O164     1.0000 0.98370  0.13590  0.77020  Biso   1.000  O
  C801     1.0000 0.00920  0.10430  0.75800  Biso   1.000  C
  H906     1.0000 0.03620  0.10790  0.76900  Biso   1.000  H
  H907     1.0000 0.99860  0.07840  0.76700  Biso   1.000  H
  C802     1.0000 0.00990  0.10660  0.71090  Biso   1.000  C
  C803     1.0000 0.02670  0.14280  0.69830  Biso   1.000  C
  H908     1.0000 0.02600  0.14330  0.66890  Biso   1.000  H
  H909     1.0000 0.00920  0.16450  0.70770  Biso   1.000  H
  S109     1.0000 0.07500  0.15410  0.71320  Biso   1.000  S
  C804     1.0000 0.07270  0.20180  0.68590  Biso   1.000  C
  H910     1.0000 0.09790  0.21600  0.68910  Biso   1.000  H
  H911     1.0000 0.05100  0.21800  0.69660  Biso   1.000  H
  H912     1.0000 0.06790  0.19660  0.65770  Biso   1.000  H
  C805     1.0000 0.03760  0.07520  0.69930  Biso   1.000  C
  H913     1.0000 0.06300  0.07950  0.71350  Biso   1.000  H
  H914     1.0000 0.02670  0.04940  0.70830  Biso   1.000  H
  C806     1.0000 0.06930  0.02170  0.63830  Biso   1.000  C
  H915     1.0000 0.07530  0.01890  0.60990  Biso   1.000  H
  H916     1.0000 0.05010  0.00130  0.64620  Biso   1.000  H
  H917     1.0000 0.09380  0.01850  0.65370  Biso   1.000  H
  C807     1.0000 0.96770  0.10050  0.69570  Biso   1.000  C
  H918     1.0000 0.95160  0.12360  0.70440  Biso   1.000  H
  H919     1.0000 0.96850  0.10090  0.66630  Biso   1.000  H
  C808     1.0000 0.91440  0.07350  0.75470  Biso   1.000  C
  H920     1.0000 0.92020  0.10170  0.75880  Biso   1.000  H
  H921     1.0000 0.88580  0.07000  0.75030  Biso   1.000  H
  H922     1.0000 0.92250  0.05840  0.77830  Biso   1.000  H
  O165     1.0000 0.99760  0.94550  0.89220  Biso   1.000  O
  O166     1.0000 0.00100  0.89660  0.94010  Biso   1.000  O
  O167     1.0000 0.99590  0.06000  0.89640  Biso   1.000  O
  O168     1.0000 0.99510  0.10630  0.94550  Biso   1.000  O
  S110     1.0000 0.01310  0.90110  0.69260  Biso   1.000  S
  S111     1.0000 0.91530  0.95580  0.64926  Biso   1.000  S
  S112     1.0000 0.84880  0.90350  0.73100  Biso   1.000  S
  S113     1.0000 0.04800  0.07160  0.64770  Biso   1.000  S
  S114     1.0000 0.94190  0.05530  0.71120  Biso   1.000  S
  Zr19     1.0000 0.99820  0.00169  0.92654  Biso   1.000  Zr
  O169     1.0000 0.96990  0.03200  0.97050  Biso   1.000  O
  Hg19     1.0000 0.88919  0.15763  0.61624  Biso   1.000  Hg
  Cl37     1.0000 0.93980  0.19730  0.64930  Biso   1.000  Cl
  Cl38     1.0000 0.84350  0.11870  0.65080  Biso   1.000  Cl
  C809     1.0000 0.81100  0.89300  0.77000  Biso   1.000  C
  H923     1.0000 0.79220  0.91490  0.77090  Biso   1.000  H
  H924     1.0000 0.82440  0.88980  0.79530  Biso   1.000  H
  H925     1.0000 0.79720  0.86830  0.76290  Biso   1.000  H
  C810     1.0000 0.99000  0.12530  0.87730  Biso   1.000  C
  C811     1.0000 0.99760  0.11610  0.83690  Biso   1.000  C
  H926     1.0000 0.00480  0.08990  0.82910  Biso   1.000  H
  C812     1.0000 0.99430  0.14550  0.80990  Biso   1.000  C
  C813     1.0000 0.98350  0.18430  0.82260  Biso   1.000  C
  C814     1.0000 0.97620  0.19230  0.86240  Biso   1.000  C
  H927     1.0000 0.96900  0.21850  0.87020  Biso   1.000  H
  C815     1.0000 0.97940  0.16270  0.89100  Biso   1.000  C
  H928     1.0000 0.97450  0.16780  0.91840  Biso   1.000  H
  C816     1.0000 0.98020  0.21470  0.79390  Biso   1.000  C
  C817     1.0000 0.97870  0.23720  0.76590  Biso   1.000  C
  O170     1.0000 0.00010  0.14350  0.77000  Biso   1.000  O
  H929     1.0000 0.03530  0.09580  0.76850  Biso   1.000  H
  H930     1.0000 0.98850  0.08550  0.76730  Biso   1.000  H
  O171     1.0000 0.95570  0.04090  0.96230  Biso   1.000  O
  H931     1.0000 0.93750  0.05810  0.94620  Biso   1.000  H
  C818     1.0000 0.99720  0.59180  0.59470  Biso   1.000  C
  C819     1.0000 0.98650  0.62190  0.62550  Biso   1.000  C
  C820     1.0000 0.97290  0.61060  0.66380  Biso   1.000  C
  H932     1.0000 0.96990  0.58330  0.67020  Biso   1.000  H
  C821     1.0000 0.96420  0.63870  0.69130  Biso   1.000  C
  C822     1.0000 0.96930  0.67980  0.68260  Biso   1.000  C
  C823     1.0000 0.98400  0.68950  0.64500  Biso   1.000  C
  H933     1.0000 0.98990  0.71660  0.63950  Biso   1.000  H
  C824     1.0000 0.99050  0.66170  0.61530  Biso   1.000  C
  H934     1.0000 0.99740  0.66960  0.58910  Biso   1.000  H
  C825     1.0000 0.96270  0.70870  0.71190  Biso   1.000  C
  C826     1.0000 0.96070  0.73510  0.73620  Biso   1.000  C
  O172     1.0000 0.94920  0.63230  0.72850  Biso   1.000  O
  C827     1.0000 0.94430  0.59240  0.74270  Biso   1.000  C
  H935     1.0000 0.92360  0.57860  0.72700  Biso   1.000  H
  H936     1.0000 0.96950  0.57750  0.74000  Biso   1.000  H
  C828     1.0000 0.93220  0.59430  0.78520  Biso   1.000  C
  C829     1.0000 0.96310  0.61790  0.80990  Biso   1.000  C
  H937     1.0000 0.96320  0.64580  0.80050  Biso   1.000  H
  H938     1.0000 0.95450  0.61800  0.83800  Biso   1.000  H
  C830     1.0000 0.03610  0.62890  0.76860  Biso   1.000  C
  H939     1.0000 0.03170  0.61630  0.74270  Biso   1.000  H
  H940     1.0000 0.02440  0.65550  0.76860  Biso   1.000  H
  H941     1.0000 0.06480  0.63090  0.77360  Biso   1.000  H
  C831     1.0000 0.92770  0.55120  0.79960  Biso   1.000  C
  H942     1.0000 0.90690  0.53820  0.78330  Biso   1.000  H
  H943     1.0000 0.95300  0.53710  0.79430  Biso   1.000  H
  C832     1.0000 0.96460  0.53530  0.87340  Biso   1.000  C
  H944     1.0000 0.97690  0.51200  0.86100  Biso   1.000  H
  H945     1.0000 0.98160  0.55860  0.86920  Biso   1.000  H
  H946     1.0000 0.96150  0.53060  0.90190  Biso   1.000  H
  C833     1.0000 0.89370  0.61760  0.79260  Biso   1.000  C
  H947     1.0000 0.88920  0.61910  0.82160  Biso   1.000  H
  H948     1.0000 0.89740  0.64510  0.78270  Biso   1.000  H
  C834     1.0000 0.84500  0.63000  0.72580  Biso   1.000  C
  H949     1.0000 0.82140  0.62230  0.70980  Biso   1.000  H
  H950     1.0000 0.86860  0.62790  0.70950  Biso   1.000  H
  H951     1.0000 0.84130  0.65730  0.73500  Biso   1.000  H
  C835     1.0000 0.99260  0.40440  0.59000  Biso   1.000  C
  C836     1.0000 0.98280  0.37300  0.62050  Biso   1.000  C
  C837     1.0000 0.98620  0.38370  0.66130  Biso   1.000  C
  H952     1.0000 0.99290  0.41030  0.66820  Biso   1.000  H
  C838     1.0000 0.98020  0.35650  0.69010  Biso   1.000  C
  C839     1.0000 0.96460  0.31840  0.68020  Biso   1.000  C
  C840     1.0000 0.96020  0.30880  0.64020  Biso   1.000  C
  H953     1.0000 0.94930  0.28370  0.63330  Biso   1.000  H
  C841     1.0000 0.97120  0.33470  0.60980  Biso   1.000  C
  H954     1.0000 0.97090  0.32650  0.58280  Biso   1.000  H
  C842     1.0000 0.95750  0.28950  0.70960  Biso   1.000  C
  C843     1.0000 0.95540  0.26410  0.73520  Biso   1.000  C
  O173     1.0000 0.98370  0.36410  0.72980  Biso   1.000  O
  C844     1.0000 0.00920  0.39570  0.74200  Biso   1.000  C
  H955     1.0000 0.03620  0.39210  0.73100  Biso   1.000  H
  H956     1.0000 0.99860  0.42160  0.73300  Biso   1.000  H
  C845     1.0000 0.00990  0.39340  0.78910  Biso   1.000  C
  C846     1.0000 0.02670  0.35720  0.80170  Biso   1.000  C
  H957     1.0000 0.02600  0.35670  0.83110  Biso   1.000  H
  H958     1.0000 0.00920  0.33550  0.79230  Biso   1.000  H
  S115     1.0000 0.07500  0.34590  0.78680  Biso   1.000  S
  C847     1.0000 0.07270  0.29820  0.81410  Biso   1.000  C
  H959     1.0000 0.09790  0.28400  0.81090  Biso   1.000  H
  H960     1.0000 0.05100  0.28200  0.80340  Biso   1.000  H
  H961     1.0000 0.06790  0.30340  0.84230  Biso   1.000  H
  C848     1.0000 0.03760  0.42480  0.80070  Biso   1.000  C
  H962     1.0000 0.06300  0.42050  0.78650  Biso   1.000  H
  H963     1.0000 0.02670  0.45060  0.79170  Biso   1.000  H
  C849     1.0000 0.06930  0.47830  0.86170  Biso   1.000  C
  H964     1.0000 0.07530  0.48110  0.89010  Biso   1.000  H
  H965     1.0000 0.05010  0.49870  0.85380  Biso   1.000  H
  H966     1.0000 0.09380  0.48150  0.84630  Biso   1.000  H
  C850     1.0000 0.96770  0.39950  0.80430  Biso   1.000  C
  H967     1.0000 0.95160  0.37640  0.79560  Biso   1.000  H
  H968     1.0000 0.96850  0.39910  0.83370  Biso   1.000  H
  C851     1.0000 0.91440  0.42650  0.74530  Biso   1.000  C
  H969     1.0000 0.92020  0.39830  0.74120  Biso   1.000  H
  H970     1.0000 0.88580  0.43000  0.74970  Biso   1.000  H
  H971     1.0000 0.92250  0.44160  0.72170  Biso   1.000  H
  O174     1.0000 0.99760  0.55450  0.60780  Biso   1.000  O
  O175     1.0000 0.00100  0.60340  0.55990  Biso   1.000  O
  O176     1.0000 0.99590  0.44000  0.60360  Biso   1.000  O
  O177     1.0000 0.99510  0.39370  0.55450  Biso   1.000  O
  S116     1.0000 0.01310  0.59890  0.80740  Biso   1.000  S
  S117     1.0000 0.91530  0.54420  0.85074  Biso   1.000  S
  S118     1.0000 0.84880  0.59650  0.76900  Biso   1.000  S
  S119     1.0000 0.04800  0.42840  0.85230  Biso   1.000  S
  S120     1.0000 0.94190  0.44470  0.78880  Biso   1.000  S
  Zr20     1.0000 0.99820  0.49831  0.57346  Biso   1.000  Zr
  O178     1.0000 0.96990  0.46800  0.52950  Biso   1.000  O
  Hg20     1.0000 0.88919  0.34237  0.88376  Biso   1.000  Hg
  Cl39     1.0000 0.93980  0.30270  0.85070  Biso   1.000  Cl
  Cl40     1.0000 0.84350  0.38130  0.84920  Biso   1.000  Cl
  C852     1.0000 0.81100  0.60700  0.73000  Biso   1.000  C
  H972     1.0000 0.79220  0.58510  0.72910  Biso   1.000  H
  H973     1.0000 0.82440  0.61020  0.70470  Biso   1.000  H
  H974     1.0000 0.79720  0.63170  0.73710  Biso   1.000  H
  C853     1.0000 0.99000  0.37470  0.62270  Biso   1.000  C
  C854     1.0000 0.99760  0.38390  0.66310  Biso   1.000  C
  H975     1.0000 0.00480  0.41010  0.67090  Biso   1.000  H
  C855     1.0000 0.99430  0.35450  0.69010  Biso   1.000  C
  C856     1.0000 0.98350  0.31570  0.67740  Biso   1.000  C
  C857     1.0000 0.97620  0.30770  0.63760  Biso   1.000  C
  H976     1.0000 0.96900  0.28150  0.62980  Biso   1.000  H
  C858     1.0000 0.97940  0.33730  0.60900  Biso   1.000  C
  H977     1.0000 0.97450  0.33220  0.58160  Biso   1.000  H
  C859     1.0000 0.98020  0.28530  0.70610  Biso   1.000  C
  C860     1.0000 0.97870  0.26280  0.73410  Biso   1.000  C
  O179     1.0000 0.00010  0.35650  0.73000  Biso   1.000  O
  H978     1.0000 0.03530  0.40420  0.73150  Biso   1.000  H
  H979     1.0000 0.98850  0.41450  0.73270  Biso   1.000  H
  O180     1.0000 0.95570  0.45910  0.53770  Biso   1.000  O
  H980     1.0000 0.93750  0.44190  0.55380  Biso   1.000  H
  C861     1.0000 0.90530  0.50280  0.59180  Biso   1.000  C
  C862     1.0000 0.87450  0.51350  0.62190  Biso   1.000  C
  C863     1.0000 0.83620  0.52710  0.61060  Biso   1.000  C
  H981     1.0000 0.82980  0.53010  0.58330  Biso   1.000  H
  C864     1.0000 0.80870  0.53580  0.63870  Biso   1.000  C
  C865     1.0000 0.81740  0.53070  0.67980  Biso   1.000  C
  C866     1.0000 0.85500  0.51600  0.68950  Biso   1.000  C
  H982     1.0000 0.86050  0.51010  0.71660  Biso   1.000  H
  C867     1.0000 0.88470  0.50950  0.66170  Biso   1.000  C
  H983     1.0000 0.91090  0.50260  0.66960  Biso   1.000  H
  C868     1.0000 0.78810  0.53730  0.70870  Biso   1.000  C
  C869     1.0000 0.76380  0.53930  0.73510  Biso   1.000  C
  O181     1.0000 0.77150  0.55080  0.63230  Biso   1.000  O
  C870     1.0000 0.75730  0.55570  0.59240  Biso   1.000  C
  H984     1.0000 0.77300  0.57640  0.57860  Biso   1.000  H
  H985     1.0000 0.76000  0.53050  0.57750  Biso   1.000  H
  C871     1.0000 0.71480  0.56780  0.59430  Biso   1.000  C
  C872     1.0000 0.69010  0.53690  0.61790  Biso   1.000  C
  H986     1.0000 0.69950  0.53680  0.64580  Biso   1.000  H
  H987     1.0000 0.66200  0.54550  0.61800  Biso   1.000  H
  C873     1.0000 0.73140  0.46390  0.62890  Biso   1.000  C
  H988     1.0000 0.75730  0.46830  0.61630  Biso   1.000  H
  H989     1.0000 0.73140  0.47560  0.65550  Biso   1.000  H
  H990     1.0000 0.72640  0.43520  0.63090  Biso   1.000  H
  C874     1.0000 0.70040  0.57230  0.55120  Biso   1.000  C
  H991     1.0000 0.71670  0.59310  0.53820  Biso   1.000  H
  H992     1.0000 0.70570  0.54700  0.53710  Biso   1.000  H
  C875     1.0000 0.62660  0.53540  0.53530  Biso   1.000  C
  H993     1.0000 0.63900  0.52310  0.51200  Biso   1.000  H
  H994     1.0000 0.63080  0.51840  0.55860  Biso   1.000  H
  H995     1.0000 0.59810  0.53850  0.53060  Biso   1.000  H
  C876     1.0000 0.70740  0.60630  0.61760  Biso   1.000  C
  H996     1.0000 0.67840  0.61080  0.61910  Biso   1.000  H
  H997     1.0000 0.71730  0.60260  0.64510  Biso   1.000  H
  C877     1.0000 0.77420  0.65500  0.63000  Biso   1.000  C
  H998     1.0000 0.79020  0.67860  0.62230  Biso   1.000  H
  H999     1.0000 0.79050  0.63140  0.62790  Biso   1.000  H
  H1000    1.0000 0.76500  0.65870  0.65730  Biso   1.000  H
  C878     1.0000 0.91000  0.50740  0.40440  Biso   1.000  C
  C879     1.0000 0.87950  0.51720  0.37300  Biso   1.000  C
  C880     1.0000 0.83870  0.51380  0.38370  Biso   1.000  C
  H1001    1.0000 0.83180  0.50710  0.41030  Biso   1.000  H
  C881     1.0000 0.80990  0.51980  0.35650  Biso   1.000  C
  C882     1.0000 0.81980  0.53540  0.31840  Biso   1.000  C
  C883     1.0000 0.85980  0.53980  0.30880  Biso   1.000  C
  H1002    1.0000 0.86670  0.55070  0.28370  Biso   1.000  H
  C884     1.0000 0.89020  0.52880  0.33470  Biso   1.000  C
  H1003    1.0000 0.91720  0.52910  0.32650  Biso   1.000  H
  C885     1.0000 0.79040  0.54250  0.28950  Biso   1.000  C
  C886     1.0000 0.76480  0.54460  0.26410  Biso   1.000  C
  O182     1.0000 0.77020  0.51630  0.36410  Biso   1.000  O
  C887     1.0000 0.75800  0.49080  0.39570  Biso   1.000  C
  H1004    1.0000 0.76900  0.46380  0.39210  Biso   1.000  H
  H1005    1.0000 0.76700  0.50140  0.42160  Biso   1.000  H
  C888     1.0000 0.71090  0.49010  0.39340  Biso   1.000  C
  C889     1.0000 0.69830  0.47330  0.35720  Biso   1.000  C
  H1006    1.0000 0.66890  0.47400  0.35670  Biso   1.000  H
  H1007    1.0000 0.70770  0.49080  0.33550  Biso   1.000  H
  S121     1.0000 0.71320  0.42500  0.34590  Biso   1.000  S
  C890     1.0000 0.68590  0.42730  0.29820  Biso   1.000  C
  H1008    1.0000 0.68910  0.40210  0.28400  Biso   1.000  H
  H1009    1.0000 0.69660  0.44900  0.28200  Biso   1.000  H
  H1010    1.0000 0.65770  0.43210  0.30340  Biso   1.000  H
  C891     1.0000 0.69930  0.46240  0.42480  Biso   1.000  C
  H1011    1.0000 0.71350  0.43700  0.42050  Biso   1.000  H
  H1012    1.0000 0.70830  0.47330  0.45060  Biso   1.000  H
  C892     1.0000 0.63830  0.43070  0.47830  Biso   1.000  C
  H1013    1.0000 0.60990  0.42470  0.48110  Biso   1.000  H
  H1014    1.0000 0.64620  0.44990  0.49870  Biso   1.000  H
  H1015    1.0000 0.65370  0.40620  0.48150  Biso   1.000  H
  C893     1.0000 0.69570  0.53230  0.39950  Biso   1.000  C
  H1016    1.0000 0.70440  0.54840  0.37640  Biso   1.000  H
  H1017    1.0000 0.66630  0.53150  0.39910  Biso   1.000  H
  C894     1.0000 0.75470  0.58560  0.42650  Biso   1.000  C
  H1018    1.0000 0.75880  0.57980  0.39830  Biso   1.000  H
  H1019    1.0000 0.75030  0.61420  0.43000  Biso   1.000  H
  H1020    1.0000 0.77830  0.57750  0.44160  Biso   1.000  H
  O183     1.0000 0.89220  0.50240  0.55450  Biso   1.000  O
  O184     1.0000 0.94010  0.49900  0.60340  Biso   1.000  O
  O185     1.0000 0.89640  0.50410  0.44000  Biso   1.000  O
  O186     1.0000 0.94550  0.50490  0.39370  Biso   1.000  O
  S122     1.0000 0.69260  0.48690  0.59890  Biso   1.000  S
  S123     1.0000 0.64926  0.58470  0.54420  Biso   1.000  S
  S124     1.0000 0.73100  0.65120  0.59650  Biso   1.000  S
  S125     1.0000 0.64770  0.45200  0.42840  Biso   1.000  S
  S126     1.0000 0.71120  0.55810  0.44470  Biso   1.000  S
  Zr21     1.0000 0.92654  0.50180  0.49831  Biso   1.000  Zr
  O187     1.0000 0.97050  0.53010  0.46800  Biso   1.000  O
  Hg21     1.0000 0.61624  0.61081  0.34237  Biso   1.000  Hg
  Cl41     1.0000 0.64930  0.56020  0.30270  Biso   1.000  Cl
  Cl42     1.0000 0.65080  0.65650  0.38130  Biso   1.000  Cl
  C895     1.0000 0.77000  0.68900  0.60700  Biso   1.000  C
  H1021    1.0000 0.77090  0.70780  0.58510  Biso   1.000  H
  H1022    1.0000 0.79530  0.67560  0.61020  Biso   1.000  H
  H1023    1.0000 0.76290  0.70280  0.63170  Biso   1.000  H
  C896     1.0000 0.87730  0.51000  0.37470  Biso   1.000  C
  C897     1.0000 0.83690  0.50240  0.38390  Biso   1.000  C
  H1024    1.0000 0.82910  0.49520  0.41010  Biso   1.000  H
  C898     1.0000 0.80990  0.50570  0.35450  Biso   1.000  C
  C899     1.0000 0.82260  0.51650  0.31570  Biso   1.000  C
  C900     1.0000 0.86240  0.52380  0.30770  Biso   1.000  C
  H1025    1.0000 0.87020  0.53100  0.28150  Biso   1.000  H
  C901     1.0000 0.89100  0.52060  0.33730  Biso   1.000  C
  H1026    1.0000 0.91840  0.52550  0.33220  Biso   1.000  H
  C902     1.0000 0.79390  0.51980  0.28530  Biso   1.000  C
  C903     1.0000 0.76590  0.52130  0.26280  Biso   1.000  C
  O188     1.0000 0.77000  0.49990  0.35650  Biso   1.000  O
  H1027    1.0000 0.76850  0.46470  0.40420  Biso   1.000  H
  H1028    1.0000 0.76730  0.51150  0.41450  Biso   1.000  H
  O189     1.0000 0.96230  0.54430  0.45910  Biso   1.000  O
  H1029    1.0000 0.94620  0.56250  0.44190  Biso   1.000  H
  C904     1.0000 0.59470  0.50280  0.90820  Biso   1.000  C
  C905     1.0000 0.62550  0.51350  0.87810  Biso   1.000  C
  C906     1.0000 0.66380  0.52710  0.88940  Biso   1.000  C
  H1030    1.0000 0.67020  0.53010  0.91670  Biso   1.000  H
  C907     1.0000 0.69130  0.53580  0.86130  Biso   1.000  C
  C908     1.0000 0.68260  0.53070  0.82020  Biso   1.000  C
  C909     1.0000 0.64500  0.51600  0.81050  Biso   1.000  C
  H1031    1.0000 0.63950  0.51010  0.78340  Biso   1.000  H
  C910     1.0000 0.61530  0.50950  0.83830  Biso   1.000  C
  H1032    1.0000 0.58910  0.50260  0.83040  Biso   1.000  H
  C911     1.0000 0.71190  0.53730  0.79130  Biso   1.000  C
  C912     1.0000 0.73620  0.53930  0.76490  Biso   1.000  C
  O190     1.0000 0.72850  0.55080  0.86770  Biso   1.000  O
  C913     1.0000 0.74270  0.55570  0.90760  Biso   1.000  C
  H1033    1.0000 0.72700  0.57640  0.92140  Biso   1.000  H
  H1034    1.0000 0.74000  0.53050  0.92250  Biso   1.000  H
  C914     1.0000 0.78520  0.56780  0.90570  Biso   1.000  C
  C915     1.0000 0.80990  0.53690  0.88210  Biso   1.000  C
  H1035    1.0000 0.80050  0.53680  0.85420  Biso   1.000  H
  H1036    1.0000 0.83800  0.54550  0.88200  Biso   1.000  H
  C916     1.0000 0.76860  0.46390  0.87110  Biso   1.000  C
  H1037    1.0000 0.74270  0.46830  0.88370  Biso   1.000  H
  H1038    1.0000 0.76860  0.47560  0.84450  Biso   1.000  H
  H1039    1.0000 0.77360  0.43520  0.86910  Biso   1.000  H
  C917     1.0000 0.79960  0.57230  0.94880  Biso   1.000  C
  H1040    1.0000 0.78330  0.59310  0.96180  Biso   1.000  H
  H1041    1.0000 0.79430  0.54700  0.96290  Biso   1.000  H
  C918     1.0000 0.87340  0.53540  0.96470  Biso   1.000  C
  H1042    1.0000 0.86100  0.52310  0.98800  Biso   1.000  H
  H1043    1.0000 0.86920  0.51840  0.94140  Biso   1.000  H
  H1044    1.0000 0.90190  0.53850  0.96940  Biso   1.000  H
  C919     1.0000 0.79260  0.60630  0.88240  Biso   1.000  C
  H1045    1.0000 0.82160  0.61080  0.88090  Biso   1.000  H
  H1046    1.0000 0.78270  0.60260  0.85490  Biso   1.000  H
  C920     1.0000 0.72580  0.65500  0.87000  Biso   1.000  C
  H1047    1.0000 0.70980  0.67860  0.87770  Biso   1.000  H
  H1048    1.0000 0.70950  0.63140  0.87210  Biso   1.000  H
  H1049    1.0000 0.73500  0.65870  0.84270  Biso   1.000  H
  C921     1.0000 0.59000  0.50740  0.09560  Biso   1.000  C
  C922     1.0000 0.62050  0.51720  0.12700  Biso   1.000  C
  C923     1.0000 0.66130  0.51380  0.11630  Biso   1.000  C
  H1050    1.0000 0.66820  0.50710  0.08970  Biso   1.000  H
  C924     1.0000 0.69010  0.51980  0.14350  Biso   1.000  C
  C925     1.0000 0.68020  0.53540  0.18160  Biso   1.000  C
  C926     1.0000 0.64020  0.53980  0.19120  Biso   1.000  C
  H1051    1.0000 0.63330  0.55070  0.21630  Biso   1.000  H
  C927     1.0000 0.60980  0.52880  0.16530  Biso   1.000  C
  H1052    1.0000 0.58280  0.52910  0.17350  Biso   1.000  H
  C928     1.0000 0.70960  0.54250  0.21050  Biso   1.000  C
  C929     1.0000 0.73520  0.54460  0.23590  Biso   1.000  C
  O191     1.0000 0.72980  0.51630  0.13590  Biso   1.000  O
  C930     1.0000 0.74200  0.49080  0.10430  Biso   1.000  C
  H1053    1.0000 0.73100  0.46380  0.10790  Biso   1.000  H
  H1054    1.0000 0.73300  0.50140  0.07840  Biso   1.000  H
  C931     1.0000 0.78910  0.49010  0.10660  Biso   1.000  C
  C932     1.0000 0.80170  0.47330  0.14280  Biso   1.000  C
  H1055    1.0000 0.83110  0.47400  0.14330  Biso   1.000  H
  H1056    1.0000 0.79230  0.49080  0.16450  Biso   1.000  H
  S127     1.0000 0.78680  0.42500  0.15410  Biso   1.000  S
  C933     1.0000 0.81410  0.42730  0.20180  Biso   1.000  C
  H1057    1.0000 0.81090  0.40210  0.21600  Biso   1.000  H
  H1058    1.0000 0.80340  0.44900  0.21800  Biso   1.000  H
  H1059    1.0000 0.84230  0.43210  0.19660  Biso   1.000  H
  C934     1.0000 0.80070  0.46240  0.07520  Biso   1.000  C
  H1060    1.0000 0.78650  0.43700  0.07950  Biso   1.000  H
  H1061    1.0000 0.79170  0.47330  0.04940  Biso   1.000  H
  C935     1.0000 0.86170  0.43070  0.02170  Biso   1.000  C
  H1062    1.0000 0.89010  0.42470  0.01890  Biso   1.000  H
  H1063    1.0000 0.85380  0.44990  0.00130  Biso   1.000  H
  H1064    1.0000 0.84630  0.40620  0.01850  Biso   1.000  H
  C936     1.0000 0.80430  0.53230  0.10050  Biso   1.000  C
  H1065    1.0000 0.79560  0.54840  0.12360  Biso   1.000  H
  H1066    1.0000 0.83370  0.53150  0.10090  Biso   1.000  H
  C937     1.0000 0.74530  0.58560  0.07350  Biso   1.000  C
  H1067    1.0000 0.74120  0.57980  0.10170  Biso   1.000  H
  H1068    1.0000 0.74970  0.61420  0.07000  Biso   1.000  H
  H1069    1.0000 0.72170  0.57750  0.05840  Biso   1.000  H
  O192     1.0000 0.60780  0.50240  0.94550  Biso   1.000  O
  O193     1.0000 0.55990  0.49900  0.89660  Biso   1.000  O
  O194     1.0000 0.60360  0.50410  0.06000  Biso   1.000  O
  O195     1.0000 0.55450  0.50490  0.10630  Biso   1.000  O
  S128     1.0000 0.80740  0.48690  0.90110  Biso   1.000  S
  S129     1.0000 0.85074  0.58470  0.95580  Biso   1.000  S
  S130     1.0000 0.76900  0.65120  0.90350  Biso   1.000  S
  S131     1.0000 0.85230  0.45200  0.07160  Biso   1.000  S
  S132     1.0000 0.78880  0.55810  0.05530  Biso   1.000  S
  Zr22     1.0000 0.57346  0.50180  0.00169  Biso   1.000  Zr
  O196     1.0000 0.52950  0.53010  0.03200  Biso   1.000  O
  Hg22     1.0000 0.88376  0.61081  0.15763  Biso   1.000  Hg
  Cl43     1.0000 0.85070  0.56020  0.19730  Biso   1.000  Cl
  Cl44     1.0000 0.84920  0.65650  0.11870  Biso   1.000  Cl
  C938     1.0000 0.73000  0.68900  0.89300  Biso   1.000  C
  H1070    1.0000 0.72910  0.70780  0.91490  Biso   1.000  H
  H1071    1.0000 0.70470  0.67560  0.88980  Biso   1.000  H
  H1072    1.0000 0.73710  0.70280  0.86830  Biso   1.000  H
  C939     1.0000 0.62270  0.51000  0.12530  Biso   1.000  C
  C940     1.0000 0.66310  0.50240  0.11610  Biso   1.000  C
  H1073    1.0000 0.67090  0.49520  0.08990  Biso   1.000  H
  C941     1.0000 0.69010  0.50570  0.14550  Biso   1.000  C
  C942     1.0000 0.67740  0.51650  0.18430  Biso   1.000  C
  C943     1.0000 0.63760  0.52380  0.19230  Biso   1.000  C
  H1074    1.0000 0.62980  0.53100  0.21850  Biso   1.000  H
  C944     1.0000 0.60900  0.52060  0.16270  Biso   1.000  C
  H1075    1.0000 0.58160  0.52550  0.16780  Biso   1.000  H
  C945     1.0000 0.70610  0.51980  0.21470  Biso   1.000  C
  C946     1.0000 0.73410  0.52130  0.23720  Biso   1.000  C
  O197     1.0000 0.73000  0.49990  0.14350  Biso   1.000  O
  H1076    1.0000 0.73150  0.46470  0.09580  Biso   1.000  H
  H1077    1.0000 0.73270  0.51150  0.08550  Biso   1.000  H
  O198     1.0000 0.53770  0.54430  0.04090  Biso   1.000  O
  H1078    1.0000 0.55380  0.56250  0.05810  Biso   1.000  H
  C947     1.0000 0.90530  0.99720  0.90820  Biso   1.000  C
  C948     1.0000 0.87450  0.98650  0.87810  Biso   1.000  C
  C949     1.0000 0.83620  0.97290  0.88940  Biso   1.000  C
  H1079    1.0000 0.82980  0.96990  0.91670  Biso   1.000  H
  C950     1.0000 0.80870  0.96420  0.86130  Biso   1.000  C
  C951     1.0000 0.81740  0.96930  0.82020  Biso   1.000  C
  C952     1.0000 0.85500  0.98400  0.81050  Biso   1.000  C
  H1080    1.0000 0.86050  0.98990  0.78340  Biso   1.000  H
  C953     1.0000 0.88470  0.99050  0.83830  Biso   1.000  C
  H1081    1.0000 0.91090  0.99740  0.83040  Biso   1.000  H
  C954     1.0000 0.78810  0.96270  0.79130  Biso   1.000  C
  C955     1.0000 0.76380  0.96070  0.76490  Biso   1.000  C
  O199     1.0000 0.77150  0.94920  0.86770  Biso   1.000  O
  C956     1.0000 0.75730  0.94430  0.90760  Biso   1.000  C
  H1082    1.0000 0.77300  0.92360  0.92140  Biso   1.000  H
  H1083    1.0000 0.76000  0.96950  0.92250  Biso   1.000  H
  C957     1.0000 0.71480  0.93220  0.90570  Biso   1.000  C
  C958     1.0000 0.69010  0.96310  0.88210  Biso   1.000  C
  H1084    1.0000 0.69950  0.96320  0.85420  Biso   1.000  H
  H1085    1.0000 0.66200  0.95450  0.88200  Biso   1.000  H
  C959     1.0000 0.73140  0.03610  0.87110  Biso   1.000  C
  H1086    1.0000 0.75730  0.03170  0.88370  Biso   1.000  H
  H1087    1.0000 0.73140  0.02440  0.84450  Biso   1.000  H
  H1088    1.0000 0.72640  0.06480  0.86910  Biso   1.000  H
  C960     1.0000 0.70040  0.92770  0.94880  Biso   1.000  C
  H1089    1.0000 0.71670  0.90690  0.96180  Biso   1.000  H
  H1090    1.0000 0.70570  0.95300  0.96290  Biso   1.000  H
  C961     1.0000 0.62660  0.96460  0.96470  Biso   1.000  C
  H1091    1.0000 0.63900  0.97690  0.98800  Biso   1.000  H
  H1092    1.0000 0.63080  0.98160  0.94140  Biso   1.000  H
  H1093    1.0000 0.59810  0.96150  0.96940  Biso   1.000  H
  C962     1.0000 0.70740  0.89370  0.88240  Biso   1.000  C
  H1094    1.0000 0.67840  0.88920  0.88090  Biso   1.000  H
  H1095    1.0000 0.71730  0.89740  0.85490  Biso   1.000  H
  C963     1.0000 0.77420  0.84500  0.87000  Biso   1.000  C
  H1096    1.0000 0.79020  0.82140  0.87770  Biso   1.000  H
  H1097    1.0000 0.79050  0.86860  0.87210  Biso   1.000  H
  H1098    1.0000 0.76500  0.84130  0.84270  Biso   1.000  H
  C964     1.0000 0.91000  0.99260  0.09560  Biso   1.000  C
  C965     1.0000 0.87950  0.98280  0.12700  Biso   1.000  C
  C966     1.0000 0.83870  0.98620  0.11630  Biso   1.000  C
  H1099    1.0000 0.83180  0.99290  0.08970  Biso   1.000  H
  C967     1.0000 0.80990  0.98020  0.14350  Biso   1.000  C
  C968     1.0000 0.81980  0.96460  0.18160  Biso   1.000  C
  C969     1.0000 0.85980  0.96020  0.19120  Biso   1.000  C
  H1100    1.0000 0.86670  0.94930  0.21630  Biso   1.000  H
  C970     1.0000 0.89020  0.97120  0.16530  Biso   1.000  C
  H1101    1.0000 0.91720  0.97090  0.17350  Biso   1.000  H
  C971     1.0000 0.79040  0.95750  0.21050  Biso   1.000  C
  C972     1.0000 0.76480  0.95540  0.23590  Biso   1.000  C
  O200     1.0000 0.77020  0.98370  0.13590  Biso   1.000  O
  C973     1.0000 0.75800  0.00920  0.10430  Biso   1.000  C
  H1102    1.0000 0.76900  0.03620  0.10790  Biso   1.000  H
  H1103    1.0000 0.76700  0.99860  0.07840  Biso   1.000  H
  C974     1.0000 0.71090  0.00990  0.10660  Biso   1.000  C
  C975     1.0000 0.69830  0.02670  0.14280  Biso   1.000  C
  H1104    1.0000 0.66890  0.02600  0.14330  Biso   1.000  H
  H1105    1.0000 0.70770  0.00920  0.16450  Biso   1.000  H
  S133     1.0000 0.71320  0.07500  0.15410  Biso   1.000  S
  C976     1.0000 0.68590  0.07270  0.20180  Biso   1.000  C
  H1106    1.0000 0.68910  0.09790  0.21600  Biso   1.000  H
  H1107    1.0000 0.69660  0.05100  0.21800  Biso   1.000  H
  H1108    1.0000 0.65770  0.06790  0.19660  Biso   1.000  H
  C977     1.0000 0.69930  0.03760  0.07520  Biso   1.000  C
  H1109    1.0000 0.71350  0.06300  0.07950  Biso   1.000  H
  H1110    1.0000 0.70830  0.02670  0.04940  Biso   1.000  H
  C978     1.0000 0.63830  0.06930  0.02170  Biso   1.000  C
  H1111    1.0000 0.60990  0.07530  0.01890  Biso   1.000  H
  H1112    1.0000 0.64620  0.05010  0.00130  Biso   1.000  H
  H1113    1.0000 0.65370  0.09380  0.01850  Biso   1.000  H
  C979     1.0000 0.69570  0.96770  0.10050  Biso   1.000  C
  H1114    1.0000 0.70440  0.95160  0.12360  Biso   1.000  H
  H1115    1.0000 0.66630  0.96850  0.10090  Biso   1.000  H
  C980     1.0000 0.75470  0.91440  0.07350  Biso   1.000  C
  H1116    1.0000 0.75880  0.92020  0.10170  Biso   1.000  H
  H1117    1.0000 0.75030  0.88580  0.07000  Biso   1.000  H
  H1118    1.0000 0.77830  0.92250  0.05840  Biso   1.000  H
  O201     1.0000 0.89220  0.99760  0.94550  Biso   1.000  O
  O202     1.0000 0.94010  0.00100  0.89660  Biso   1.000  O
  O203     1.0000 0.89640  0.99590  0.06000  Biso   1.000  O
  O204     1.0000 0.94550  0.99510  0.10630  Biso   1.000  O
  S134     1.0000 0.69260  0.01310  0.90110  Biso   1.000  S
  S135     1.0000 0.64926  0.91530  0.95580  Biso   1.000  S
  S136     1.0000 0.73100  0.84880  0.90350  Biso   1.000  S
  S137     1.0000 0.64770  0.04800  0.07160  Biso   1.000  S
  S138     1.0000 0.71120  0.94190  0.05530  Biso   1.000  S
  Zr23     1.0000 0.92654  0.99820  0.00169  Biso   1.000  Zr
  O205     1.0000 0.97050  0.96990  0.03200  Biso   1.000  O
  Hg23     1.0000 0.61624  0.88919  0.15763  Biso   1.000  Hg
  Cl45     1.0000 0.64930  0.93980  0.19730  Biso   1.000  Cl
  Cl46     1.0000 0.65080  0.84350  0.11870  Biso   1.000  Cl
  C981     1.0000 0.77000  0.81100  0.89300  Biso   1.000  C
  H1119    1.0000 0.77090  0.79220  0.91490  Biso   1.000  H
  H1120    1.0000 0.79530  0.82440  0.88980  Biso   1.000  H
  H1121    1.0000 0.76290  0.79720  0.86830  Biso   1.000  H
  C982     1.0000 0.87730  0.99000  0.12530  Biso   1.000  C
  C983     1.0000 0.83690  0.99760  0.11610  Biso   1.000  C
  H1122    1.0000 0.82910  0.00480  0.08990  Biso   1.000  H
  C984     1.0000 0.80990  0.99430  0.14550  Biso   1.000  C
  C985     1.0000 0.82260  0.98350  0.18430  Biso   1.000  C
  C986     1.0000 0.86240  0.97620  0.19230  Biso   1.000  C
  H1123    1.0000 0.87020  0.96900  0.21850  Biso   1.000  H
  C987     1.0000 0.89100  0.97940  0.16270  Biso   1.000  C
  H1124    1.0000 0.91840  0.97450  0.16780  Biso   1.000  H
  C988     1.0000 0.79390  0.98020  0.21470  Biso   1.000  C
  C989     1.0000 0.76590  0.97870  0.23720  Biso   1.000  C
  O206     1.0000 0.77000  0.00010  0.14350  Biso   1.000  O
  H1125    1.0000 0.76850  0.03530  0.09580  Biso   1.000  H
  H1126    1.0000 0.76730  0.98850  0.08550  Biso   1.000  H
  O207     1.0000 0.96230  0.95570  0.04090  Biso   1.000  O
  H1127    1.0000 0.94620  0.93750  0.05810  Biso   1.000  H
  C990     1.0000 0.59470  0.99720  0.59180  Biso   1.000  C
  C991     1.0000 0.62550  0.98650  0.62190  Biso   1.000  C
  C992     1.0000 0.66380  0.97290  0.61060  Biso   1.000  C
  H1128    1.0000 0.67020  0.96990  0.58330  Biso   1.000  H
  C993     1.0000 0.69130  0.96420  0.63870  Biso   1.000  C
  C994     1.0000 0.68260  0.96930  0.67980  Biso   1.000  C
  C995     1.0000 0.64500  0.98400  0.68950  Biso   1.000  C
  H1129    1.0000 0.63950  0.98990  0.71660  Biso   1.000  H
  C996     1.0000 0.61530  0.99050  0.66170  Biso   1.000  C
  H1130    1.0000 0.58910  0.99740  0.66960  Biso   1.000  H
  C997     1.0000 0.71190  0.96270  0.70870  Biso   1.000  C
  C998     1.0000 0.73620  0.96070  0.73510  Biso   1.000  C
  O208     1.0000 0.72850  0.94920  0.63230  Biso   1.000  O
  C999     1.0000 0.74270  0.94430  0.59240  Biso   1.000  C
  H1131    1.0000 0.72700  0.92360  0.57860  Biso   1.000  H
  H1132    1.0000 0.74000  0.96950  0.57750  Biso   1.000  H
  C1000    1.0000 0.78520  0.93220  0.59430  Biso   1.000  C
  C1001    1.0000 0.80990  0.96310  0.61790  Biso   1.000  C
  H1133    1.0000 0.80050  0.96320  0.64580  Biso   1.000  H
  H1134    1.0000 0.83800  0.95450  0.61800  Biso   1.000  H
  C1002    1.0000 0.76860  0.03610  0.62890  Biso   1.000  C
  H1135    1.0000 0.74270  0.03170  0.61630  Biso   1.000  H
  H1136    1.0000 0.76860  0.02440  0.65550  Biso   1.000  H
  H1137    1.0000 0.77360  0.06480  0.63090  Biso   1.000  H
  C1003    1.0000 0.79960  0.92770  0.55120  Biso   1.000  C
  H1138    1.0000 0.78330  0.90690  0.53820  Biso   1.000  H
  H1139    1.0000 0.79430  0.95300  0.53710  Biso   1.000  H
  C1004    1.0000 0.87340  0.96460  0.53530  Biso   1.000  C
  H1140    1.0000 0.86100  0.97690  0.51200  Biso   1.000  H
  H1141    1.0000 0.86920  0.98160  0.55860  Biso   1.000  H
  H1142    1.0000 0.90190  0.96150  0.53060  Biso   1.000  H
  C1005    1.0000 0.79260  0.89370  0.61760  Biso   1.000  C
  H1143    1.0000 0.82160  0.88920  0.61910  Biso   1.000  H
  H1144    1.0000 0.78270  0.89740  0.64510  Biso   1.000  H
  C1006    1.0000 0.72580  0.84500  0.63000  Biso   1.000  C
  H1145    1.0000 0.70980  0.82140  0.62230  Biso   1.000  H
  H1146    1.0000 0.70950  0.86860  0.62790  Biso   1.000  H
  H1147    1.0000 0.73500  0.84130  0.65730  Biso   1.000  H
  C1007    1.0000 0.59000  0.99260  0.40440  Biso   1.000  C
  C1008    1.0000 0.62050  0.98280  0.37300  Biso   1.000  C
  C1009    1.0000 0.66130  0.98620  0.38370  Biso   1.000  C
  H1148    1.0000 0.66820  0.99290  0.41030  Biso   1.000  H
  C1010    1.0000 0.69010  0.98020  0.35650  Biso   1.000  C
  C1011    1.0000 0.68020  0.96460  0.31840  Biso   1.000  C
  C1012    1.0000 0.64020  0.96020  0.30880  Biso   1.000  C
  H1149    1.0000 0.63330  0.94930  0.28370  Biso   1.000  H
  C1013    1.0000 0.60980  0.97120  0.33470  Biso   1.000  C
  H1150    1.0000 0.58280  0.97090  0.32650  Biso   1.000  H
  C1014    1.0000 0.70960  0.95750  0.28950  Biso   1.000  C
  C1015    1.0000 0.73520  0.95540  0.26410  Biso   1.000  C
  O209     1.0000 0.72980  0.98370  0.36410  Biso   1.000  O
  C1016    1.0000 0.74200  0.00920  0.39570  Biso   1.000  C
  H1151    1.0000 0.73100  0.03620  0.39210  Biso   1.000  H
  H1152    1.0000 0.73300  0.99860  0.42160  Biso   1.000  H
  C1017    1.0000 0.78910  0.00990  0.39340  Biso   1.000  C
  C1018    1.0000 0.80170  0.02670  0.35720  Biso   1.000  C
  H1153    1.0000 0.83110  0.02600  0.35670  Biso   1.000  H
  H1154    1.0000 0.79230  0.00920  0.33550  Biso   1.000  H
  S139     1.0000 0.78680  0.07500  0.34590  Biso   1.000  S
  C1019    1.0000 0.81410  0.07270  0.29820  Biso   1.000  C
  H1155    1.0000 0.81090  0.09790  0.28400  Biso   1.000  H
  H1156    1.0000 0.80340  0.05100  0.28200  Biso   1.000  H
  H1157    1.0000 0.84230  0.06790  0.30340  Biso   1.000  H
  C1020    1.0000 0.80070  0.03760  0.42480  Biso   1.000  C
  H1158    1.0000 0.78650  0.06300  0.42050  Biso   1.000  H
  H1159    1.0000 0.79170  0.02670  0.45060  Biso   1.000  H
  C1021    1.0000 0.86170  0.06930  0.47830  Biso   1.000  C
  H1160    1.0000 0.89010  0.07530  0.48110  Biso   1.000  H
  H1161    1.0000 0.85380  0.05010  0.49870  Biso   1.000  H
  H1162    1.0000 0.84630  0.09380  0.48150  Biso   1.000  H
  C1022    1.0000 0.80430  0.96770  0.39950  Biso   1.000  C
  H1163    1.0000 0.79560  0.95160  0.37640  Biso   1.000  H
  H1164    1.0000 0.83370  0.96850  0.39910  Biso   1.000  H
  C1023    1.0000 0.74530  0.91440  0.42650  Biso   1.000  C
  H1165    1.0000 0.74120  0.92020  0.39830  Biso   1.000  H
  H1166    1.0000 0.74970  0.88580  0.43000  Biso   1.000  H
  H1167    1.0000 0.72170  0.92250  0.44160  Biso   1.000  H
  O210     1.0000 0.60780  0.99760  0.55450  Biso   1.000  O
  O211     1.0000 0.55990  0.00100  0.60340  Biso   1.000  O
  O212     1.0000 0.60360  0.99590  0.44000  Biso   1.000  O
  O213     1.0000 0.55450  0.99510  0.39370  Biso   1.000  O
  S140     1.0000 0.80740  0.01310  0.59890  Biso   1.000  S
  S141     1.0000 0.85074  0.91530  0.54420  Biso   1.000  S
  S142     1.0000 0.76900  0.84880  0.59650  Biso   1.000  S
  S143     1.0000 0.85230  0.04800  0.42840  Biso   1.000  S
  S144     1.0000 0.78880  0.94190  0.44470  Biso   1.000  S
  Zr24     1.0000 0.57346  0.99820  0.49831  Biso   1.000  Zr
  O214     1.0000 0.52950  0.96990  0.46800  Biso   1.000  O
  Hg24     1.0000 0.88376  0.88919  0.34237  Biso   1.000  Hg
  Cl47     1.0000 0.85070  0.93980  0.30270  Biso   1.000  Cl
  Cl48     1.0000 0.84920  0.84350  0.38130  Biso   1.000  Cl
  C1024    1.0000 0.73000  0.81100  0.60700  Biso   1.000  C
  H1168    1.0000 0.72910  0.79220  0.58510  Biso   1.000  H
  H1169    1.0000 0.70470  0.82440  0.61020  Biso   1.000  H
  H1170    1.0000 0.73710  0.79720  0.63170  Biso   1.000  H
  C1025    1.0000 0.62270  0.99000  0.37470  Biso   1.000  C
  C1026    1.0000 0.66310  0.99760  0.38390  Biso   1.000  C
  H1171    1.0000 0.67090  0.00480  0.41010  Biso   1.000  H
  C1027    1.0000 0.69010  0.99430  0.35450  Biso   1.000  C
  C1028    1.0000 0.67740  0.98350  0.31570  Biso   1.000  C
  C1029    1.0000 0.63760  0.97620  0.30770  Biso   1.000  C
  H1172    1.0000 0.62980  0.96900  0.28150  Biso   1.000  H
  C1030    1.0000 0.60900  0.97940  0.33730  Biso   1.000  C
  H1173    1.0000 0.58160  0.97450  0.33220  Biso   1.000  H
  C1031    1.0000 0.70610  0.98020  0.28530  Biso   1.000  C
  C1032    1.0000 0.73410  0.97870  0.26280  Biso   1.000  C
  O215     1.0000 0.73000  0.00010  0.35650  Biso   1.000  O
  H1174    1.0000 0.73150  0.03530  0.40420  Biso   1.000  H
  H1175    1.0000 0.73270  0.98850  0.41450  Biso   1.000  H
  O216     1.0000 0.53770  0.95570  0.45910  Biso   1.000  O
  H1176    1.0000 0.55380  0.93750  0.44190  Biso   1.000  H
  O217     1.0000 0.45900  0.04100  0.45900  Biso   1.000  O
  H1177    1.0000 0.44190  0.05810  0.44190  Biso   1.000  H
  O218     1.0000 0.46830  0.03170  0.46830  Biso   1.000  O
  O219     1.0000 0.04100  0.45900  0.45900  Biso   1.000  O
  H1178    1.0000 0.05810  0.44190  0.44190  Biso   1.000  H
  O220     1.0000 0.03170  0.46830  0.46830  Biso   1.000  O
  O221     1.0000 0.04100  0.04100  0.04100  Biso   1.000  O
  H1179    1.0000 0.05810  0.05810  0.05810  Biso   1.000  H
  O222     1.0000 0.03170  0.03170  0.03170  Biso   1.000  O
  O223     1.0000 0.45900  0.45900  0.04100  Biso   1.000  O
  H1180    1.0000 0.44190  0.44190  0.05810  Biso   1.000  H
  O224     1.0000 0.46830  0.46830  0.03170  Biso   1.000  O
  O225     1.0000 0.54100  0.95900  0.54100  Biso   1.000  O
  H1181    1.0000 0.55810  0.94190  0.55810  Biso   1.000  H
  O226     1.0000 0.53170  0.96830  0.53170  Biso   1.000  O
  O227     1.0000 0.95900  0.54100  0.54100  Biso   1.000  O
  H1182    1.0000 0.94190  0.55810  0.55810  Biso   1.000  H
  O228     1.0000 0.96830  0.53170  0.53170  Biso   1.000  O
  O229     1.0000 0.95900  0.95900  0.95900  Biso   1.000  O
  H1183    1.0000 0.94190  0.94190  0.94190  Biso   1.000  H
  O230     1.0000 0.96830  0.96830  0.96830  Biso   1.000  O
  O231     1.0000 0.54100  0.54100  0.95900  Biso   1.000  O
  H1184    1.0000 0.55810  0.55810  0.94190  Biso   1.000  H
  O232     1.0000 0.53170  0.53170  0.96830  Biso   1.000  O
