data_image0
_cell_length_a       30.585
_cell_length_b       30.585
_cell_length_c       30.585
_cell_angle_alpha    90
_cell_angle_beta     90
_cell_angle_gamma    90

_symmetry_space_group_name_H-M    "P 1"
_symmetry_int_tables_number       1

loop_
  _symmetry_equiv_pos_as_xyz
  'x, y, z'

loop_
  _atom_site_label
  _atom_site_occupancy
  _atom_site_fract_x
  _atom_site_fract_y
  _atom_site_fract_z
  _atom_site_thermal_displace_type
  _atom_site_B_iso_or_equiv
  _atom_site_type_symbol
  O1       1.0000 0.27236  0.79105  0.04484  Biso   1.000  O
  O2       1.0000 0.22016  0.84271  0.04498  Biso   1.000  O
  O3       1.0000 0.41460  0.83580  0.08130  Biso   1.000  O
  H1       1.0000 0.39260  0.81950  0.15200  Biso   1.000  H
  C1       1.0000 0.25534  0.82592  0.05872  Biso   1.000  C
  C2       1.0000 0.27847  0.85019  0.09450  Biso   1.000  C
  C3       1.0000 0.32060  0.83790  0.10630  Biso   1.000  C
  H2       1.0000 0.33450  0.81370  0.09210  Biso   1.000  H
  C4       1.0000 0.41800  0.83710  0.12210  Biso   1.000  C
  C5       1.0000 0.46310  0.80350  0.18440  Biso   1.000  C
  C6       1.0000 0.46140  0.82420  0.14350  Biso   1.000  C
  O4       1.0000 0.77236  0.29105  0.54484  Biso   1.000  O
  O5       1.0000 0.72016  0.34271  0.54498  Biso   1.000  O
  O6       1.0000 0.91460  0.33580  0.58130  Biso   1.000  O
  H3       1.0000 0.89260  0.31950  0.65200  Biso   1.000  H
  C7       1.0000 0.75534  0.32592  0.55872  Biso   1.000  C
  C8       1.0000 0.77847  0.35019  0.59450  Biso   1.000  C
  C9       1.0000 0.82060  0.33790  0.60630  Biso   1.000  C
  H4       1.0000 0.83450  0.31370  0.59210  Biso   1.000  H
  C10      1.0000 0.91800  0.33710  0.62210  Biso   1.000  C
  C11      1.0000 0.96310  0.30350  0.68440  Biso   1.000  C
  C12      1.0000 0.96140  0.32420  0.64350  Biso   1.000  C
  O7       1.0000 0.72764  0.20895  0.04484  Biso   1.000  O
  O8       1.0000 0.77984  0.15729  0.04498  Biso   1.000  O
  O9       1.0000 0.58540  0.16420  0.08130  Biso   1.000  O
  H5       1.0000 0.60740  0.18050  0.15200  Biso   1.000  H
  C13      1.0000 0.74466  0.17408  0.05872  Biso   1.000  C
  C14      1.0000 0.72153  0.14981  0.09450  Biso   1.000  C
  C15      1.0000 0.67940  0.16210  0.10630  Biso   1.000  C
  H6       1.0000 0.66550  0.18630  0.09210  Biso   1.000  H
  C16      1.0000 0.58200  0.16290  0.12210  Biso   1.000  C
  C17      1.0000 0.53690  0.19650  0.18440  Biso   1.000  C
  C18      1.0000 0.53860  0.17580  0.14350  Biso   1.000  C
  O10      1.0000 0.22764  0.70895  0.54484  Biso   1.000  O
  O11      1.0000 0.27984  0.65729  0.54498  Biso   1.000  O
  O12      1.0000 0.08540  0.66420  0.58130  Biso   1.000  O
  H7       1.0000 0.10740  0.68050  0.65200  Biso   1.000  H
  C19      1.0000 0.24466  0.67408  0.55872  Biso   1.000  C
  C20      1.0000 0.22153  0.64981  0.59450  Biso   1.000  C
  C21      1.0000 0.17940  0.66210  0.60630  Biso   1.000  C
  H8       1.0000 0.16550  0.68630  0.59210  Biso   1.000  H
  C22      1.0000 0.08200  0.66290  0.62210  Biso   1.000  C
  C23      1.0000 0.03690  0.69650  0.68440  Biso   1.000  C
  C24      1.0000 0.03860  0.67580  0.64350  Biso   1.000  C
  O13      1.0000 0.72764  0.79105  0.95516  Biso   1.000  O
  O14      1.0000 0.77984  0.84271  0.95502  Biso   1.000  O
  O15      1.0000 0.58540  0.83580  0.91870  Biso   1.000  O
  H9       1.0000 0.60740  0.81950  0.84800  Biso   1.000  H
  C25      1.0000 0.74466  0.82592  0.94128  Biso   1.000  C
  C26      1.0000 0.72153  0.85019  0.90550  Biso   1.000  C
  C27      1.0000 0.67940  0.83790  0.89370  Biso   1.000  C
  H10      1.0000 0.66550  0.81370  0.90790  Biso   1.000  H
  C28      1.0000 0.58200  0.83710  0.87790  Biso   1.000  C
  C29      1.0000 0.53690  0.80350  0.81560  Biso   1.000  C
  C30      1.0000 0.53860  0.82420  0.85650  Biso   1.000  C
  O16      1.0000 0.22764  0.29105  0.45516  Biso   1.000  O
  O17      1.0000 0.27984  0.34271  0.45502  Biso   1.000  O
  O18      1.0000 0.08540  0.33580  0.41870  Biso   1.000  O
  H11      1.0000 0.10740  0.31950  0.34800  Biso   1.000  H
  C31      1.0000 0.24466  0.32592  0.44128  Biso   1.000  C
  C32      1.0000 0.22153  0.35019  0.40550  Biso   1.000  C
  C33      1.0000 0.17940  0.33790  0.39370  Biso   1.000  C
  H12      1.0000 0.16550  0.31370  0.40790  Biso   1.000  H
  C34      1.0000 0.08200  0.33710  0.37790  Biso   1.000  C
  C35      1.0000 0.03690  0.30350  0.31560  Biso   1.000  C
  C36      1.0000 0.03860  0.32420  0.35650  Biso   1.000  C
  O19      1.0000 0.27236  0.20895  0.95516  Biso   1.000  O
  O20      1.0000 0.22016  0.15729  0.95502  Biso   1.000  O
  O21      1.0000 0.41460  0.16420  0.91870  Biso   1.000  O
  H13      1.0000 0.39260  0.18050  0.84800  Biso   1.000  H
  C37      1.0000 0.25534  0.17408  0.94128  Biso   1.000  C
  C38      1.0000 0.27847  0.14981  0.90550  Biso   1.000  C
  C39      1.0000 0.32060  0.16210  0.89370  Biso   1.000  C
  H14      1.0000 0.33450  0.18630  0.90790  Biso   1.000  H
  C40      1.0000 0.41800  0.16290  0.87790  Biso   1.000  C
  C41      1.0000 0.46310  0.19650  0.81560  Biso   1.000  C
  C42      1.0000 0.46140  0.17580  0.85650  Biso   1.000  C
  O22      1.0000 0.77236  0.70895  0.45516  Biso   1.000  O
  O23      1.0000 0.72016  0.65729  0.45502  Biso   1.000  O
  O24      1.0000 0.91460  0.66420  0.41870  Biso   1.000  O
  H15      1.0000 0.89260  0.68050  0.34800  Biso   1.000  H
  C43      1.0000 0.75534  0.67408  0.44128  Biso   1.000  C
  C44      1.0000 0.77847  0.64981  0.40550  Biso   1.000  C
  C45      1.0000 0.82060  0.66210  0.39370  Biso   1.000  C
  H16      1.0000 0.83450  0.68630  0.40790  Biso   1.000  H
  C46      1.0000 0.91800  0.66290  0.37790  Biso   1.000  C
  C47      1.0000 0.96310  0.69650  0.31560  Biso   1.000  C
  C48      1.0000 0.96140  0.67580  0.35650  Biso   1.000  C
  O25      1.0000 0.04484  0.27236  0.79105  Biso   1.000  O
  O26      1.0000 0.04498  0.22016  0.84271  Biso   1.000  O
  O27      1.0000 0.08130  0.41460  0.83580  Biso   1.000  O
  H17      1.0000 0.15200  0.39260  0.81950  Biso   1.000  H
  C49      1.0000 0.05872  0.25534  0.82592  Biso   1.000  C
  C50      1.0000 0.09450  0.27847  0.85019  Biso   1.000  C
  C51      1.0000 0.10630  0.32060  0.83790  Biso   1.000  C
  H18      1.0000 0.09210  0.33450  0.81370  Biso   1.000  H
  C52      1.0000 0.12210  0.41800  0.83710  Biso   1.000  C
  C53      1.0000 0.18440  0.46310  0.80350  Biso   1.000  C
  C54      1.0000 0.14350  0.46140  0.82420  Biso   1.000  C
  O28      1.0000 0.54484  0.77236  0.29105  Biso   1.000  O
  O29      1.0000 0.54498  0.72016  0.34271  Biso   1.000  O
  O30      1.0000 0.58130  0.91460  0.33580  Biso   1.000  O
  H19      1.0000 0.65200  0.89260  0.31950  Biso   1.000  H
  C55      1.0000 0.55872  0.75534  0.32592  Biso   1.000  C
  C56      1.0000 0.59450  0.77847  0.35019  Biso   1.000  C
  C57      1.0000 0.60630  0.82060  0.33790  Biso   1.000  C
  H20      1.0000 0.59210  0.83450  0.31370  Biso   1.000  H
  C58      1.0000 0.62210  0.91800  0.33710  Biso   1.000  C
  C59      1.0000 0.68440  0.96310  0.30350  Biso   1.000  C
  C60      1.0000 0.64350  0.96140  0.32420  Biso   1.000  C
  O31      1.0000 0.04484  0.72764  0.20895  Biso   1.000  O
  O32      1.0000 0.04498  0.77984  0.15729  Biso   1.000  O
  O33      1.0000 0.08130  0.58540  0.16420  Biso   1.000  O
  H21      1.0000 0.15200  0.60740  0.18050  Biso   1.000  H
  C61      1.0000 0.05872  0.74466  0.17408  Biso   1.000  C
  C62      1.0000 0.09450  0.72153  0.14981  Biso   1.000  C
  C63      1.0000 0.10630  0.67940  0.16210  Biso   1.000  C
  H22      1.0000 0.09210  0.66550  0.18630  Biso   1.000  H
  C64      1.0000 0.12210  0.58200  0.16290  Biso   1.000  C
  C65      1.0000 0.18440  0.53690  0.19650  Biso   1.000  C
  C66      1.0000 0.14350  0.53860  0.17580  Biso   1.000  C
  O34      1.0000 0.54484  0.22764  0.70895  Biso   1.000  O
  O35      1.0000 0.54498  0.27984  0.65729  Biso   1.000  O
  O36      1.0000 0.58130  0.08540  0.66420  Biso   1.000  O
  H23      1.0000 0.65200  0.10740  0.68050  Biso   1.000  H
  C67      1.0000 0.55872  0.24466  0.67408  Biso   1.000  C
  C68      1.0000 0.59450  0.22153  0.64981  Biso   1.000  C
  C69      1.0000 0.60630  0.17940  0.66210  Biso   1.000  C
  H24      1.0000 0.59210  0.16550  0.68630  Biso   1.000  H
  C70      1.0000 0.62210  0.08200  0.66290  Biso   1.000  C
  C71      1.0000 0.68440  0.03690  0.69650  Biso   1.000  C
  C72      1.0000 0.64350  0.03860  0.67580  Biso   1.000  C
  O37      1.0000 0.95516  0.72764  0.79105  Biso   1.000  O
  O38      1.0000 0.95502  0.77984  0.84271  Biso   1.000  O
  O39      1.0000 0.91870  0.58540  0.83580  Biso   1.000  O
  H25      1.0000 0.84800  0.60740  0.81950  Biso   1.000  H
  C73      1.0000 0.94128  0.74466  0.82592  Biso   1.000  C
  C74      1.0000 0.90550  0.72153  0.85019  Biso   1.000  C
  C75      1.0000 0.89370  0.67940  0.83790  Biso   1.000  C
  H26      1.0000 0.90790  0.66550  0.81370  Biso   1.000  H
  C76      1.0000 0.87790  0.58200  0.83710  Biso   1.000  C
  C77      1.0000 0.81560  0.53690  0.80350  Biso   1.000  C
  C78      1.0000 0.85650  0.53860  0.82420  Biso   1.000  C
  O40      1.0000 0.45516  0.22764  0.29105  Biso   1.000  O
  O41      1.0000 0.45502  0.27984  0.34271  Biso   1.000  O
  O42      1.0000 0.41870  0.08540  0.33580  Biso   1.000  O
  H27      1.0000 0.34800  0.10740  0.31950  Biso   1.000  H
  C79      1.0000 0.44128  0.24466  0.32592  Biso   1.000  C
  C80      1.0000 0.40550  0.22153  0.35019  Biso   1.000  C
  C81      1.0000 0.39370  0.17940  0.33790  Biso   1.000  C
  H28      1.0000 0.40790  0.16550  0.31370  Biso   1.000  H
  C82      1.0000 0.37790  0.08200  0.33710  Biso   1.000  C
  C83      1.0000 0.31560  0.03690  0.30350  Biso   1.000  C
  C84      1.0000 0.35650  0.03860  0.32420  Biso   1.000  C
  O43      1.0000 0.95516  0.27236  0.20895  Biso   1.000  O
  O44      1.0000 0.95502  0.22016  0.15729  Biso   1.000  O
  O45      1.0000 0.91870  0.41460  0.16420  Biso   1.000  O
  H29      1.0000 0.84800  0.39260  0.18050  Biso   1.000  H
  C85      1.0000 0.94128  0.25534  0.17408  Biso   1.000  C
  C86      1.0000 0.90550  0.27847  0.14981  Biso   1.000  C
  C87      1.0000 0.89370  0.32060  0.16210  Biso   1.000  C
  H30      1.0000 0.90790  0.33450  0.18630  Biso   1.000  H
  C88      1.0000 0.87790  0.41800  0.16290  Biso   1.000  C
  C89      1.0000 0.81560  0.46310  0.19650  Biso   1.000  C
  C90      1.0000 0.85650  0.46140  0.17580  Biso   1.000  C
  O46      1.0000 0.45516  0.77236  0.70895  Biso   1.000  O
  O47      1.0000 0.45502  0.72016  0.65729  Biso   1.000  O
  O48      1.0000 0.41870  0.91460  0.66420  Biso   1.000  O
  H31      1.0000 0.34800  0.89260  0.68050  Biso   1.000  H
  C91      1.0000 0.44128  0.75534  0.67408  Biso   1.000  C
  C92      1.0000 0.40550  0.77847  0.64981  Biso   1.000  C
  C93      1.0000 0.39370  0.82060  0.66210  Biso   1.000  C
  H32      1.0000 0.40790  0.83450  0.68630  Biso   1.000  H
  C94      1.0000 0.37790  0.91800  0.66290  Biso   1.000  C
  C95      1.0000 0.31560  0.96310  0.69650  Biso   1.000  C
  C96      1.0000 0.35650  0.96140  0.67580  Biso   1.000  C
  O49      1.0000 0.79105  0.04484  0.27236  Biso   1.000  O
  O50      1.0000 0.84271  0.04498  0.22016  Biso   1.000  O
  O51      1.0000 0.83580  0.08130  0.41460  Biso   1.000  O
  H33      1.0000 0.81950  0.15200  0.39260  Biso   1.000  H
  C97      1.0000 0.82592  0.05872  0.25534  Biso   1.000  C
  C98      1.0000 0.85019  0.09450  0.27847  Biso   1.000  C
  C99      1.0000 0.83790  0.10630  0.32060  Biso   1.000  C
  H34      1.0000 0.81370  0.09210  0.33450  Biso   1.000  H
  C100     1.0000 0.83710  0.12210  0.41800  Biso   1.000  C
  C101     1.0000 0.80350  0.18440  0.46310  Biso   1.000  C
  C102     1.0000 0.82420  0.14350  0.46140  Biso   1.000  C
  O52      1.0000 0.29105  0.54484  0.77236  Biso   1.000  O
  O53      1.0000 0.34271  0.54498  0.72016  Biso   1.000  O
  O54      1.0000 0.33580  0.58130  0.91460  Biso   1.000  O
  H35      1.0000 0.31950  0.65200  0.89260  Biso   1.000  H
  C103     1.0000 0.32592  0.55872  0.75534  Biso   1.000  C
  C104     1.0000 0.35019  0.59450  0.77847  Biso   1.000  C
  C105     1.0000 0.33790  0.60630  0.82060  Biso   1.000  C
  H36      1.0000 0.31370  0.59210  0.83450  Biso   1.000  H
  C106     1.0000 0.33710  0.62210  0.91800  Biso   1.000  C
  C107     1.0000 0.30350  0.68440  0.96310  Biso   1.000  C
  C108     1.0000 0.32420  0.64350  0.96140  Biso   1.000  C
  O55      1.0000 0.20895  0.04484  0.72764  Biso   1.000  O
  O56      1.0000 0.15729  0.04498  0.77984  Biso   1.000  O
  O57      1.0000 0.16420  0.08130  0.58540  Biso   1.000  O
  H37      1.0000 0.18050  0.15200  0.60740  Biso   1.000  H
  C109     1.0000 0.17408  0.05872  0.74466  Biso   1.000  C
  C110     1.0000 0.14981  0.09450  0.72153  Biso   1.000  C
  C111     1.0000 0.16210  0.10630  0.67940  Biso   1.000  C
  H38      1.0000 0.18630  0.09210  0.66550  Biso   1.000  H
  C112     1.0000 0.16290  0.12210  0.58200  Biso   1.000  C
  C113     1.0000 0.19650  0.18440  0.53690  Biso   1.000  C
  C114     1.0000 0.17580  0.14350  0.53860  Biso   1.000  C
  O58      1.0000 0.70895  0.54484  0.22764  Biso   1.000  O
  O59      1.0000 0.65729  0.54498  0.27984  Biso   1.000  O
  O60      1.0000 0.66420  0.58130  0.08540  Biso   1.000  O
  H39      1.0000 0.68050  0.65200  0.10740  Biso   1.000  H
  C115     1.0000 0.67408  0.55872  0.24466  Biso   1.000  C
  C116     1.0000 0.64981  0.59450  0.22153  Biso   1.000  C
  C117     1.0000 0.66210  0.60630  0.17940  Biso   1.000  C
  H40      1.0000 0.68630  0.59210  0.16550  Biso   1.000  H
  C118     1.0000 0.66290  0.62210  0.08200  Biso   1.000  C
  C119     1.0000 0.69650  0.68440  0.03690  Biso   1.000  C
  C120     1.0000 0.67580  0.64350  0.03860  Biso   1.000  C
  O61      1.0000 0.79105  0.95516  0.72764  Biso   1.000  O
  O62      1.0000 0.84271  0.95502  0.77984  Biso   1.000  O
  O63      1.0000 0.83580  0.91870  0.58540  Biso   1.000  O
  H41      1.0000 0.81950  0.84800  0.60740  Biso   1.000  H
  C121     1.0000 0.82592  0.94128  0.74466  Biso   1.000  C
  C122     1.0000 0.85019  0.90550  0.72153  Biso   1.000  C
  C123     1.0000 0.83790  0.89370  0.67940  Biso   1.000  C
  H42      1.0000 0.81370  0.90790  0.66550  Biso   1.000  H
  C124     1.0000 0.83710  0.87790  0.58200  Biso   1.000  C
  C125     1.0000 0.80350  0.81560  0.53690  Biso   1.000  C
  C126     1.0000 0.82420  0.85650  0.53860  Biso   1.000  C
  O64      1.0000 0.29105  0.45516  0.22764  Biso   1.000  O
  O65      1.0000 0.34271  0.45502  0.27984  Biso   1.000  O
  O66      1.0000 0.33580  0.41870  0.08540  Biso   1.000  O
  H43      1.0000 0.31950  0.34800  0.10740  Biso   1.000  H
  C127     1.0000 0.32592  0.44128  0.24466  Biso   1.000  C
  C128     1.0000 0.35019  0.40550  0.22153  Biso   1.000  C
  C129     1.0000 0.33790  0.39370  0.17940  Biso   1.000  C
  H44      1.0000 0.31370  0.40790  0.16550  Biso   1.000  H
  C130     1.0000 0.33710  0.37790  0.08200  Biso   1.000  C
  C131     1.0000 0.30350  0.31560  0.03690  Biso   1.000  C
  C132     1.0000 0.32420  0.35650  0.03860  Biso   1.000  C
  O67      1.0000 0.20895  0.95516  0.27236  Biso   1.000  O
  O68      1.0000 0.15729  0.95502  0.22016  Biso   1.000  O
  O69      1.0000 0.16420  0.91870  0.41460  Biso   1.000  O
  H45      1.0000 0.18050  0.84800  0.39260  Biso   1.000  H
  C133     1.0000 0.17408  0.94128  0.25534  Biso   1.000  C
  C134     1.0000 0.14981  0.90550  0.27847  Biso   1.000  C
  C135     1.0000 0.16210  0.89370  0.32060  Biso   1.000  C
  H46      1.0000 0.18630  0.90790  0.33450  Biso   1.000  H
  C136     1.0000 0.16290  0.87790  0.41800  Biso   1.000  C
  C137     1.0000 0.19650  0.81560  0.46310  Biso   1.000  C
  C138     1.0000 0.17580  0.85650  0.46140  Biso   1.000  C
  O70      1.0000 0.70895  0.45516  0.77236  Biso   1.000  O
  O71      1.0000 0.65729  0.45502  0.72016  Biso   1.000  O
  O72      1.0000 0.66420  0.41870  0.91460  Biso   1.000  O
  H47      1.0000 0.68050  0.34800  0.89260  Biso   1.000  H
  C139     1.0000 0.67408  0.44128  0.75534  Biso   1.000  C
  C140     1.0000 0.64981  0.40550  0.77847  Biso   1.000  C
  C141     1.0000 0.66210  0.39370  0.82060  Biso   1.000  C
  H48      1.0000 0.68630  0.40790  0.83450  Biso   1.000  H
  C142     1.0000 0.66290  0.37790  0.91800  Biso   1.000  C
  C143     1.0000 0.69650  0.31560  0.96310  Biso   1.000  C
  C144     1.0000 0.67580  0.35650  0.96140  Biso   1.000  C
  O73      1.0000 0.79105  0.27236  0.95516  Biso   1.000  O
  O74      1.0000 0.84271  0.22016  0.95502  Biso   1.000  O
  O75      1.0000 0.83580  0.41460  0.91870  Biso   1.000  O
  H49      1.0000 0.81950  0.39260  0.84800  Biso   1.000  H
  C145     1.0000 0.82592  0.25534  0.94128  Biso   1.000  C
  C146     1.0000 0.85019  0.27847  0.90550  Biso   1.000  C
  C147     1.0000 0.83790  0.32060  0.89370  Biso   1.000  C
  H50      1.0000 0.81370  0.33450  0.90790  Biso   1.000  H
  C148     1.0000 0.83710  0.41800  0.87790  Biso   1.000  C
  C149     1.0000 0.80350  0.46310  0.81560  Biso   1.000  C
  C150     1.0000 0.82420  0.46140  0.85650  Biso   1.000  C
  O76      1.0000 0.29105  0.77236  0.45516  Biso   1.000  O
  O77      1.0000 0.34271  0.72016  0.45502  Biso   1.000  O
  O78      1.0000 0.33580  0.91460  0.41870  Biso   1.000  O
  H51      1.0000 0.31950  0.89260  0.34800  Biso   1.000  H
  C151     1.0000 0.32592  0.75534  0.44128  Biso   1.000  C
  C152     1.0000 0.35019  0.77847  0.40550  Biso   1.000  C
  C153     1.0000 0.33790  0.82060  0.39370  Biso   1.000  C
  H52      1.0000 0.31370  0.83450  0.40790  Biso   1.000  H
  C154     1.0000 0.33710  0.91800  0.37790  Biso   1.000  C
  C155     1.0000 0.30350  0.96310  0.31560  Biso   1.000  C
  C156     1.0000 0.32420  0.96140  0.35650  Biso   1.000  C
  O79      1.0000 0.20895  0.72764  0.95516  Biso   1.000  O
  O80      1.0000 0.15729  0.77984  0.95502  Biso   1.000  O
  O81      1.0000 0.16420  0.58540  0.91870  Biso   1.000  O
  H53      1.0000 0.18050  0.60740  0.84800  Biso   1.000  H
  C157     1.0000 0.17408  0.74466  0.94128  Biso   1.000  C
  C158     1.0000 0.14981  0.72153  0.90550  Biso   1.000  C
  C159     1.0000 0.16210  0.67940  0.89370  Biso   1.000  C
  H54      1.0000 0.18630  0.66550  0.90790  Biso   1.000  H
  C160     1.0000 0.16290  0.58200  0.87790  Biso   1.000  C
  C161     1.0000 0.19650  0.53690  0.81560  Biso   1.000  C
  C162     1.0000 0.17580  0.53860  0.85650  Biso   1.000  C
  O82      1.0000 0.70895  0.22764  0.45516  Biso   1.000  O
  O83      1.0000 0.65729  0.27984  0.45502  Biso   1.000  O
  O84      1.0000 0.66420  0.08540  0.41870  Biso   1.000  O
  H55      1.0000 0.68050  0.10740  0.34800  Biso   1.000  H
  C163     1.0000 0.67408  0.24466  0.44128  Biso   1.000  C
  C164     1.0000 0.64981  0.22153  0.40550  Biso   1.000  C
  C165     1.0000 0.66210  0.17940  0.39370  Biso   1.000  C
  H56      1.0000 0.68630  0.16550  0.40790  Biso   1.000  H
  C166     1.0000 0.66290  0.08200  0.37790  Biso   1.000  C
  C167     1.0000 0.69650  0.03690  0.31560  Biso   1.000  C
  C168     1.0000 0.67580  0.03860  0.35650  Biso   1.000  C
  O85      1.0000 0.79105  0.72764  0.04484  Biso   1.000  O
  O86      1.0000 0.84271  0.77984  0.04498  Biso   1.000  O
  O87      1.0000 0.83580  0.58540  0.08130  Biso   1.000  O
  H57      1.0000 0.81950  0.60740  0.15200  Biso   1.000  H
  C169     1.0000 0.82592  0.74466  0.05872  Biso   1.000  C
  C170     1.0000 0.85019  0.72153  0.09450  Biso   1.000  C
  C171     1.0000 0.83790  0.67940  0.10630  Biso   1.000  C
  H58      1.0000 0.81370  0.66550  0.09210  Biso   1.000  H
  C172     1.0000 0.83710  0.58200  0.12210  Biso   1.000  C
  C173     1.0000 0.80350  0.53690  0.18440  Biso   1.000  C
  C174     1.0000 0.82420  0.53860  0.14350  Biso   1.000  C
  O88      1.0000 0.29105  0.22764  0.54484  Biso   1.000  O
  O89      1.0000 0.34271  0.27984  0.54498  Biso   1.000  O
  O90      1.0000 0.33580  0.08540  0.58130  Biso   1.000  O
  H59      1.0000 0.31950  0.10740  0.65200  Biso   1.000  H
  C175     1.0000 0.32592  0.24466  0.55872  Biso   1.000  C
  C176     1.0000 0.35019  0.22153  0.59450  Biso   1.000  C
  C177     1.0000 0.33790  0.17940  0.60630  Biso   1.000  C
  H60      1.0000 0.31370  0.16550  0.59210  Biso   1.000  H
  C178     1.0000 0.33710  0.08200  0.62210  Biso   1.000  C
  C179     1.0000 0.30350  0.03690  0.68440  Biso   1.000  C
  C180     1.0000 0.32420  0.03860  0.64350  Biso   1.000  C
  O91      1.0000 0.20895  0.27236  0.04484  Biso   1.000  O
  O92      1.0000 0.15729  0.22016  0.04498  Biso   1.000  O
  O93      1.0000 0.16420  0.41460  0.08130  Biso   1.000  O
  H61      1.0000 0.18050  0.39260  0.15200  Biso   1.000  H
  C181     1.0000 0.17408  0.25534  0.05872  Biso   1.000  C
  C182     1.0000 0.14981  0.27847  0.09450  Biso   1.000  C
  C183     1.0000 0.16210  0.32060  0.10630  Biso   1.000  C
  H62      1.0000 0.18630  0.33450  0.09210  Biso   1.000  H
  C184     1.0000 0.16290  0.41800  0.12210  Biso   1.000  C
  C185     1.0000 0.19650  0.46310  0.18440  Biso   1.000  C
  C186     1.0000 0.17580  0.46140  0.14350  Biso   1.000  C
  O94      1.0000 0.70895  0.77236  0.54484  Biso   1.000  O
  O95      1.0000 0.65729  0.72016  0.54498  Biso   1.000  O
  O96      1.0000 0.66420  0.91460  0.58130  Biso   1.000  O
  H63      1.0000 0.68050  0.89260  0.65200  Biso   1.000  H
  C187     1.0000 0.67408  0.75534  0.55872  Biso   1.000  C
  C188     1.0000 0.64981  0.77847  0.59450  Biso   1.000  C
  C189     1.0000 0.66210  0.82060  0.60630  Biso   1.000  C
  H64      1.0000 0.68630  0.83450  0.59210  Biso   1.000  H
  C190     1.0000 0.66290  0.91800  0.62210  Biso   1.000  C
  C191     1.0000 0.69650  0.96310  0.68440  Biso   1.000  C
  C192     1.0000 0.67580  0.96140  0.64350  Biso   1.000  C
  O97      1.0000 0.27236  0.04484  0.20895  Biso   1.000  O
  O98      1.0000 0.22016  0.04498  0.15729  Biso   1.000  O
  O99      1.0000 0.41460  0.08130  0.16420  Biso   1.000  O
  H65      1.0000 0.39260  0.15200  0.18050  Biso   1.000  H
  C193     1.0000 0.25534  0.05872  0.17408  Biso   1.000  C
  C194     1.0000 0.27847  0.09450  0.14981  Biso   1.000  C
  C195     1.0000 0.32060  0.10630  0.16210  Biso   1.000  C
  H66      1.0000 0.33450  0.09210  0.18630  Biso   1.000  H
  C196     1.0000 0.41800  0.12210  0.16290  Biso   1.000  C
  C197     1.0000 0.46310  0.18440  0.19650  Biso   1.000  C
  C198     1.0000 0.46140  0.14350  0.17580  Biso   1.000  C
  O100     1.0000 0.77236  0.54484  0.70895  Biso   1.000  O
  O101     1.0000 0.72016  0.54498  0.65729  Biso   1.000  O
  O102     1.0000 0.91460  0.58130  0.66420  Biso   1.000  O
  H67      1.0000 0.89260  0.65200  0.68050  Biso   1.000  H
  C199     1.0000 0.75534  0.55872  0.67408  Biso   1.000  C
  C200     1.0000 0.77847  0.59450  0.64981  Biso   1.000  C
  C201     1.0000 0.82060  0.60630  0.66210  Biso   1.000  C
  H68      1.0000 0.83450  0.59210  0.68630  Biso   1.000  H
  C202     1.0000 0.91800  0.62210  0.66290  Biso   1.000  C
  C203     1.0000 0.96310  0.68440  0.69650  Biso   1.000  C
  C204     1.0000 0.96140  0.64350  0.67580  Biso   1.000  C
  O103     1.0000 0.72764  0.04484  0.79105  Biso   1.000  O
  O104     1.0000 0.77984  0.04498  0.84271  Biso   1.000  O
  O105     1.0000 0.58540  0.08130  0.83580  Biso   1.000  O
  H69      1.0000 0.60740  0.15200  0.81950  Biso   1.000  H
  C205     1.0000 0.74466  0.05872  0.82592  Biso   1.000  C
  C206     1.0000 0.72153  0.09450  0.85019  Biso   1.000  C
  C207     1.0000 0.67940  0.10630  0.83790  Biso   1.000  C
  H70      1.0000 0.66550  0.09210  0.81370  Biso   1.000  H
  C208     1.0000 0.58200  0.12210  0.83710  Biso   1.000  C
  C209     1.0000 0.53690  0.18440  0.80350  Biso   1.000  C
  C210     1.0000 0.53860  0.14350  0.82420  Biso   1.000  C
  O106     1.0000 0.22764  0.54484  0.29105  Biso   1.000  O
  O107     1.0000 0.27984  0.54498  0.34271  Biso   1.000  O
  O108     1.0000 0.08540  0.58130  0.33580  Biso   1.000  O
  H71      1.0000 0.10740  0.65200  0.31950  Biso   1.000  H
  C211     1.0000 0.24466  0.55872  0.32592  Biso   1.000  C
  C212     1.0000 0.22153  0.59450  0.35019  Biso   1.000  C
  C213     1.0000 0.17940  0.60630  0.33790  Biso   1.000  C
  H72      1.0000 0.16550  0.59210  0.31370  Biso   1.000  H
  C214     1.0000 0.08200  0.62210  0.33710  Biso   1.000  C
  C215     1.0000 0.03690  0.68440  0.30350  Biso   1.000  C
  C216     1.0000 0.03860  0.64350  0.32420  Biso   1.000  C
  O109     1.0000 0.72764  0.95516  0.20895  Biso   1.000  O
  O110     1.0000 0.77984  0.95502  0.15729  Biso   1.000  O
  O111     1.0000 0.58540  0.91870  0.16420  Biso   1.000  O
  H73      1.0000 0.60740  0.84800  0.18050  Biso   1.000  H
  C217     1.0000 0.74466  0.94128  0.17408  Biso   1.000  C
  C218     1.0000 0.72153  0.90550  0.14981  Biso   1.000  C
  C219     1.0000 0.67940  0.89370  0.16210  Biso   1.000  C
  H74      1.0000 0.66550  0.90790  0.18630  Biso   1.000  H
  C220     1.0000 0.58200  0.87790  0.16290  Biso   1.000  C
  C221     1.0000 0.53690  0.81560  0.19650  Biso   1.000  C
  C222     1.0000 0.53860  0.85650  0.17580  Biso   1.000  C
  O112     1.0000 0.22764  0.45516  0.70895  Biso   1.000  O
  O113     1.0000 0.27984  0.45502  0.65729  Biso   1.000  O
  O114     1.0000 0.08540  0.41870  0.66420  Biso   1.000  O
  H75      1.0000 0.10740  0.34800  0.68050  Biso   1.000  H
  C223     1.0000 0.24466  0.44128  0.67408  Biso   1.000  C
  C224     1.0000 0.22153  0.40550  0.64981  Biso   1.000  C
  C225     1.0000 0.17940  0.39370  0.66210  Biso   1.000  C
  H76      1.0000 0.16550  0.40790  0.68630  Biso   1.000  H
  C226     1.0000 0.08200  0.37790  0.66290  Biso   1.000  C
  C227     1.0000 0.03690  0.31560  0.69650  Biso   1.000  C
  C228     1.0000 0.03860  0.35650  0.67580  Biso   1.000  C
  O115     1.0000 0.27236  0.95516  0.79105  Biso   1.000  O
  O116     1.0000 0.22016  0.95502  0.84271  Biso   1.000  O
  O117     1.0000 0.41460  0.91870  0.83580  Biso   1.000  O
  H77      1.0000 0.39260  0.84800  0.81950  Biso   1.000  H
  C229     1.0000 0.25534  0.94128  0.82592  Biso   1.000  C
  C230     1.0000 0.27847  0.90550  0.85019  Biso   1.000  C
  C231     1.0000 0.32060  0.89370  0.83790  Biso   1.000  C
  H78      1.0000 0.33450  0.90790  0.81370  Biso   1.000  H
  C232     1.0000 0.41800  0.87790  0.83710  Biso   1.000  C
  C233     1.0000 0.46310  0.81560  0.80350  Biso   1.000  C
  C234     1.0000 0.46140  0.85650  0.82420  Biso   1.000  C
  O118     1.0000 0.77236  0.45516  0.29105  Biso   1.000  O
  O119     1.0000 0.72016  0.45502  0.34271  Biso   1.000  O
  O120     1.0000 0.91460  0.41870  0.33580  Biso   1.000  O
  H79      1.0000 0.89260  0.34800  0.31950  Biso   1.000  H
  C235     1.0000 0.75534  0.44128  0.32592  Biso   1.000  C
  C236     1.0000 0.77847  0.40550  0.35019  Biso   1.000  C
  C237     1.0000 0.82060  0.39370  0.33790  Biso   1.000  C
  H80      1.0000 0.83450  0.40790  0.31370  Biso   1.000  H
  C238     1.0000 0.91800  0.37790  0.33710  Biso   1.000  C
  C239     1.0000 0.96310  0.31560  0.30350  Biso   1.000  C
  C240     1.0000 0.96140  0.35650  0.32420  Biso   1.000  C
  O121     1.0000 0.04484  0.79105  0.72764  Biso   1.000  O
  O122     1.0000 0.04498  0.84271  0.77984  Biso   1.000  O
  O123     1.0000 0.08130  0.83580  0.58540  Biso   1.000  O
  H81      1.0000 0.15200  0.81950  0.60740  Biso   1.000  H
  C241     1.0000 0.05872  0.82592  0.74466  Biso   1.000  C
  C242     1.0000 0.09450  0.85019  0.72153  Biso   1.000  C
  C243     1.0000 0.10630  0.83790  0.67940  Biso   1.000  C
  H82      1.0000 0.09210  0.81370  0.66550  Biso   1.000  H
  C244     1.0000 0.12210  0.83710  0.58200  Biso   1.000  C
  C245     1.0000 0.18440  0.80350  0.53690  Biso   1.000  C
  C246     1.0000 0.14350  0.82420  0.53860  Biso   1.000  C
  O124     1.0000 0.54484  0.29105  0.22764  Biso   1.000  O
  O125     1.0000 0.54498  0.34271  0.27984  Biso   1.000  O
  O126     1.0000 0.58130  0.33580  0.08540  Biso   1.000  O
  H83      1.0000 0.65200  0.31950  0.10740  Biso   1.000  H
  C247     1.0000 0.55872  0.32592  0.24466  Biso   1.000  C
  C248     1.0000 0.59450  0.35019  0.22153  Biso   1.000  C
  C249     1.0000 0.60630  0.33790  0.17940  Biso   1.000  C
  H84      1.0000 0.59210  0.31370  0.16550  Biso   1.000  H
  C250     1.0000 0.62210  0.33710  0.08200  Biso   1.000  C
  C251     1.0000 0.68440  0.30350  0.03690  Biso   1.000  C
  C252     1.0000 0.64350  0.32420  0.03860  Biso   1.000  C
  O127     1.0000 0.04484  0.20895  0.27236  Biso   1.000  O
  O128     1.0000 0.04498  0.15729  0.22016  Biso   1.000  O
  O129     1.0000 0.08130  0.16420  0.41460  Biso   1.000  O
  H85      1.0000 0.15200  0.18050  0.39260  Biso   1.000  H
  C253     1.0000 0.05872  0.17408  0.25534  Biso   1.000  C
  C254     1.0000 0.09450  0.14981  0.27847  Biso   1.000  C
  C255     1.0000 0.10630  0.16210  0.32060  Biso   1.000  C
  H86      1.0000 0.09210  0.18630  0.33450  Biso   1.000  H
  C256     1.0000 0.12210  0.16290  0.41800  Biso   1.000  C
  C257     1.0000 0.18440  0.19650  0.46310  Biso   1.000  C
  C258     1.0000 0.14350  0.17580  0.46140  Biso   1.000  C
  O130     1.0000 0.54484  0.70895  0.77236  Biso   1.000  O
  O131     1.0000 0.54498  0.65729  0.72016  Biso   1.000  O
  O132     1.0000 0.58130  0.66420  0.91460  Biso   1.000  O
  H87      1.0000 0.65200  0.68050  0.89260  Biso   1.000  H
  C259     1.0000 0.55872  0.67408  0.75534  Biso   1.000  C
  C260     1.0000 0.59450  0.64981  0.77847  Biso   1.000  C
  C261     1.0000 0.60630  0.66210  0.82060  Biso   1.000  C
  H88      1.0000 0.59210  0.68630  0.83450  Biso   1.000  H
  C262     1.0000 0.62210  0.66290  0.91800  Biso   1.000  C
  C263     1.0000 0.68440  0.69650  0.96310  Biso   1.000  C
  C264     1.0000 0.64350  0.67580  0.96140  Biso   1.000  C
  O133     1.0000 0.95516  0.79105  0.27236  Biso   1.000  O
  O134     1.0000 0.95502  0.84271  0.22016  Biso   1.000  O
  O135     1.0000 0.91870  0.83580  0.41460  Biso   1.000  O
  H89      1.0000 0.84800  0.81950  0.39260  Biso   1.000  H
  C265     1.0000 0.94128  0.82592  0.25534  Biso   1.000  C
  C266     1.0000 0.90550  0.85019  0.27847  Biso   1.000  C
  C267     1.0000 0.89370  0.83790  0.32060  Biso   1.000  C
  H90      1.0000 0.90790  0.81370  0.33450  Biso   1.000  H
  C268     1.0000 0.87790  0.83710  0.41800  Biso   1.000  C
  C269     1.0000 0.81560  0.80350  0.46310  Biso   1.000  C
  C270     1.0000 0.85650  0.82420  0.46140  Biso   1.000  C
  O136     1.0000 0.45516  0.29105  0.77236  Biso   1.000  O
  O137     1.0000 0.45502  0.34271  0.72016  Biso   1.000  O
  O138     1.0000 0.41870  0.33580  0.91460  Biso   1.000  O
  H91      1.0000 0.34800  0.31950  0.89260  Biso   1.000  H
  C271     1.0000 0.44128  0.32592  0.75534  Biso   1.000  C
  C272     1.0000 0.40550  0.35019  0.77847  Biso   1.000  C
  C273     1.0000 0.39370  0.33790  0.82060  Biso   1.000  C
  H92      1.0000 0.40790  0.31370  0.83450  Biso   1.000  H
  C274     1.0000 0.37790  0.33710  0.91800  Biso   1.000  C
  C275     1.0000 0.31560  0.30350  0.96310  Biso   1.000  C
  C276     1.0000 0.35650  0.32420  0.96140  Biso   1.000  C
  O139     1.0000 0.95516  0.20895  0.72764  Biso   1.000  O
  O140     1.0000 0.95502  0.15729  0.77984  Biso   1.000  O
  O141     1.0000 0.91870  0.16420  0.58540  Biso   1.000  O
  H93      1.0000 0.84800  0.18050  0.60740  Biso   1.000  H
  C277     1.0000 0.94128  0.17408  0.74466  Biso   1.000  C
  C278     1.0000 0.90550  0.14981  0.72153  Biso   1.000  C
  C279     1.0000 0.89370  0.16210  0.67940  Biso   1.000  C
  H94      1.0000 0.90790  0.18630  0.66550  Biso   1.000  H
  C280     1.0000 0.87790  0.16290  0.58200  Biso   1.000  C
  C281     1.0000 0.81560  0.19650  0.53690  Biso   1.000  C
  C282     1.0000 0.85650  0.17580  0.53860  Biso   1.000  C
  O142     1.0000 0.45516  0.70895  0.22764  Biso   1.000  O
  O143     1.0000 0.45502  0.65729  0.27984  Biso   1.000  O
  O144     1.0000 0.41870  0.66420  0.08540  Biso   1.000  O
  H95      1.0000 0.34800  0.68050  0.10740  Biso   1.000  H
  C283     1.0000 0.44128  0.67408  0.24466  Biso   1.000  C
  C284     1.0000 0.40550  0.64981  0.22153  Biso   1.000  C
  C285     1.0000 0.39370  0.66210  0.17940  Biso   1.000  C
  H96      1.0000 0.40790  0.68630  0.16550  Biso   1.000  H
  C286     1.0000 0.37790  0.66290  0.08200  Biso   1.000  C
  C287     1.0000 0.31560  0.69650  0.03690  Biso   1.000  C
  C288     1.0000 0.35650  0.67580  0.03860  Biso   1.000  C
  O145     1.0000 0.72764  0.20895  0.95516  Biso   1.000  O
  O146     1.0000 0.77984  0.15729  0.95502  Biso   1.000  O
  O147     1.0000 0.58540  0.16420  0.91870  Biso   1.000  O
  H97      1.0000 0.60740  0.18050  0.84800  Biso   1.000  H
  C289     1.0000 0.74466  0.17408  0.94128  Biso   1.000  C
  C290     1.0000 0.72153  0.14981  0.90550  Biso   1.000  C
  C291     1.0000 0.67940  0.16210  0.89370  Biso   1.000  C
  H98      1.0000 0.66550  0.18630  0.90790  Biso   1.000  H
  C292     1.0000 0.58200  0.16290  0.87790  Biso   1.000  C
  C293     1.0000 0.53690  0.19650  0.81560  Biso   1.000  C
  C294     1.0000 0.53860  0.17580  0.85650  Biso   1.000  C
  O148     1.0000 0.22764  0.70895  0.45516  Biso   1.000  O
  O149     1.0000 0.27984  0.65729  0.45502  Biso   1.000  O
  O150     1.0000 0.08540  0.66420  0.41870  Biso   1.000  O
  H99      1.0000 0.10740  0.68050  0.34800  Biso   1.000  H
  C295     1.0000 0.24466  0.67408  0.44128  Biso   1.000  C
  C296     1.0000 0.22153  0.64981  0.40550  Biso   1.000  C
  C297     1.0000 0.17940  0.66210  0.39370  Biso   1.000  C
  H100     1.0000 0.16550  0.68630  0.40790  Biso   1.000  H
  C298     1.0000 0.08200  0.66290  0.37790  Biso   1.000  C
  C299     1.0000 0.03690  0.69650  0.31560  Biso   1.000  C
  C300     1.0000 0.03860  0.67580  0.35650  Biso   1.000  C
  O151     1.0000 0.27236  0.79105  0.95516  Biso   1.000  O
  O152     1.0000 0.22016  0.84271  0.95502  Biso   1.000  O
  O153     1.0000 0.41460  0.83580  0.91870  Biso   1.000  O
  H101     1.0000 0.39260  0.81950  0.84800  Biso   1.000  H
  C301     1.0000 0.25534  0.82592  0.94128  Biso   1.000  C
  C302     1.0000 0.27847  0.85019  0.90550  Biso   1.000  C
  C303     1.0000 0.32060  0.83790  0.89370  Biso   1.000  C
  H102     1.0000 0.33450  0.81370  0.90790  Biso   1.000  H
  C304     1.0000 0.41800  0.83710  0.87790  Biso   1.000  C
  C305     1.0000 0.46310  0.80350  0.81560  Biso   1.000  C
  C306     1.0000 0.46140  0.82420  0.85650  Biso   1.000  C
  O154     1.0000 0.77236  0.29105  0.45516  Biso   1.000  O
  O155     1.0000 0.72016  0.34271  0.45502  Biso   1.000  O
  O156     1.0000 0.91460  0.33580  0.41870  Biso   1.000  O
  H103     1.0000 0.89260  0.31950  0.34800  Biso   1.000  H
  C307     1.0000 0.75534  0.32592  0.44128  Biso   1.000  C
  C308     1.0000 0.77847  0.35019  0.40550  Biso   1.000  C
  C309     1.0000 0.82060  0.33790  0.39370  Biso   1.000  C
  H104     1.0000 0.83450  0.31370  0.40790  Biso   1.000  H
  C310     1.0000 0.91800  0.33710  0.37790  Biso   1.000  C
  C311     1.0000 0.96310  0.30350  0.31560  Biso   1.000  C
  C312     1.0000 0.96140  0.32420  0.35650  Biso   1.000  C
  O157     1.0000 0.27236  0.20895  0.04484  Biso   1.000  O
  O158     1.0000 0.22016  0.15729  0.04498  Biso   1.000  O
  O159     1.0000 0.41460  0.16420  0.08130  Biso   1.000  O
  H105     1.0000 0.39260  0.18050  0.15200  Biso   1.000  H
  C313     1.0000 0.25534  0.17408  0.05872  Biso   1.000  C
  C314     1.0000 0.27847  0.14981  0.09450  Biso   1.000  C
  C315     1.0000 0.32060  0.16210  0.10630  Biso   1.000  C
  H106     1.0000 0.33450  0.18630  0.09210  Biso   1.000  H
  C316     1.0000 0.41800  0.16290  0.12210  Biso   1.000  C
  C317     1.0000 0.46310  0.19650  0.18440  Biso   1.000  C
  C318     1.0000 0.46140  0.17580  0.14350  Biso   1.000  C
  O160     1.0000 0.77236  0.70895  0.54484  Biso   1.000  O
  O161     1.0000 0.72016  0.65729  0.54498  Biso   1.000  O
  O162     1.0000 0.91460  0.66420  0.58130  Biso   1.000  O
  H107     1.0000 0.89260  0.68050  0.65200  Biso   1.000  H
  C319     1.0000 0.75534  0.67408  0.55872  Biso   1.000  C
  C320     1.0000 0.77847  0.64981  0.59450  Biso   1.000  C
  C321     1.0000 0.82060  0.66210  0.60630  Biso   1.000  C
  H108     1.0000 0.83450  0.68630  0.59210  Biso   1.000  H
  C322     1.0000 0.91800  0.66290  0.62210  Biso   1.000  C
  C323     1.0000 0.96310  0.69650  0.68440  Biso   1.000  C
  C324     1.0000 0.96140  0.67580  0.64350  Biso   1.000  C
  O163     1.0000 0.72764  0.79105  0.04484  Biso   1.000  O
  O164     1.0000 0.77984  0.84271  0.04498  Biso   1.000  O
  O165     1.0000 0.58540  0.83580  0.08130  Biso   1.000  O
  H109     1.0000 0.60740  0.81950  0.15200  Biso   1.000  H
  C325     1.0000 0.74466  0.82592  0.05872  Biso   1.000  C
  C326     1.0000 0.72153  0.85019  0.09450  Biso   1.000  C
  C327     1.0000 0.67940  0.83790  0.10630  Biso   1.000  C
  H110     1.0000 0.66550  0.81370  0.09210  Biso   1.000  H
  C328     1.0000 0.58200  0.83710  0.12210  Biso   1.000  C
  C329     1.0000 0.53690  0.80350  0.18440  Biso   1.000  C
  C330     1.0000 0.53860  0.82420  0.14350  Biso   1.000  C
  O166     1.0000 0.22764  0.29105  0.54484  Biso   1.000  O
  O167     1.0000 0.27984  0.34271  0.54498  Biso   1.000  O
  O168     1.0000 0.08540  0.33580  0.58130  Biso   1.000  O
  H111     1.0000 0.10740  0.31950  0.65200  Biso   1.000  H
  C331     1.0000 0.24466  0.32592  0.55872  Biso   1.000  C
  C332     1.0000 0.22153  0.35019  0.59450  Biso   1.000  C
  C333     1.0000 0.17940  0.33790  0.60630  Biso   1.000  C
  H112     1.0000 0.16550  0.31370  0.59210  Biso   1.000  H
  C334     1.0000 0.08200  0.33710  0.62210  Biso   1.000  C
  C335     1.0000 0.03690  0.30350  0.68440  Biso   1.000  C
  C336     1.0000 0.03860  0.32420  0.64350  Biso   1.000  C
  O169     1.0000 0.95516  0.72764  0.20895  Biso   1.000  O
  O170     1.0000 0.95502  0.77984  0.15729  Biso   1.000  O
  O171     1.0000 0.91870  0.58540  0.16420  Biso   1.000  O
  H113     1.0000 0.84800  0.60740  0.18050  Biso   1.000  H
  C337     1.0000 0.94128  0.74466  0.17408  Biso   1.000  C
  C338     1.0000 0.90550  0.72153  0.14981  Biso   1.000  C
  C339     1.0000 0.89370  0.67940  0.16210  Biso   1.000  C
  H114     1.0000 0.90790  0.66550  0.18630  Biso   1.000  H
  C340     1.0000 0.87790  0.58200  0.16290  Biso   1.000  C
  C341     1.0000 0.81560  0.53690  0.19650  Biso   1.000  C
  C342     1.0000 0.85650  0.53860  0.17580  Biso   1.000  C
  O172     1.0000 0.45516  0.22764  0.70895  Biso   1.000  O
  O173     1.0000 0.45502  0.27984  0.65729  Biso   1.000  O
  O174     1.0000 0.41870  0.08540  0.66420  Biso   1.000  O
  H115     1.0000 0.34800  0.10740  0.68050  Biso   1.000  H
  C343     1.0000 0.44128  0.24466  0.67408  Biso   1.000  C
  C344     1.0000 0.40550  0.22153  0.64981  Biso   1.000  C
  C345     1.0000 0.39370  0.17940  0.66210  Biso   1.000  C
  H116     1.0000 0.40790  0.16550  0.68630  Biso   1.000  H
  C346     1.0000 0.37790  0.08200  0.66290  Biso   1.000  C
  C347     1.0000 0.31560  0.03690  0.69650  Biso   1.000  C
  C348     1.0000 0.35650  0.03860  0.67580  Biso   1.000  C
  O175     1.0000 0.95516  0.27236  0.79105  Biso   1.000  O
  O176     1.0000 0.95502  0.22016  0.84271  Biso   1.000  O
  O177     1.0000 0.91870  0.41460  0.83580  Biso   1.000  O
  H117     1.0000 0.84800  0.39260  0.81950  Biso   1.000  H
  C349     1.0000 0.94128  0.25534  0.82592  Biso   1.000  C
  C350     1.0000 0.90550  0.27847  0.85019  Biso   1.000  C
  C351     1.0000 0.89370  0.32060  0.83790  Biso   1.000  C
  H118     1.0000 0.90790  0.33450  0.81370  Biso   1.000  H
  C352     1.0000 0.87790  0.41800  0.83710  Biso   1.000  C
  C353     1.0000 0.81560  0.46310  0.80350  Biso   1.000  C
  C354     1.0000 0.85650  0.46140  0.82420  Biso   1.000  C
  O178     1.0000 0.45516  0.77236  0.29105  Biso   1.000  O
  O179     1.0000 0.45502  0.72016  0.34271  Biso   1.000  O
  O180     1.0000 0.41870  0.91460  0.33580  Biso   1.000  O
  H119     1.0000 0.34800  0.89260  0.31950  Biso   1.000  H
  C355     1.0000 0.44128  0.75534  0.32592  Biso   1.000  C
  C356     1.0000 0.40550  0.77847  0.35019  Biso   1.000  C
  C357     1.0000 0.39370  0.82060  0.33790  Biso   1.000  C
  H120     1.0000 0.40790  0.83450  0.31370  Biso   1.000  H
  C358     1.0000 0.37790  0.91800  0.33710  Biso   1.000  C
  C359     1.0000 0.31560  0.96310  0.30350  Biso   1.000  C
  C360     1.0000 0.35650  0.96140  0.32420  Biso   1.000  C
  O181     1.0000 0.04484  0.27236  0.20895  Biso   1.000  O
  O182     1.0000 0.04498  0.22016  0.15729  Biso   1.000  O
  O183     1.0000 0.08130  0.41460  0.16420  Biso   1.000  O
  H121     1.0000 0.15200  0.39260  0.18050  Biso   1.000  H
  C361     1.0000 0.05872  0.25534  0.17408  Biso   1.000  C
  C362     1.0000 0.09450  0.27847  0.14981  Biso   1.000  C
  C363     1.0000 0.10630  0.32060  0.16210  Biso   1.000  C
  H122     1.0000 0.09210  0.33450  0.18630  Biso   1.000  H
  C364     1.0000 0.12210  0.41800  0.16290  Biso   1.000  C
  C365     1.0000 0.18440  0.46310  0.19650  Biso   1.000  C
  C366     1.0000 0.14350  0.46140  0.17580  Biso   1.000  C
  O184     1.0000 0.54484  0.77236  0.70895  Biso   1.000  O
  O185     1.0000 0.54498  0.72016  0.65729  Biso   1.000  O
  O186     1.0000 0.58130  0.91460  0.66420  Biso   1.000  O
  H123     1.0000 0.65200  0.89260  0.68050  Biso   1.000  H
  C367     1.0000 0.55872  0.75534  0.67408  Biso   1.000  C
  C368     1.0000 0.59450  0.77847  0.64981  Biso   1.000  C
  C369     1.0000 0.60630  0.82060  0.66210  Biso   1.000  C
  H124     1.0000 0.59210  0.83450  0.68630  Biso   1.000  H
  C370     1.0000 0.62210  0.91800  0.66290  Biso   1.000  C
  C371     1.0000 0.68440  0.96310  0.69650  Biso   1.000  C
  C372     1.0000 0.64350  0.96140  0.67580  Biso   1.000  C
  O187     1.0000 0.04484  0.72764  0.79105  Biso   1.000  O
  O188     1.0000 0.04498  0.77984  0.84271  Biso   1.000  O
  O189     1.0000 0.08130  0.58540  0.83580  Biso   1.000  O
  H125     1.0000 0.15200  0.60740  0.81950  Biso   1.000  H
  C373     1.0000 0.05872  0.74466  0.82592  Biso   1.000  C
  C374     1.0000 0.09450  0.72153  0.85019  Biso   1.000  C
  C375     1.0000 0.10630  0.67940  0.83790  Biso   1.000  C
  H126     1.0000 0.09210  0.66550  0.81370  Biso   1.000  H
  C376     1.0000 0.12210  0.58200  0.83710  Biso   1.000  C
  C377     1.0000 0.18440  0.53690  0.80350  Biso   1.000  C
  C378     1.0000 0.14350  0.53860  0.82420  Biso   1.000  C
  O190     1.0000 0.54484  0.22764  0.29105  Biso   1.000  O
  O191     1.0000 0.54498  0.27984  0.34271  Biso   1.000  O
  O192     1.0000 0.58130  0.08540  0.33580  Biso   1.000  O
  H127     1.0000 0.65200  0.10740  0.31950  Biso   1.000  H
  C379     1.0000 0.55872  0.24466  0.32592  Biso   1.000  C
  C380     1.0000 0.59450  0.22153  0.35019  Biso   1.000  C
  C381     1.0000 0.60630  0.17940  0.33790  Biso   1.000  C
  H128     1.0000 0.59210  0.16550  0.31370  Biso   1.000  H
  C382     1.0000 0.62210  0.08200  0.33710  Biso   1.000  C
  C383     1.0000 0.68440  0.03690  0.30350  Biso   1.000  C
  C384     1.0000 0.64350  0.03860  0.32420  Biso   1.000  C
  O193     1.0000 0.20895  0.95516  0.72764  Biso   1.000  O
  O194     1.0000 0.15729  0.95502  0.77984  Biso   1.000  O
  O195     1.0000 0.16420  0.91870  0.58540  Biso   1.000  O
  H129     1.0000 0.18050  0.84800  0.60740  Biso   1.000  H
  C385     1.0000 0.17408  0.94128  0.74466  Biso   1.000  C
  C386     1.0000 0.14981  0.90550  0.72153  Biso   1.000  C
  C387     1.0000 0.16210  0.89370  0.67940  Biso   1.000  C
  H130     1.0000 0.18630  0.90790  0.66550  Biso   1.000  H
  C388     1.0000 0.16290  0.87790  0.58200  Biso   1.000  C
  C389     1.0000 0.19650  0.81560  0.53690  Biso   1.000  C
  C390     1.0000 0.17580  0.85650  0.53860  Biso   1.000  C
  O196     1.0000 0.70895  0.45516  0.22764  Biso   1.000  O
  O197     1.0000 0.65729  0.45502  0.27984  Biso   1.000  O
  O198     1.0000 0.66420  0.41870  0.08540  Biso   1.000  O
  H131     1.0000 0.68050  0.34800  0.10740  Biso   1.000  H
  C391     1.0000 0.67408  0.44128  0.24466  Biso   1.000  C
  C392     1.0000 0.64981  0.40550  0.22153  Biso   1.000  C
  C393     1.0000 0.66210  0.39370  0.17940  Biso   1.000  C
  H132     1.0000 0.68630  0.40790  0.16550  Biso   1.000  H
  C394     1.0000 0.66290  0.37790  0.08200  Biso   1.000  C
  C395     1.0000 0.69650  0.31560  0.03690  Biso   1.000  C
  C396     1.0000 0.67580  0.35650  0.03860  Biso   1.000  C
  O199     1.0000 0.79105  0.95516  0.27236  Biso   1.000  O
  O200     1.0000 0.84271  0.95502  0.22016  Biso   1.000  O
  O201     1.0000 0.83580  0.91870  0.41460  Biso   1.000  O
  H133     1.0000 0.81950  0.84800  0.39260  Biso   1.000  H
  C397     1.0000 0.82592  0.94128  0.25534  Biso   1.000  C
  C398     1.0000 0.85019  0.90550  0.27847  Biso   1.000  C
  C399     1.0000 0.83790  0.89370  0.32060  Biso   1.000  C
  H134     1.0000 0.81370  0.90790  0.33450  Biso   1.000  H
  C400     1.0000 0.83710  0.87790  0.41800  Biso   1.000  C
  C401     1.0000 0.80350  0.81560  0.46310  Biso   1.000  C
  C402     1.0000 0.82420  0.85650  0.46140  Biso   1.000  C
  O202     1.0000 0.29105  0.45516  0.77236  Biso   1.000  O
  O203     1.0000 0.34271  0.45502  0.72016  Biso   1.000  O
  O204     1.0000 0.33580  0.41870  0.91460  Biso   1.000  O
  H135     1.0000 0.31950  0.34800  0.89260  Biso   1.000  H
  C403     1.0000 0.32592  0.44128  0.75534  Biso   1.000  C
  C404     1.0000 0.35019  0.40550  0.77847  Biso   1.000  C
  C405     1.0000 0.33790  0.39370  0.82060  Biso   1.000  C
  H136     1.0000 0.31370  0.40790  0.83450  Biso   1.000  H
  C406     1.0000 0.33710  0.37790  0.91800  Biso   1.000  C
  C407     1.0000 0.30350  0.31560  0.96310  Biso   1.000  C
  C408     1.0000 0.32420  0.35650  0.96140  Biso   1.000  C
  O205     1.0000 0.20895  0.04484  0.27236  Biso   1.000  O
  O206     1.0000 0.15729  0.04498  0.22016  Biso   1.000  O
  O207     1.0000 0.16420  0.08130  0.41460  Biso   1.000  O
  H137     1.0000 0.18050  0.15200  0.39260  Biso   1.000  H
  C409     1.0000 0.17408  0.05872  0.25534  Biso   1.000  C
  C410     1.0000 0.14981  0.09450  0.27847  Biso   1.000  C
  C411     1.0000 0.16210  0.10630  0.32060  Biso   1.000  C
  H138     1.0000 0.18630  0.09210  0.33450  Biso   1.000  H
  C412     1.0000 0.16290  0.12210  0.41800  Biso   1.000  C
  C413     1.0000 0.19650  0.18440  0.46310  Biso   1.000  C
  C414     1.0000 0.17580  0.14350  0.46140  Biso   1.000  C
  O208     1.0000 0.70895  0.54484  0.77236  Biso   1.000  O
  O209     1.0000 0.65729  0.54498  0.72016  Biso   1.000  O
  O210     1.0000 0.66420  0.58130  0.91460  Biso   1.000  O
  H139     1.0000 0.68050  0.65200  0.89260  Biso   1.000  H
  C415     1.0000 0.67408  0.55872  0.75534  Biso   1.000  C
  C416     1.0000 0.64981  0.59450  0.77847  Biso   1.000  C
  C417     1.0000 0.66210  0.60630  0.82060  Biso   1.000  C
  H140     1.0000 0.68630  0.59210  0.83450  Biso   1.000  H
  C418     1.0000 0.66290  0.62210  0.91800  Biso   1.000  C
  C419     1.0000 0.69650  0.68440  0.96310  Biso   1.000  C
  C420     1.0000 0.67580  0.64350  0.96140  Biso   1.000  C
  O211     1.0000 0.79105  0.04484  0.72764  Biso   1.000  O
  O212     1.0000 0.84271  0.04498  0.77984  Biso   1.000  O
  O213     1.0000 0.83580  0.08130  0.58540  Biso   1.000  O
  H141     1.0000 0.81950  0.15200  0.60740  Biso   1.000  H
  C421     1.0000 0.82592  0.05872  0.74466  Biso   1.000  C
  C422     1.0000 0.85019  0.09450  0.72153  Biso   1.000  C
  C423     1.0000 0.83790  0.10630  0.67940  Biso   1.000  C
  H142     1.0000 0.81370  0.09210  0.66550  Biso   1.000  H
  C424     1.0000 0.83710  0.12210  0.58200  Biso   1.000  C
  C425     1.0000 0.80350  0.18440  0.53690  Biso   1.000  C
  C426     1.0000 0.82420  0.14350  0.53860  Biso   1.000  C
  O214     1.0000 0.29105  0.54484  0.22764  Biso   1.000  O
  O215     1.0000 0.34271  0.54498  0.27984  Biso   1.000  O
  O216     1.0000 0.33580  0.58130  0.08540  Biso   1.000  O
  H143     1.0000 0.31950  0.65200  0.10740  Biso   1.000  H
  C427     1.0000 0.32592  0.55872  0.24466  Biso   1.000  C
  C428     1.0000 0.35019  0.59450  0.22153  Biso   1.000  C
  C429     1.0000 0.33790  0.60630  0.17940  Biso   1.000  C
  H144     1.0000 0.31370  0.59210  0.16550  Biso   1.000  H
  C430     1.0000 0.33710  0.62210  0.08200  Biso   1.000  C
  C431     1.0000 0.30350  0.68440  0.03690  Biso   1.000  C
  C432     1.0000 0.32420  0.64350  0.03860  Biso   1.000  C
  O217     1.0000 0.20895  0.72764  0.04484  Biso   1.000  O
  O218     1.0000 0.15729  0.77984  0.04498  Biso   1.000  O
  O219     1.0000 0.16420  0.58540  0.08130  Biso   1.000  O
  H145     1.0000 0.18050  0.60740  0.15200  Biso   1.000  H
  C433     1.0000 0.17408  0.74466  0.05872  Biso   1.000  C
  C434     1.0000 0.14981  0.72153  0.09450  Biso   1.000  C
  C435     1.0000 0.16210  0.67940  0.10630  Biso   1.000  C
  H146     1.0000 0.18630  0.66550  0.09210  Biso   1.000  H
  C436     1.0000 0.16290  0.58200  0.12210  Biso   1.000  C
  C437     1.0000 0.19650  0.53690  0.18440  Biso   1.000  C
  C438     1.0000 0.17580  0.53860  0.14350  Biso   1.000  C
  O220     1.0000 0.70895  0.22764  0.54484  Biso   1.000  O
  O221     1.0000 0.65729  0.27984  0.54498  Biso   1.000  O
  O222     1.0000 0.66420  0.08540  0.58130  Biso   1.000  O
  H147     1.0000 0.68050  0.10740  0.65200  Biso   1.000  H
  C439     1.0000 0.67408  0.24466  0.55872  Biso   1.000  C
  C440     1.0000 0.64981  0.22153  0.59450  Biso   1.000  C
  C441     1.0000 0.66210  0.17940  0.60630  Biso   1.000  C
  H148     1.0000 0.68630  0.16550  0.59210  Biso   1.000  H
  C442     1.0000 0.66290  0.08200  0.62210  Biso   1.000  C
  C443     1.0000 0.69650  0.03690  0.68440  Biso   1.000  C
  C444     1.0000 0.67580  0.03860  0.64350  Biso   1.000  C
  O223     1.0000 0.79105  0.27236  0.04484  Biso   1.000  O
  O224     1.0000 0.84271  0.22016  0.04498  Biso   1.000  O
  O225     1.0000 0.83580  0.41460  0.08130  Biso   1.000  O
  H149     1.0000 0.81950  0.39260  0.15200  Biso   1.000  H
  C445     1.0000 0.82592  0.25534  0.05872  Biso   1.000  C
  C446     1.0000 0.85019  0.27847  0.09450  Biso   1.000  C
  C447     1.0000 0.83790  0.32060  0.10630  Biso   1.000  C
  H150     1.0000 0.81370  0.33450  0.09210  Biso   1.000  H
  C448     1.0000 0.83710  0.41800  0.12210  Biso   1.000  C
  C449     1.0000 0.80350  0.46310  0.18440  Biso   1.000  C
  C450     1.0000 0.82420  0.46140  0.14350  Biso   1.000  C
  O226     1.0000 0.29105  0.77236  0.54484  Biso   1.000  O
  O227     1.0000 0.34271  0.72016  0.54498  Biso   1.000  O
  O228     1.0000 0.33580  0.91460  0.58130  Biso   1.000  O
  H151     1.0000 0.31950  0.89260  0.65200  Biso   1.000  H
  C451     1.0000 0.32592  0.75534  0.55872  Biso   1.000  C
  C452     1.0000 0.35019  0.77847  0.59450  Biso   1.000  C
  C453     1.0000 0.33790  0.82060  0.60630  Biso   1.000  C
  H152     1.0000 0.31370  0.83450  0.59210  Biso   1.000  H
  C454     1.0000 0.33710  0.91800  0.62210  Biso   1.000  C
  C455     1.0000 0.30350  0.96310  0.68440  Biso   1.000  C
  C456     1.0000 0.32420  0.96140  0.64350  Biso   1.000  C
  O229     1.0000 0.20895  0.27236  0.95516  Biso   1.000  O
  O230     1.0000 0.15729  0.22016  0.95502  Biso   1.000  O
  O231     1.0000 0.16420  0.41460  0.91870  Biso   1.000  O
  H153     1.0000 0.18050  0.39260  0.84800  Biso   1.000  H
  C457     1.0000 0.17408  0.25534  0.94128  Biso   1.000  C
  C458     1.0000 0.14981  0.27847  0.90550  Biso   1.000  C
  C459     1.0000 0.16210  0.32060  0.89370  Biso   1.000  C
  H154     1.0000 0.18630  0.33450  0.90790  Biso   1.000  H
  C460     1.0000 0.16290  0.41800  0.87790  Biso   1.000  C
  C461     1.0000 0.19650  0.46310  0.81560  Biso   1.000  C
  C462     1.0000 0.17580  0.46140  0.85650  Biso   1.000  C
  O232     1.0000 0.70895  0.77236  0.45516  Biso   1.000  O
  O233     1.0000 0.65729  0.72016  0.45502  Biso   1.000  O
  O234     1.0000 0.66420  0.91460  0.41870  Biso   1.000  O
  H155     1.0000 0.68050  0.89260  0.34800  Biso   1.000  H
  C463     1.0000 0.67408  0.75534  0.44128  Biso   1.000  C
  C464     1.0000 0.64981  0.77847  0.40550  Biso   1.000  C
  C465     1.0000 0.66210  0.82060  0.39370  Biso   1.000  C
  H156     1.0000 0.68630  0.83450  0.40790  Biso   1.000  H
  C466     1.0000 0.66290  0.91800  0.37790  Biso   1.000  C
  C467     1.0000 0.69650  0.96310  0.31560  Biso   1.000  C
  C468     1.0000 0.67580  0.96140  0.35650  Biso   1.000  C
  O235     1.0000 0.79105  0.72764  0.95516  Biso   1.000  O
  O236     1.0000 0.84271  0.77984  0.95502  Biso   1.000  O
  O237     1.0000 0.83580  0.58540  0.91870  Biso   1.000  O
  H157     1.0000 0.81950  0.60740  0.84800  Biso   1.000  H
  C469     1.0000 0.82592  0.74466  0.94128  Biso   1.000  C
  C470     1.0000 0.85019  0.72153  0.90550  Biso   1.000  C
  C471     1.0000 0.83790  0.67940  0.89370  Biso   1.000  C
  H158     1.0000 0.81370  0.66550  0.90790  Biso   1.000  H
  C472     1.0000 0.83710  0.58200  0.87790  Biso   1.000  C
  C473     1.0000 0.80350  0.53690  0.81560  Biso   1.000  C
  C474     1.0000 0.82420  0.53860  0.85650  Biso   1.000  C
  O238     1.0000 0.29105  0.22764  0.45516  Biso   1.000  O
  O239     1.0000 0.34271  0.27984  0.45502  Biso   1.000  O
  O240     1.0000 0.33580  0.08540  0.41870  Biso   1.000  O
  H159     1.0000 0.31950  0.10740  0.34800  Biso   1.000  H
  C475     1.0000 0.32592  0.24466  0.44128  Biso   1.000  C
  C476     1.0000 0.35019  0.22153  0.40550  Biso   1.000  C
  C477     1.0000 0.33790  0.17940  0.39370  Biso   1.000  C
  H160     1.0000 0.31370  0.16550  0.40790  Biso   1.000  H
  C478     1.0000 0.33710  0.08200  0.37790  Biso   1.000  C
  C479     1.0000 0.30350  0.03690  0.31560  Biso   1.000  C
  C480     1.0000 0.32420  0.03860  0.35650  Biso   1.000  C
  O241     1.0000 0.72764  0.95516  0.79105  Biso   1.000  O
  O242     1.0000 0.77984  0.95502  0.84271  Biso   1.000  O
  O243     1.0000 0.58540  0.91870  0.83580  Biso   1.000  O
  H161     1.0000 0.60740  0.84800  0.81950  Biso   1.000  H
  C481     1.0000 0.74466  0.94128  0.82592  Biso   1.000  C
  C482     1.0000 0.72153  0.90550  0.85019  Biso   1.000  C
  C483     1.0000 0.67940  0.89370  0.83790  Biso   1.000  C
  H162     1.0000 0.66550  0.90790  0.81370  Biso   1.000  H
  C484     1.0000 0.58200  0.87790  0.83710  Biso   1.000  C
  C485     1.0000 0.53690  0.81560  0.80350  Biso   1.000  C
  C486     1.0000 0.53860  0.85650  0.82420  Biso   1.000  C
  O244     1.0000 0.22764  0.45516  0.29105  Biso   1.000  O
  O245     1.0000 0.27984  0.45502  0.34271  Biso   1.000  O
  O246     1.0000 0.08540  0.41870  0.33580  Biso   1.000  O
  H163     1.0000 0.10740  0.34800  0.31950  Biso   1.000  H
  C487     1.0000 0.24466  0.44128  0.32592  Biso   1.000  C
  C488     1.0000 0.22153  0.40550  0.35019  Biso   1.000  C
  C489     1.0000 0.17940  0.39370  0.33790  Biso   1.000  C
  H164     1.0000 0.16550  0.40790  0.31370  Biso   1.000  H
  C490     1.0000 0.08200  0.37790  0.33710  Biso   1.000  C
  C491     1.0000 0.03690  0.31560  0.30350  Biso   1.000  C
  C492     1.0000 0.03860  0.35650  0.32420  Biso   1.000  C
  O247     1.0000 0.27236  0.95516  0.20895  Biso   1.000  O
  O248     1.0000 0.22016  0.95502  0.15729  Biso   1.000  O
  O249     1.0000 0.41460  0.91870  0.16420  Biso   1.000  O
  H165     1.0000 0.39260  0.84800  0.18050  Biso   1.000  H
  C493     1.0000 0.25534  0.94128  0.17408  Biso   1.000  C
  C494     1.0000 0.27847  0.90550  0.14981  Biso   1.000  C
  C495     1.0000 0.32060  0.89370  0.16210  Biso   1.000  C
  H166     1.0000 0.33450  0.90790  0.18630  Biso   1.000  H
  C496     1.0000 0.41800  0.87790  0.16290  Biso   1.000  C
  C497     1.0000 0.46310  0.81560  0.19650  Biso   1.000  C
  C498     1.0000 0.46140  0.85650  0.17580  Biso   1.000  C
  O250     1.0000 0.77236  0.45516  0.70895  Biso   1.000  O
  O251     1.0000 0.72016  0.45502  0.65729  Biso   1.000  O
  O252     1.0000 0.91460  0.41870  0.66420  Biso   1.000  O
  H167     1.0000 0.89260  0.34800  0.68050  Biso   1.000  H
  C499     1.0000 0.75534  0.44128  0.67408  Biso   1.000  C
  C500     1.0000 0.77847  0.40550  0.64981  Biso   1.000  C
  C501     1.0000 0.82060  0.39370  0.66210  Biso   1.000  C
  H168     1.0000 0.83450  0.40790  0.68630  Biso   1.000  H
  C502     1.0000 0.91800  0.37790  0.66290  Biso   1.000  C
  C503     1.0000 0.96310  0.31560  0.69650  Biso   1.000  C
  C504     1.0000 0.96140  0.35650  0.67580  Biso   1.000  C
  O253     1.0000 0.27236  0.04484  0.79105  Biso   1.000  O
  O254     1.0000 0.22016  0.04498  0.84271  Biso   1.000  O
  O255     1.0000 0.41460  0.08130  0.83580  Biso   1.000  O
  H169     1.0000 0.39260  0.15200  0.81950  Biso   1.000  H
  C505     1.0000 0.25534  0.05872  0.82592  Biso   1.000  C
  C506     1.0000 0.27847  0.09450  0.85019  Biso   1.000  C
  C507     1.0000 0.32060  0.10630  0.83790  Biso   1.000  C
  H170     1.0000 0.33450  0.09210  0.81370  Biso   1.000  H
  C508     1.0000 0.41800  0.12210  0.83710  Biso   1.000  C
  C509     1.0000 0.46310  0.18440  0.80350  Biso   1.000  C
  C510     1.0000 0.46140  0.14350  0.82420  Biso   1.000  C
  O256     1.0000 0.77236  0.54484  0.29105  Biso   1.000  O
  O257     1.0000 0.72016  0.54498  0.34271  Biso   1.000  O
  O258     1.0000 0.91460  0.58130  0.33580  Biso   1.000  O
  H171     1.0000 0.89260  0.65200  0.31950  Biso   1.000  H
  C511     1.0000 0.75534  0.55872  0.32592  Biso   1.000  C
  C512     1.0000 0.77847  0.59450  0.35019  Biso   1.000  C
  C513     1.0000 0.82060  0.60630  0.33790  Biso   1.000  C
  H172     1.0000 0.83450  0.59210  0.31370  Biso   1.000  H
  C514     1.0000 0.91800  0.62210  0.33710  Biso   1.000  C
  C515     1.0000 0.96310  0.68440  0.30350  Biso   1.000  C
  C516     1.0000 0.96140  0.64350  0.32420  Biso   1.000  C
  O259     1.0000 0.72764  0.04484  0.20895  Biso   1.000  O
  O260     1.0000 0.77984  0.04498  0.15729  Biso   1.000  O
  O261     1.0000 0.58540  0.08130  0.16420  Biso   1.000  O
  H173     1.0000 0.60740  0.15200  0.18050  Biso   1.000  H
  C517     1.0000 0.74466  0.05872  0.17408  Biso   1.000  C
  C518     1.0000 0.72153  0.09450  0.14981  Biso   1.000  C
  C519     1.0000 0.67940  0.10630  0.16210  Biso   1.000  C
  H174     1.0000 0.66550  0.09210  0.18630  Biso   1.000  H
  C520     1.0000 0.58200  0.12210  0.16290  Biso   1.000  C
  C521     1.0000 0.53690  0.18440  0.19650  Biso   1.000  C
  C522     1.0000 0.53860  0.14350  0.17580  Biso   1.000  C
  O262     1.0000 0.22764  0.54484  0.70895  Biso   1.000  O
  O263     1.0000 0.27984  0.54498  0.65729  Biso   1.000  O
  O264     1.0000 0.08540  0.58130  0.66420  Biso   1.000  O
  H175     1.0000 0.10740  0.65200  0.68050  Biso   1.000  H
  C523     1.0000 0.24466  0.55872  0.67408  Biso   1.000  C
  C524     1.0000 0.22153  0.59450  0.64981  Biso   1.000  C
  C525     1.0000 0.17940  0.60630  0.66210  Biso   1.000  C
  H176     1.0000 0.16550  0.59210  0.68630  Biso   1.000  H
  C526     1.0000 0.08200  0.62210  0.66290  Biso   1.000  C
  C527     1.0000 0.03690  0.68440  0.69650  Biso   1.000  C
  C528     1.0000 0.03860  0.64350  0.67580  Biso   1.000  C
  O265     1.0000 0.95516  0.20895  0.27236  Biso   1.000  O
  O266     1.0000 0.95502  0.15729  0.22016  Biso   1.000  O
  O267     1.0000 0.91870  0.16420  0.41460  Biso   1.000  O
  H177     1.0000 0.84800  0.18050  0.39260  Biso   1.000  H
  C529     1.0000 0.94128  0.17408  0.25534  Biso   1.000  C
  C530     1.0000 0.90550  0.14981  0.27847  Biso   1.000  C
  C531     1.0000 0.89370  0.16210  0.32060  Biso   1.000  C
  H178     1.0000 0.90790  0.18630  0.33450  Biso   1.000  H
  C532     1.0000 0.87790  0.16290  0.41800  Biso   1.000  C
  C533     1.0000 0.81560  0.19650  0.46310  Biso   1.000  C
  C534     1.0000 0.85650  0.17580  0.46140  Biso   1.000  C
  O268     1.0000 0.45516  0.70895  0.77236  Biso   1.000  O
  O269     1.0000 0.45502  0.65729  0.72016  Biso   1.000  O
  O270     1.0000 0.41870  0.66420  0.91460  Biso   1.000  O
  H179     1.0000 0.34800  0.68050  0.89260  Biso   1.000  H
  C535     1.0000 0.44128  0.67408  0.75534  Biso   1.000  C
  C536     1.0000 0.40550  0.64981  0.77847  Biso   1.000  C
  C537     1.0000 0.39370  0.66210  0.82060  Biso   1.000  C
  H180     1.0000 0.40790  0.68630  0.83450  Biso   1.000  H
  C538     1.0000 0.37790  0.66290  0.91800  Biso   1.000  C
  C539     1.0000 0.31560  0.69650  0.96310  Biso   1.000  C
  C540     1.0000 0.35650  0.67580  0.96140  Biso   1.000  C
  O271     1.0000 0.95516  0.79105  0.72764  Biso   1.000  O
  O272     1.0000 0.95502  0.84271  0.77984  Biso   1.000  O
  O273     1.0000 0.91870  0.83580  0.58540  Biso   1.000  O
  H181     1.0000 0.84800  0.81950  0.60740  Biso   1.000  H
  C541     1.0000 0.94128  0.82592  0.74466  Biso   1.000  C
  C542     1.0000 0.90550  0.85019  0.72153  Biso   1.000  C
  C543     1.0000 0.89370  0.83790  0.67940  Biso   1.000  C
  H182     1.0000 0.90790  0.81370  0.66550  Biso   1.000  H
  C544     1.0000 0.87790  0.83710  0.58200  Biso   1.000  C
  C545     1.0000 0.81560  0.80350  0.53690  Biso   1.000  C
  C546     1.0000 0.85650  0.82420  0.53860  Biso   1.000  C
  O274     1.0000 0.45516  0.29105  0.22764  Biso   1.000  O
  O275     1.0000 0.45502  0.34271  0.27984  Biso   1.000  O
  O276     1.0000 0.41870  0.33580  0.08540  Biso   1.000  O
  H183     1.0000 0.34800  0.31950  0.10740  Biso   1.000  H
  C547     1.0000 0.44128  0.32592  0.24466  Biso   1.000  C
  C548     1.0000 0.40550  0.35019  0.22153  Biso   1.000  C
  C549     1.0000 0.39370  0.33790  0.17940  Biso   1.000  C
  H184     1.0000 0.40790  0.31370  0.16550  Biso   1.000  H
  C550     1.0000 0.37790  0.33710  0.08200  Biso   1.000  C
  C551     1.0000 0.31560  0.30350  0.03690  Biso   1.000  C
  C552     1.0000 0.35650  0.32420  0.03860  Biso   1.000  C
  O277     1.0000 0.04484  0.20895  0.72764  Biso   1.000  O
  O278     1.0000 0.04498  0.15729  0.77984  Biso   1.000  O
  O279     1.0000 0.08130  0.16420  0.58540  Biso   1.000  O
  H185     1.0000 0.15200  0.18050  0.60740  Biso   1.000  H
  C553     1.0000 0.05872  0.17408  0.74466  Biso   1.000  C
  C554     1.0000 0.09450  0.14981  0.72153  Biso   1.000  C
  C555     1.0000 0.10630  0.16210  0.67940  Biso   1.000  C
  H186     1.0000 0.09210  0.18630  0.66550  Biso   1.000  H
  C556     1.0000 0.12210  0.16290  0.58200  Biso   1.000  C
  C557     1.0000 0.18440  0.19650  0.53690  Biso   1.000  C
  C558     1.0000 0.14350  0.17580  0.53860  Biso   1.000  C
  O280     1.0000 0.54484  0.70895  0.22764  Biso   1.000  O
  O281     1.0000 0.54498  0.65729  0.27984  Biso   1.000  O
  O282     1.0000 0.58130  0.66420  0.08540  Biso   1.000  O
  H187     1.0000 0.65200  0.68050  0.10740  Biso   1.000  H
  C559     1.0000 0.55872  0.67408  0.24466  Biso   1.000  C
  C560     1.0000 0.59450  0.64981  0.22153  Biso   1.000  C
  C561     1.0000 0.60630  0.66210  0.17940  Biso   1.000  C
  H188     1.0000 0.59210  0.68630  0.16550  Biso   1.000  H
  C562     1.0000 0.62210  0.66290  0.08200  Biso   1.000  C
  C563     1.0000 0.68440  0.69650  0.03690  Biso   1.000  C
  C564     1.0000 0.64350  0.67580  0.03860  Biso   1.000  C
  O283     1.0000 0.04484  0.79105  0.27236  Biso   1.000  O
  O284     1.0000 0.04498  0.84271  0.22016  Biso   1.000  O
  O285     1.0000 0.08130  0.83580  0.41460  Biso   1.000  O
  H189     1.0000 0.15200  0.81950  0.39260  Biso   1.000  H
  C565     1.0000 0.05872  0.82592  0.25534  Biso   1.000  C
  C566     1.0000 0.09450  0.85019  0.27847  Biso   1.000  C
  C567     1.0000 0.10630  0.83790  0.32060  Biso   1.000  C
  H190     1.0000 0.09210  0.81370  0.33450  Biso   1.000  H
  C568     1.0000 0.12210  0.83710  0.41800  Biso   1.000  C
  C569     1.0000 0.18440  0.80350  0.46310  Biso   1.000  C
  C570     1.0000 0.14350  0.82420  0.46140  Biso   1.000  C
  O286     1.0000 0.54484  0.29105  0.77236  Biso   1.000  O
  O287     1.0000 0.54498  0.34271  0.72016  Biso   1.000  O
  O288     1.0000 0.58130  0.33580  0.91460  Biso   1.000  O
  H191     1.0000 0.65200  0.31950  0.89260  Biso   1.000  H
  C571     1.0000 0.55872  0.32592  0.75534  Biso   1.000  C
  C572     1.0000 0.59450  0.35019  0.77847  Biso   1.000  C
  C573     1.0000 0.60630  0.33790  0.82060  Biso   1.000  C
  H192     1.0000 0.59210  0.31370  0.83450  Biso   1.000  H
  C574     1.0000 0.62210  0.33710  0.91800  Biso   1.000  C
  C575     1.0000 0.68440  0.30350  0.96310  Biso   1.000  C
  C576     1.0000 0.64350  0.32420  0.96140  Biso   1.000  C
  Cu1      1.0000 0.18401  0.81599  0.00000  Biso   1.000  Cu
  Cu2      1.0000 0.24503  0.75497  0.00000  Biso   1.000  Cu
  Cu3      1.0000 0.68401  0.31599  0.50000  Biso   1.000  Cu
  Cu4      1.0000 0.74503  0.25497  0.50000  Biso   1.000  Cu
  Cu5      1.0000 0.81599  0.18401  0.00000  Biso   1.000  Cu
  Cu6      1.0000 0.75497  0.24503  0.00000  Biso   1.000  Cu
  Cu7      1.0000 0.31599  0.68401  0.50000  Biso   1.000  Cu
  Cu8      1.0000 0.25497  0.74503  0.50000  Biso   1.000  Cu
  Cu9      1.0000 0.81599  0.81599  0.00000  Biso   1.000  Cu
  Cu10     1.0000 0.75497  0.75497  0.00000  Biso   1.000  Cu
  Cu11     1.0000 0.31599  0.31599  0.50000  Biso   1.000  Cu
  Cu12     1.0000 0.25497  0.25497  0.50000  Biso   1.000  Cu
  Cu13     1.0000 0.18401  0.18401  0.00000  Biso   1.000  Cu
  Cu14     1.0000 0.24503  0.24503  0.00000  Biso   1.000  Cu
  Cu15     1.0000 0.68401  0.68401  0.50000  Biso   1.000  Cu
  Cu16     1.0000 0.74503  0.74503  0.50000  Biso   1.000  Cu
  Cu17     1.0000 0.00000  0.18401  0.81599  Biso   1.000  Cu
  Cu18     1.0000 0.00000  0.24503  0.75497  Biso   1.000  Cu
  Cu19     1.0000 0.50000  0.68401  0.31599  Biso   1.000  Cu
  Cu20     1.0000 0.50000  0.74503  0.25497  Biso   1.000  Cu
  Cu21     1.0000 0.00000  0.81599  0.18401  Biso   1.000  Cu
  Cu22     1.0000 0.00000  0.75497  0.24503  Biso   1.000  Cu
  Cu23     1.0000 0.50000  0.31599  0.68401  Biso   1.000  Cu
  Cu24     1.0000 0.50000  0.25497  0.74503  Biso   1.000  Cu
  Cu25     1.0000 0.00000  0.81599  0.81599  Biso   1.000  Cu
  Cu26     1.0000 0.00000  0.75497  0.75497  Biso   1.000  Cu
  Cu27     1.0000 0.50000  0.31599  0.31599  Biso   1.000  Cu
  Cu28     1.0000 0.50000  0.25497  0.25497  Biso   1.000  Cu
  Cu29     1.0000 0.00000  0.18401  0.18401  Biso   1.000  Cu
  Cu30     1.0000 0.00000  0.24503  0.24503  Biso   1.000  Cu
  Cu31     1.0000 0.50000  0.68401  0.68401  Biso   1.000  Cu
  Cu32     1.0000 0.50000  0.74503  0.74503  Biso   1.000  Cu
  Cu33     1.0000 0.81599  0.00000  0.18401  Biso   1.000  Cu
  Cu34     1.0000 0.75497  0.00000  0.24503  Biso   1.000  Cu
  Cu35     1.0000 0.31599  0.50000  0.68401  Biso   1.000  Cu
  Cu36     1.0000 0.25497  0.50000  0.74503  Biso   1.000  Cu
  Cu37     1.0000 0.18401  0.00000  0.81599  Biso   1.000  Cu
  Cu38     1.0000 0.24503  0.00000  0.75497  Biso   1.000  Cu
  Cu39     1.0000 0.68401  0.50000  0.31599  Biso   1.000  Cu
  Cu40     1.0000 0.74503  0.50000  0.25497  Biso   1.000  Cu
  Cu41     1.0000 0.81599  0.00000  0.81599  Biso   1.000  Cu
  Cu42     1.0000 0.75497  0.00000  0.75497  Biso   1.000  Cu
  Cu43     1.0000 0.31599  0.50000  0.31599  Biso   1.000  Cu
  Cu44     1.0000 0.25497  0.50000  0.25497  Biso   1.000  Cu
  Cu45     1.0000 0.18401  0.00000  0.18401  Biso   1.000  Cu
  Cu46     1.0000 0.24503  0.00000  0.24503  Biso   1.000  Cu
  Cu47     1.0000 0.68401  0.50000  0.68401  Biso   1.000  Cu
  Cu48     1.0000 0.74503  0.50000  0.74503  Biso   1.000  Cu
  N1       1.0000 0.50000  0.79450  0.20550  Biso   1.000  N
  N2       1.0000 0.00000  0.29450  0.70550  Biso   1.000  N
  N3       1.0000 0.50000  0.20550  0.20550  Biso   1.000  N
  N4       1.0000 0.00000  0.70550  0.70550  Biso   1.000  N
  N5       1.0000 0.50000  0.79450  0.79450  Biso   1.000  N
  N6       1.0000 0.00000  0.29450  0.29450  Biso   1.000  N
  N7       1.0000 0.50000  0.20550  0.79450  Biso   1.000  N
  N8       1.0000 0.00000  0.70550  0.29450  Biso   1.000  N
  N9       1.0000 0.20550  0.50000  0.79450  Biso   1.000  N
  N10      1.0000 0.70550  0.00000  0.29450  Biso   1.000  N
  N11      1.0000 0.20550  0.50000  0.20550  Biso   1.000  N
  N12      1.0000 0.70550  0.00000  0.70550  Biso   1.000  N
  N13      1.0000 0.79450  0.50000  0.79450  Biso   1.000  N
  N14      1.0000 0.29450  0.00000  0.29450  Biso   1.000  N
  N15      1.0000 0.79450  0.50000  0.20550  Biso   1.000  N
  N16      1.0000 0.29450  0.00000  0.70550  Biso   1.000  N
  N17      1.0000 0.79450  0.20550  0.50000  Biso   1.000  N
  N18      1.0000 0.29450  0.70550  0.00000  Biso   1.000  N
  N19      1.0000 0.20550  0.20550  0.50000  Biso   1.000  N
  N20      1.0000 0.70550  0.70550  0.00000  Biso   1.000  N
  N21      1.0000 0.79450  0.79450  0.50000  Biso   1.000  N
  N22      1.0000 0.29450  0.29450  0.00000  Biso   1.000  N
  N23      1.0000 0.20550  0.79450  0.50000  Biso   1.000  N
  N24      1.0000 0.70550  0.29450  0.00000  Biso   1.000  N
  N25      1.0000 0.38590  0.84810  0.15190  Biso   1.000  N
  C577     1.0000 0.25800  0.88480  0.11520  Biso   1.000  C
  H193     1.0000 0.22970  0.89440  0.10560  Biso   1.000  H
  C578     1.0000 0.34150  0.86060  0.13940  Biso   1.000  C
  H194     1.0000 0.43610  0.79730  0.20270  Biso   1.000  H
  N26      1.0000 0.88590  0.34810  0.65190  Biso   1.000  N
  C579     1.0000 0.75800  0.38480  0.61520  Biso   1.000  C
  H195     1.0000 0.72970  0.39440  0.60560  Biso   1.000  H
  C580     1.0000 0.84150  0.36060  0.63940  Biso   1.000  C
  H196     1.0000 0.93610  0.29730  0.70270  Biso   1.000  H
  N27      1.0000 0.61410  0.15190  0.15190  Biso   1.000  N
  C581     1.0000 0.74200  0.11520  0.11520  Biso   1.000  C
  H197     1.0000 0.77030  0.10560  0.10560  Biso   1.000  H
  C582     1.0000 0.65850  0.13940  0.13940  Biso   1.000  C
  H198     1.0000 0.56390  0.20270  0.20270  Biso   1.000  H
  N28      1.0000 0.11410  0.65190  0.65190  Biso   1.000  N
  C583     1.0000 0.24200  0.61520  0.61520  Biso   1.000  C
  H199     1.0000 0.27030  0.60560  0.60560  Biso   1.000  H
  C584     1.0000 0.15850  0.63940  0.63940  Biso   1.000  C
  H200     1.0000 0.06390  0.70270  0.70270  Biso   1.000  H
  N29      1.0000 0.61410  0.84810  0.84810  Biso   1.000  N
  C585     1.0000 0.74200  0.88480  0.88480  Biso   1.000  C
  H201     1.0000 0.77030  0.89440  0.89440  Biso   1.000  H
  C586     1.0000 0.65850  0.86060  0.86060  Biso   1.000  C
  H202     1.0000 0.56390  0.79730  0.79730  Biso   1.000  H
  N30      1.0000 0.11410  0.34810  0.34810  Biso   1.000  N
  C587     1.0000 0.24200  0.38480  0.38480  Biso   1.000  C
  H203     1.0000 0.27030  0.39440  0.39440  Biso   1.000  H
  C588     1.0000 0.15850  0.36060  0.36060  Biso   1.000  C
  H204     1.0000 0.06390  0.29730  0.29730  Biso   1.000  H
  N31      1.0000 0.38590  0.15190  0.84810  Biso   1.000  N
  C589     1.0000 0.25800  0.11520  0.88480  Biso   1.000  C
  H205     1.0000 0.22970  0.10560  0.89440  Biso   1.000  H
  C590     1.0000 0.34150  0.13940  0.86060  Biso   1.000  C
  H206     1.0000 0.43610  0.20270  0.79730  Biso   1.000  H
  N32      1.0000 0.88590  0.65190  0.34810  Biso   1.000  N
  C591     1.0000 0.75800  0.61520  0.38480  Biso   1.000  C
  H207     1.0000 0.72970  0.60560  0.39440  Biso   1.000  H
  C592     1.0000 0.84150  0.63940  0.36060  Biso   1.000  C
  H208     1.0000 0.93610  0.70270  0.29730  Biso   1.000  H
  N33      1.0000 0.15190  0.38590  0.84810  Biso   1.000  N
  C593     1.0000 0.11520  0.25800  0.88480  Biso   1.000  C
  H209     1.0000 0.10560  0.22970  0.89440  Biso   1.000  H
  C594     1.0000 0.13940  0.34150  0.86060  Biso   1.000  C
  H210     1.0000 0.20270  0.43610  0.79730  Biso   1.000  H
  N34      1.0000 0.65190  0.88590  0.34810  Biso   1.000  N
  C595     1.0000 0.61520  0.75800  0.38480  Biso   1.000  C
  H211     1.0000 0.60560  0.72970  0.39440  Biso   1.000  H
  C596     1.0000 0.63940  0.84150  0.36060  Biso   1.000  C
  H212     1.0000 0.70270  0.93610  0.29730  Biso   1.000  H
  N35      1.0000 0.15190  0.61410  0.15190  Biso   1.000  N
  C597     1.0000 0.11520  0.74200  0.11520  Biso   1.000  C
  H213     1.0000 0.10560  0.77030  0.10560  Biso   1.000  H
  C598     1.0000 0.13940  0.65850  0.13940  Biso   1.000  C
  H214     1.0000 0.20270  0.56390  0.20270  Biso   1.000  H
  N36      1.0000 0.65190  0.11410  0.65190  Biso   1.000  N
  C599     1.0000 0.61520  0.24200  0.61520  Biso   1.000  C
  H215     1.0000 0.60560  0.27030  0.60560  Biso   1.000  H
  C600     1.0000 0.63940  0.15850  0.63940  Biso   1.000  C
  H216     1.0000 0.70270  0.06390  0.70270  Biso   1.000  H
  N37      1.0000 0.84810  0.61410  0.84810  Biso   1.000  N
  C601     1.0000 0.88480  0.74200  0.88480  Biso   1.000  C
  H217     1.0000 0.89440  0.77030  0.89440  Biso   1.000  H
  C602     1.0000 0.86060  0.65850  0.86060  Biso   1.000  C
  H218     1.0000 0.79730  0.56390  0.79730  Biso   1.000  H
  N38      1.0000 0.34810  0.11410  0.34810  Biso   1.000  N
  C603     1.0000 0.38480  0.24200  0.38480  Biso   1.000  C
  H219     1.0000 0.39440  0.27030  0.39440  Biso   1.000  H
  C604     1.0000 0.36060  0.15850  0.36060  Biso   1.000  C
  H220     1.0000 0.29730  0.06390  0.29730  Biso   1.000  H
  N39      1.0000 0.84810  0.38590  0.15190  Biso   1.000  N
  C605     1.0000 0.88480  0.25800  0.11520  Biso   1.000  C
  H221     1.0000 0.89440  0.22970  0.10560  Biso   1.000  H
  C606     1.0000 0.86060  0.34150  0.13940  Biso   1.000  C
  H222     1.0000 0.79730  0.43610  0.20270  Biso   1.000  H
  N40      1.0000 0.34810  0.88590  0.65190  Biso   1.000  N
  C607     1.0000 0.38480  0.75800  0.61520  Biso   1.000  C
  H223     1.0000 0.39440  0.72970  0.60560  Biso   1.000  H
  C608     1.0000 0.36060  0.84150  0.63940  Biso   1.000  C
  H224     1.0000 0.29730  0.93610  0.70270  Biso   1.000  H
  N41      1.0000 0.84810  0.15190  0.38590  Biso   1.000  N
  C609     1.0000 0.88480  0.11520  0.25800  Biso   1.000  C
  H225     1.0000 0.89440  0.10560  0.22970  Biso   1.000  H
  C610     1.0000 0.86060  0.13940  0.34150  Biso   1.000  C
  H226     1.0000 0.79730  0.20270  0.43610  Biso   1.000  H
  N42      1.0000 0.34810  0.65190  0.88590  Biso   1.000  N
  C611     1.0000 0.38480  0.61520  0.75800  Biso   1.000  C
  H227     1.0000 0.39440  0.60560  0.72970  Biso   1.000  H
  C612     1.0000 0.36060  0.63940  0.84150  Biso   1.000  C
  H228     1.0000 0.29730  0.70270  0.93610  Biso   1.000  H
  N43      1.0000 0.15190  0.15190  0.61410  Biso   1.000  N
  C613     1.0000 0.11520  0.11520  0.74200  Biso   1.000  C
  H229     1.0000 0.10560  0.10560  0.77030  Biso   1.000  H
  C614     1.0000 0.13940  0.13940  0.65850  Biso   1.000  C
  H230     1.0000 0.20270  0.20270  0.56390  Biso   1.000  H
  N44      1.0000 0.65190  0.65190  0.11410  Biso   1.000  N
  C615     1.0000 0.61520  0.61520  0.24200  Biso   1.000  C
  H231     1.0000 0.60560  0.60560  0.27030  Biso   1.000  H
  C616     1.0000 0.63940  0.63940  0.15850  Biso   1.000  C
  H232     1.0000 0.70270  0.70270  0.06390  Biso   1.000  H
  N45      1.0000 0.84810  0.84810  0.61410  Biso   1.000  N
  C617     1.0000 0.88480  0.88480  0.74200  Biso   1.000  C
  H233     1.0000 0.89440  0.89440  0.77030  Biso   1.000  H
  C618     1.0000 0.86060  0.86060  0.65850  Biso   1.000  C
  H234     1.0000 0.79730  0.79730  0.56390  Biso   1.000  H
  N46      1.0000 0.34810  0.34810  0.11410  Biso   1.000  N
  C619     1.0000 0.38480  0.38480  0.24200  Biso   1.000  C
  H235     1.0000 0.39440  0.39440  0.27030  Biso   1.000  H
  C620     1.0000 0.36060  0.36060  0.15850  Biso   1.000  C
  H236     1.0000 0.29730  0.29730  0.06390  Biso   1.000  H
  N47      1.0000 0.15190  0.84810  0.38590  Biso   1.000  N
  C621     1.0000 0.11520  0.88480  0.25800  Biso   1.000  C
  H237     1.0000 0.10560  0.89440  0.22970  Biso   1.000  H
  C622     1.0000 0.13940  0.86060  0.34150  Biso   1.000  C
  H238     1.0000 0.20270  0.79730  0.43610  Biso   1.000  H
  N48      1.0000 0.65190  0.34810  0.88590  Biso   1.000  N
  C623     1.0000 0.61520  0.38480  0.75800  Biso   1.000  C
  H239     1.0000 0.60560  0.39440  0.72970  Biso   1.000  H
  C624     1.0000 0.63940  0.36060  0.84150  Biso   1.000  C
  H240     1.0000 0.70270  0.29730  0.93610  Biso   1.000  H
  N49      1.0000 0.84810  0.38590  0.84810  Biso   1.000  N
  C625     1.0000 0.88480  0.25800  0.88480  Biso   1.000  C
  H241     1.0000 0.89440  0.22970  0.89440  Biso   1.000  H
  C626     1.0000 0.86060  0.34150  0.86060  Biso   1.000  C
  H242     1.0000 0.79730  0.43610  0.79730  Biso   1.000  H
  N50      1.0000 0.34810  0.88590  0.34810  Biso   1.000  N
  C627     1.0000 0.38480  0.75800  0.38480  Biso   1.000  C
  H243     1.0000 0.39440  0.72970  0.39440  Biso   1.000  H
  C628     1.0000 0.36060  0.84150  0.36060  Biso   1.000  C
  H244     1.0000 0.29730  0.93610  0.29730  Biso   1.000  H
  N51      1.0000 0.15190  0.61410  0.84810  Biso   1.000  N
  C629     1.0000 0.11520  0.74200  0.88480  Biso   1.000  C
  H245     1.0000 0.10560  0.77030  0.89440  Biso   1.000  H
  C630     1.0000 0.13940  0.65850  0.86060  Biso   1.000  C
  H246     1.0000 0.20270  0.56390  0.79730  Biso   1.000  H
  N52      1.0000 0.65190  0.11410  0.34810  Biso   1.000  N
  C631     1.0000 0.61520  0.24200  0.38480  Biso   1.000  C
  H247     1.0000 0.60560  0.27030  0.39440  Biso   1.000  H
  C632     1.0000 0.63940  0.15850  0.36060  Biso   1.000  C
  H248     1.0000 0.70270  0.06390  0.29730  Biso   1.000  H
  N53      1.0000 0.84810  0.61410  0.15190  Biso   1.000  N
  C633     1.0000 0.88480  0.74200  0.11520  Biso   1.000  C
  H249     1.0000 0.89440  0.77030  0.10560  Biso   1.000  H
  C634     1.0000 0.86060  0.65850  0.13940  Biso   1.000  C
  H250     1.0000 0.79730  0.56390  0.20270  Biso   1.000  H
  N54      1.0000 0.34810  0.11410  0.65190  Biso   1.000  N
  C635     1.0000 0.38480  0.24200  0.61520  Biso   1.000  C
  H251     1.0000 0.39440  0.27030  0.60560  Biso   1.000  H
  C636     1.0000 0.36060  0.15850  0.63940  Biso   1.000  C
  H252     1.0000 0.29730  0.06390  0.70270  Biso   1.000  H
  N55      1.0000 0.15190  0.38590  0.15190  Biso   1.000  N
  C637     1.0000 0.11520  0.25800  0.11520  Biso   1.000  C
  H253     1.0000 0.10560  0.22970  0.10560  Biso   1.000  H
  C638     1.0000 0.13940  0.34150  0.13940  Biso   1.000  C
  H254     1.0000 0.20270  0.43610  0.20270  Biso   1.000  H
  N56      1.0000 0.65190  0.88590  0.65190  Biso   1.000  N
  C639     1.0000 0.61520  0.75800  0.61520  Biso   1.000  C
  H255     1.0000 0.60560  0.72970  0.60560  Biso   1.000  H
  C640     1.0000 0.63940  0.84150  0.63940  Biso   1.000  C
  H256     1.0000 0.70270  0.93610  0.70270  Biso   1.000  H
  N57      1.0000 0.38590  0.15190  0.15190  Biso   1.000  N
  C641     1.0000 0.25800  0.11520  0.11520  Biso   1.000  C
  H257     1.0000 0.22970  0.10560  0.10560  Biso   1.000  H
  C642     1.0000 0.34150  0.13940  0.13940  Biso   1.000  C
  H258     1.0000 0.43610  0.20270  0.20270  Biso   1.000  H
  N58      1.0000 0.88590  0.65190  0.65190  Biso   1.000  N
  C643     1.0000 0.75800  0.61520  0.61520  Biso   1.000  C
  H259     1.0000 0.72970  0.60560  0.60560  Biso   1.000  H
  C644     1.0000 0.84150  0.63940  0.63940  Biso   1.000  C
  H260     1.0000 0.93610  0.70270  0.70270  Biso   1.000  H
  N59      1.0000 0.61410  0.15190  0.84810  Biso   1.000  N
  C645     1.0000 0.74200  0.11520  0.88480  Biso   1.000  C
  H261     1.0000 0.77030  0.10560  0.89440  Biso   1.000  H
  C646     1.0000 0.65850  0.13940  0.86060  Biso   1.000  C
  H262     1.0000 0.56390  0.20270  0.79730  Biso   1.000  H
  N60      1.0000 0.11410  0.65190  0.34810  Biso   1.000  N
  C647     1.0000 0.24200  0.61520  0.38480  Biso   1.000  C
  H263     1.0000 0.27030  0.60560  0.39440  Biso   1.000  H
  C648     1.0000 0.15850  0.63940  0.36060  Biso   1.000  C
  H264     1.0000 0.06390  0.70270  0.29730  Biso   1.000  H
  N61      1.0000 0.61410  0.84810  0.15190  Biso   1.000  N
  C649     1.0000 0.74200  0.88480  0.11520  Biso   1.000  C
  H265     1.0000 0.77030  0.89440  0.10560  Biso   1.000  H
  C650     1.0000 0.65850  0.86060  0.13940  Biso   1.000  C
  H266     1.0000 0.56390  0.79730  0.20270  Biso   1.000  H
  N62      1.0000 0.11410  0.34810  0.65190  Biso   1.000  N
  C651     1.0000 0.24200  0.38480  0.61520  Biso   1.000  C
  H267     1.0000 0.27030  0.39440  0.60560  Biso   1.000  H
  C652     1.0000 0.15850  0.36060  0.63940  Biso   1.000  C
  H268     1.0000 0.06390  0.29730  0.70270  Biso   1.000  H
  N63      1.0000 0.38590  0.84810  0.84810  Biso   1.000  N
  C653     1.0000 0.25800  0.88480  0.88480  Biso   1.000  C
  H269     1.0000 0.22970  0.89440  0.89440  Biso   1.000  H
  C654     1.0000 0.34150  0.86060  0.86060  Biso   1.000  C
  H270     1.0000 0.43610  0.79730  0.79730  Biso   1.000  H
  N64      1.0000 0.88590  0.34810  0.34810  Biso   1.000  N
  C655     1.0000 0.75800  0.38480  0.38480  Biso   1.000  C
  H271     1.0000 0.72970  0.39440  0.39440  Biso   1.000  H
  C656     1.0000 0.84150  0.36060  0.36060  Biso   1.000  C
  H272     1.0000 0.93610  0.29730  0.29730  Biso   1.000  H
  N65      1.0000 0.15190  0.84810  0.61410  Biso   1.000  N
  C657     1.0000 0.11520  0.88480  0.74200  Biso   1.000  C
  H273     1.0000 0.10560  0.89440  0.77030  Biso   1.000  H
  C658     1.0000 0.13940  0.86060  0.65850  Biso   1.000  C
  H274     1.0000 0.20270  0.79730  0.56390  Biso   1.000  H
  N66      1.0000 0.65190  0.34810  0.11410  Biso   1.000  N
  C659     1.0000 0.61520  0.38480  0.24200  Biso   1.000  C
  H275     1.0000 0.60560  0.39440  0.27030  Biso   1.000  H
  C660     1.0000 0.63940  0.36060  0.15850  Biso   1.000  C
  H276     1.0000 0.70270  0.29730  0.06390  Biso   1.000  H
  N67      1.0000 0.15190  0.15190  0.38590  Biso   1.000  N
  C661     1.0000 0.11520  0.11520  0.25800  Biso   1.000  C
  H277     1.0000 0.10560  0.10560  0.22970  Biso   1.000  H
  C662     1.0000 0.13940  0.13940  0.34150  Biso   1.000  C
  H278     1.0000 0.20270  0.20270  0.43610  Biso   1.000  H
  N68      1.0000 0.65190  0.65190  0.88590  Biso   1.000  N
  C663     1.0000 0.61520  0.61520  0.75800  Biso   1.000  C
  H279     1.0000 0.60560  0.60560  0.72970  Biso   1.000  H
  C664     1.0000 0.63940  0.63940  0.84150  Biso   1.000  C
  H280     1.0000 0.70270  0.70270  0.93610  Biso   1.000  H
  N69      1.0000 0.84810  0.84810  0.38590  Biso   1.000  N
  C665     1.0000 0.88480  0.88480  0.25800  Biso   1.000  C
  H281     1.0000 0.89440  0.89440  0.22970  Biso   1.000  H
  C666     1.0000 0.86060  0.86060  0.34150  Biso   1.000  C
  H282     1.0000 0.79730  0.79730  0.43610  Biso   1.000  H
  N70      1.0000 0.34810  0.34810  0.88590  Biso   1.000  N
  C667     1.0000 0.38480  0.38480  0.75800  Biso   1.000  C
  H283     1.0000 0.39440  0.39440  0.72970  Biso   1.000  H
  C668     1.0000 0.36060  0.36060  0.84150  Biso   1.000  C
  H284     1.0000 0.29730  0.29730  0.93610  Biso   1.000  H
  N71      1.0000 0.84810  0.15190  0.61410  Biso   1.000  N
  C669     1.0000 0.88480  0.11520  0.74200  Biso   1.000  C
  H285     1.0000 0.89440  0.10560  0.77030  Biso   1.000  H
  C670     1.0000 0.86060  0.13940  0.65850  Biso   1.000  C
  H286     1.0000 0.79730  0.20270  0.56390  Biso   1.000  H
  N72      1.0000 0.34810  0.65190  0.11410  Biso   1.000  N
  C671     1.0000 0.38480  0.61520  0.24200  Biso   1.000  C
  H287     1.0000 0.39440  0.60560  0.27030  Biso   1.000  H
  C672     1.0000 0.36060  0.63940  0.15850  Biso   1.000  C
  H288     1.0000 0.29730  0.70270  0.06390  Biso   1.000  H
  C673     1.0000 0.50000  0.83640  0.12380  Biso   1.000  C
  H289     1.0000 0.50000  0.84920  0.09510  Biso   1.000  H
  C674     1.0000 0.00000  0.33640  0.62380  Biso   1.000  C
  H290     1.0000 0.00000  0.34920  0.59510  Biso   1.000  H
  C675     1.0000 0.50000  0.16360  0.12380  Biso   1.000  C
  H291     1.0000 0.50000  0.15080  0.09510  Biso   1.000  H
  C676     1.0000 0.00000  0.66360  0.62380  Biso   1.000  C
  H292     1.0000 0.00000  0.65080  0.59510  Biso   1.000  H
  C677     1.0000 0.50000  0.83640  0.87620  Biso   1.000  C
  H293     1.0000 0.50000  0.84920  0.90490  Biso   1.000  H
  C678     1.0000 0.00000  0.33640  0.37620  Biso   1.000  C
  H294     1.0000 0.00000  0.34920  0.40490  Biso   1.000  H
  C679     1.0000 0.50000  0.16360  0.87620  Biso   1.000  C
  H295     1.0000 0.50000  0.15080  0.90490  Biso   1.000  H
  C680     1.0000 0.00000  0.66360  0.37620  Biso   1.000  C
  H296     1.0000 0.00000  0.65080  0.40490  Biso   1.000  H
  C681     1.0000 0.12380  0.50000  0.83640  Biso   1.000  C
  H297     1.0000 0.09510  0.50000  0.84920  Biso   1.000  H
  C682     1.0000 0.62380  0.00000  0.33640  Biso   1.000  C
  H298     1.0000 0.59510  0.00000  0.34920  Biso   1.000  H
  C683     1.0000 0.12380  0.50000  0.16360  Biso   1.000  C
  H299     1.0000 0.09510  0.50000  0.15080  Biso   1.000  H
  C684     1.0000 0.62380  0.00000  0.66360  Biso   1.000  C
  H300     1.0000 0.59510  0.00000  0.65080  Biso   1.000  H
  C685     1.0000 0.87620  0.50000  0.83640  Biso   1.000  C
  H301     1.0000 0.90490  0.50000  0.84920  Biso   1.000  H
  C686     1.0000 0.37620  0.00000  0.33640  Biso   1.000  C
  H302     1.0000 0.40490  0.00000  0.34920  Biso   1.000  H
  C687     1.0000 0.87620  0.50000  0.16360  Biso   1.000  C
  H303     1.0000 0.90490  0.50000  0.15080  Biso   1.000  H
  C688     1.0000 0.37620  0.00000  0.66360  Biso   1.000  C
  H304     1.0000 0.40490  0.00000  0.65080  Biso   1.000  H
  C689     1.0000 0.83640  0.12380  0.50000  Biso   1.000  C
  H305     1.0000 0.84920  0.09510  0.50000  Biso   1.000  H
  C690     1.0000 0.33640  0.62380  0.00000  Biso   1.000  C
  H306     1.0000 0.34920  0.59510  0.00000  Biso   1.000  H
  C691     1.0000 0.16360  0.12380  0.50000  Biso   1.000  C
  H307     1.0000 0.15080  0.09510  0.50000  Biso   1.000  H
  C692     1.0000 0.66360  0.62380  0.00000  Biso   1.000  C
  H308     1.0000 0.65080  0.59510  0.00000  Biso   1.000  H
  C693     1.0000 0.83640  0.87620  0.50000  Biso   1.000  C
  H309     1.0000 0.84920  0.90490  0.50000  Biso   1.000  H
  C694     1.0000 0.33640  0.37620  0.00000  Biso   1.000  C
  H310     1.0000 0.34920  0.40490  0.00000  Biso   1.000  H
  C695     1.0000 0.16360  0.87620  0.50000  Biso   1.000  C
  H311     1.0000 0.15080  0.90490  0.50000  Biso   1.000  H
  C696     1.0000 0.66360  0.37620  0.00000  Biso   1.000  C
  H312     1.0000 0.65080  0.40490  0.00000  Biso   1.000  H
  C697     1.0000 0.83640  0.50000  0.87620  Biso   1.000  C
  H313     1.0000 0.84920  0.50000  0.90490  Biso   1.000  H
  C698     1.0000 0.33640  0.00000  0.37620  Biso   1.000  C
  H314     1.0000 0.34920  0.00000  0.40490  Biso   1.000  H
  C699     1.0000 0.16360  0.50000  0.87620  Biso   1.000  C
  H315     1.0000 0.15080  0.50000  0.90490  Biso   1.000  H
  C700     1.0000 0.66360  0.00000  0.37620  Biso   1.000  C
  H316     1.0000 0.65080  0.00000  0.40490  Biso   1.000  H
  C701     1.0000 0.83640  0.50000  0.12380  Biso   1.000  C
  H317     1.0000 0.84920  0.50000  0.09510  Biso   1.000  H
  C702     1.0000 0.33640  0.00000  0.62380  Biso   1.000  C
  H318     1.0000 0.34920  0.00000  0.59510  Biso   1.000  H
  C703     1.0000 0.16360  0.50000  0.12380  Biso   1.000  C
  H319     1.0000 0.15080  0.50000  0.09510  Biso   1.000  H
  C704     1.0000 0.66360  0.00000  0.62380  Biso   1.000  C
  H320     1.0000 0.65080  0.00000  0.59510  Biso   1.000  H
  C705     1.0000 0.50000  0.12380  0.16360  Biso   1.000  C
  H321     1.0000 0.50000  0.09510  0.15080  Biso   1.000  H
  C706     1.0000 0.00000  0.62380  0.66360  Biso   1.000  C
  H322     1.0000 0.00000  0.59510  0.65080  Biso   1.000  H
  C707     1.0000 0.50000  0.12380  0.83640  Biso   1.000  C
  H323     1.0000 0.50000  0.09510  0.84920  Biso   1.000  H
  C708     1.0000 0.00000  0.62380  0.33640  Biso   1.000  C
  H324     1.0000 0.00000  0.59510  0.34920  Biso   1.000  H
  C709     1.0000 0.50000  0.87620  0.16360  Biso   1.000  C
  H325     1.0000 0.50000  0.90490  0.15080  Biso   1.000  H
  C710     1.0000 0.00000  0.37620  0.66360  Biso   1.000  C
  H326     1.0000 0.00000  0.40490  0.65080  Biso   1.000  H
  C711     1.0000 0.50000  0.87620  0.83640  Biso   1.000  C
  H327     1.0000 0.50000  0.90490  0.84920  Biso   1.000  H
  C712     1.0000 0.00000  0.37620  0.33640  Biso   1.000  C
  H328     1.0000 0.00000  0.40490  0.34920  Biso   1.000  H
  C713     1.0000 0.12380  0.83640  0.50000  Biso   1.000  C
  H329     1.0000 0.09510  0.84920  0.50000  Biso   1.000  H
  C714     1.0000 0.62380  0.33640  0.00000  Biso   1.000  C
  H330     1.0000 0.59510  0.34920  0.00000  Biso   1.000  H
  C715     1.0000 0.12380  0.16360  0.50000  Biso   1.000  C
  H331     1.0000 0.09510  0.15080  0.50000  Biso   1.000  H
  C716     1.0000 0.62380  0.66360  0.00000  Biso   1.000  C
  H332     1.0000 0.59510  0.65080  0.00000  Biso   1.000  H
  C717     1.0000 0.87620  0.83640  0.50000  Biso   1.000  C
  H333     1.0000 0.90490  0.84920  0.50000  Biso   1.000  H
  C718     1.0000 0.37620  0.33640  0.00000  Biso   1.000  C
  H334     1.0000 0.40490  0.34920  0.00000  Biso   1.000  H
  C719     1.0000 0.87620  0.16360  0.50000  Biso   1.000  C
  H335     1.0000 0.90490  0.15080  0.50000  Biso   1.000  H
  C720     1.0000 0.37620  0.66360  0.00000  Biso   1.000  C
  H336     1.0000 0.40490  0.65080  0.00000  Biso   1.000  H
