data_image0
_cell_length_a       26.1514
_cell_length_b       31.9344
_cell_length_c       22.1932
_cell_angle_alpha    90
_cell_angle_beta     90
_cell_angle_gamma    90

_symmetry_space_group_name_H-M    "P 1"
_symmetry_int_tables_number       1

loop_
  _symmetry_equiv_pos_as_xyz
  'x, y, z'

loop_
  _atom_site_label
  _atom_site_occupancy
  _atom_site_fract_x
  _atom_site_fract_y
  _atom_site_fract_z
  _atom_site_thermal_displace_type
  _atom_site_B_iso_or_equiv
  _atom_site_type_symbol
  Cd1      1.0000 0.13780  0.87438  0.80880  Biso   1.000  Cd
  Cd2      1.0000 0.88543  0.87781  0.33049  Biso   1.000  Cd
  O1       1.0000 0.13670  0.81321  0.87100  Biso   1.000  O
  O2       1.0000 0.20200  0.81677  0.80940  Biso   1.000  O
  O3       1.0000 0.32120  0.64917  0.88440  Biso   1.000  O
  O4       1.0000 0.33400  0.69920  0.81820  Biso   1.000  O
  O5       1.0000 0.14300  0.71880  0.04150  Biso   1.000  O
  O6       1.0000 0.20310  0.67220  0.04920  Biso   1.000  O
  N1       1.0000 0.09350  0.83944  0.73350  Biso   1.000  N
  N2       1.0000 0.93780  0.84678  0.40140  Biso   1.000  N
  N3       1.0000 0.18820  0.90530  0.88210  Biso   1.000  N
  N4       1.0000 0.32390  0.90851  0.22970  Biso   1.000  N
  N5       1.0000 0.18120  0.70100  0.02240  Biso   1.000  N
  C1       1.0000 0.09710  0.79790  0.72850  Biso   1.000  C
  H1       1.0000 0.12070  0.78330  0.75320  Biso   1.000  H
  C2       1.0000 0.06750  0.77580  0.68860  Biso   1.000  C
  H2       1.0000 0.06920  0.74610  0.68780  Biso   1.000  H
  C3       1.0000 0.03800  0.84020  0.64910  Biso   1.000  C
  H3       1.0000 0.02000  0.85660  0.62030  Biso   1.000  H
  C4       1.0000 0.06800  0.85950  0.69170  Biso   1.000  C
  H4       1.0000 0.07040  0.88920  0.69080  Biso   1.000  H
  C5       1.0000 0.03400  0.79720  0.64820  Biso   1.000  C
  C6       1.0000 0.99960  0.77460  0.60550  Biso   1.000  C
  H5       1.0000 0.96370  0.78450  0.61140  Biso   1.000  H
  C7       1.0000 0.01160  0.77260  0.53690  Biso   1.000  C
  H6       1.0000 0.04940  0.77130  0.53030  Biso   1.000  H
  C8       1.0000 0.98790  0.80220  0.49280  Biso   1.000  C
  C9       1.0000 0.00630  0.80320  0.43370  Biso   1.000  C
  H7       1.0000 0.03680  0.78860  0.42360  Biso   1.000  H
  C10      1.0000 0.98030  0.82540  0.39010  Biso   1.000  C
  H8       1.0000 0.99350  0.82550  0.35020  Biso   1.000  H
  C11      1.0000 0.92080  0.84660  0.45910  Biso   1.000  C
  H9       1.0000 0.89070  0.86190  0.46820  Biso   1.000  H
  C12      1.0000 0.94430  0.82560  0.50510  Biso   1.000  C
  H10      1.0000 0.93100  0.82700  0.54490  Biso   1.000  H
  C13      1.0000 0.16810  0.90820  0.93790  Biso   1.000  C
  H11      1.0000 0.13610  0.89500  0.94500  Biso   1.000  H
  C14      1.0000 0.19050  0.92850  0.98440  Biso   1.000  C
  H12      1.0000 0.17450  0.92920  0.02280  Biso   1.000  H
  C15      1.0000 0.23780  0.94840  0.97530  Biso   1.000  C
  C16      1.0000 0.25980  0.94390  0.91890  Biso   1.000  C
  H13      1.0000 0.29250  0.95570  0.91080  Biso   1.000  H
  C17      1.0000 0.23410  0.92210  0.87460  Biso   1.000  C
  H14      1.0000 0.25020  0.91900  0.83650  Biso   1.000  H
  C18      1.0000 0.26090  0.97710  0.02080  Biso   1.000  C
  H15      1.0000 0.29880  0.97790  0.01530  Biso   1.000  H
  C19      1.0000 0.24810  0.97560  0.08880  Biso   1.000  C
  H16      1.0000 0.21130  0.96770  0.09320  Biso   1.000  H
  C20      1.0000 0.27820  0.95190  0.13460  Biso   1.000  C
  C21      1.0000 0.28000  0.90920  0.13480  Biso   1.000  C
  H17      1.0000 0.26660  0.89380  0.10170  Biso   1.000  H
  C22      1.0000 0.30150  0.88840  0.18330  Biso   1.000  C
  H18      1.0000 0.30040  0.85860  0.18400  Biso   1.000  H
  C23      1.0000 0.32070  0.95120  0.22980  Biso   1.000  C
  H19      1.0000 0.33330  0.96580  0.26400  Biso   1.000  H
  C24      1.0000 0.30040  0.97400  0.18360  Biso   1.000  C
  H20      1.0000 0.30100  0.00370  0.18420  Biso   1.000  H
  C25      1.0000 0.17920  0.80020  0.85220  Biso   1.000  C
  C26      1.0000 0.20260  0.76260  0.88320  Biso   1.000  C
  C27      1.0000 0.24480  0.74230  0.85930  Biso   1.000  C
  H21      1.0000 0.25990  0.75250  0.82320  Biso   1.000  H
  C28      1.0000 0.26530  0.70750  0.88730  Biso   1.000  C
  C29      1.0000 0.31040  0.68410  0.86210  Biso   1.000  C
  C30      1.0000 0.24490  0.69420  0.94210  Biso   1.000  C
  H22      1.0000 0.25950  0.67100  0.96270  Biso   1.000  H
  C31      1.0000 0.20310  0.71500  0.96600  Biso   1.000  C
  C32      1.0000 0.18160  0.74930  0.93720  Biso   1.000  C
  H23      1.0000 0.15300  0.76340  0.95420  Biso   1.000  H
  C33      1.0000 0.10930  0.80600  0.70500  Biso   1.000  C
  H24      1.0000 0.14260  0.79600  0.71420  Biso   1.000  H
  C34      1.0000 0.08180  0.78440  0.66320  Biso   1.000  C
  H25      1.0000 0.09600  0.76040  0.64450  Biso   1.000  H
  C35      1.0000 0.01250  0.83120  0.67830  Biso   1.000  C
  H26      1.0000 0.97830  0.83970  0.67050  Biso   1.000  H
  C36      1.0000 0.04170  0.85200  0.71920  Biso   1.000  C
  H27      1.0000 0.02760  0.87560  0.73920  Biso   1.000  H
  C37      1.0000 0.26500  0.91030  0.14890  Biso   1.000  C
  H28      1.0000 0.24000  0.89570  0.12600  Biso   1.000  H
  C38      1.0000 0.28860  0.89180  0.19560  Biso   1.000  C
  H29      1.0000 0.27860  0.86400  0.20470  Biso   1.000  H
  C39      1.0000 0.34360  0.94640  0.20660  Biso   1.000  C
  H30      1.0000 0.37410  0.95740  0.22370  Biso   1.000  H
  C40      1.0000 0.32140  0.96740  0.16180  Biso   1.000  C
  H31      1.0000 0.33550  0.99320  0.14870  Biso   1.000  H
  Cd3      1.0000 0.63780  0.37438  0.80880  Biso   1.000  Cd
  Cd4      1.0000 0.38543  0.37781  0.33049  Biso   1.000  Cd
  O7       1.0000 0.63670  0.31321  0.87100  Biso   1.000  O
  O8       1.0000 0.70200  0.31677  0.80940  Biso   1.000  O
  O9       1.0000 0.82120  0.14917  0.88440  Biso   1.000  O
  O10      1.0000 0.83400  0.19920  0.81820  Biso   1.000  O
  O11      1.0000 0.64300  0.21880  0.04150  Biso   1.000  O
  O12      1.0000 0.70310  0.17220  0.04920  Biso   1.000  O
  N6       1.0000 0.59350  0.33944  0.73350  Biso   1.000  N
  N7       1.0000 0.43780  0.34678  0.40140  Biso   1.000  N
  N8       1.0000 0.68820  0.40530  0.88210  Biso   1.000  N
  N9       1.0000 0.82390  0.40851  0.22970  Biso   1.000  N
  N10      1.0000 0.68120  0.20100  0.02240  Biso   1.000  N
  C41      1.0000 0.59710  0.29790  0.72850  Biso   1.000  C
  H32      1.0000 0.62070  0.28330  0.75320  Biso   1.000  H
  C42      1.0000 0.56750  0.27580  0.68860  Biso   1.000  C
  H33      1.0000 0.56920  0.24610  0.68780  Biso   1.000  H
  C43      1.0000 0.53800  0.34020  0.64910  Biso   1.000  C
  H34      1.0000 0.52000  0.35660  0.62030  Biso   1.000  H
  C44      1.0000 0.56800  0.35950  0.69170  Biso   1.000  C
  H35      1.0000 0.57040  0.38920  0.69080  Biso   1.000  H
  C45      1.0000 0.53400  0.29720  0.64820  Biso   1.000  C
  C46      1.0000 0.49960  0.27460  0.60550  Biso   1.000  C
  H36      1.0000 0.46370  0.28450  0.61140  Biso   1.000  H
  C47      1.0000 0.51160  0.27260  0.53690  Biso   1.000  C
  H37      1.0000 0.54940  0.27130  0.53030  Biso   1.000  H
  C48      1.0000 0.48790  0.30220  0.49280  Biso   1.000  C
  C49      1.0000 0.50630  0.30320  0.43370  Biso   1.000  C
  H38      1.0000 0.53680  0.28860  0.42360  Biso   1.000  H
  C50      1.0000 0.48030  0.32540  0.39010  Biso   1.000  C
  H39      1.0000 0.49350  0.32550  0.35020  Biso   1.000  H
  C51      1.0000 0.42080  0.34660  0.45910  Biso   1.000  C
  H40      1.0000 0.39070  0.36190  0.46820  Biso   1.000  H
  C52      1.0000 0.44430  0.32560  0.50510  Biso   1.000  C
  H41      1.0000 0.43100  0.32700  0.54490  Biso   1.000  H
  C53      1.0000 0.66810  0.40820  0.93790  Biso   1.000  C
  H42      1.0000 0.63610  0.39500  0.94500  Biso   1.000  H
  C54      1.0000 0.69050  0.42850  0.98440  Biso   1.000  C
  H43      1.0000 0.67450  0.42920  0.02280  Biso   1.000  H
  C55      1.0000 0.73780  0.44840  0.97530  Biso   1.000  C
  C56      1.0000 0.75980  0.44390  0.91890  Biso   1.000  C
  H44      1.0000 0.79250  0.45570  0.91080  Biso   1.000  H
  C57      1.0000 0.73410  0.42210  0.87460  Biso   1.000  C
  H45      1.0000 0.75020  0.41900  0.83650  Biso   1.000  H
  C58      1.0000 0.76090  0.47710  0.02080  Biso   1.000  C
  H46      1.0000 0.79880  0.47790  0.01530  Biso   1.000  H
  C59      1.0000 0.74810  0.47560  0.08880  Biso   1.000  C
  H47      1.0000 0.71130  0.46770  0.09320  Biso   1.000  H
  C60      1.0000 0.77820  0.45190  0.13460  Biso   1.000  C
  C61      1.0000 0.78000  0.40920  0.13480  Biso   1.000  C
  H48      1.0000 0.76660  0.39380  0.10170  Biso   1.000  H
  C62      1.0000 0.80150  0.38840  0.18330  Biso   1.000  C
  H49      1.0000 0.80040  0.35860  0.18400  Biso   1.000  H
  C63      1.0000 0.82070  0.45120  0.22980  Biso   1.000  C
  H50      1.0000 0.83330  0.46580  0.26400  Biso   1.000  H
  C64      1.0000 0.80040  0.47400  0.18360  Biso   1.000  C
  H51      1.0000 0.80100  0.50370  0.18420  Biso   1.000  H
  C65      1.0000 0.67920  0.30020  0.85220  Biso   1.000  C
  C66      1.0000 0.70260  0.26260  0.88320  Biso   1.000  C
  C67      1.0000 0.74480  0.24230  0.85930  Biso   1.000  C
  H52      1.0000 0.75990  0.25250  0.82320  Biso   1.000  H
  C68      1.0000 0.76530  0.20750  0.88730  Biso   1.000  C
  C69      1.0000 0.81040  0.18410  0.86210  Biso   1.000  C
  C70      1.0000 0.74490  0.19420  0.94210  Biso   1.000  C
  H53      1.0000 0.75950  0.17100  0.96270  Biso   1.000  H
  C71      1.0000 0.70310  0.21500  0.96600  Biso   1.000  C
  C72      1.0000 0.68160  0.24930  0.93720  Biso   1.000  C
  H54      1.0000 0.65300  0.26340  0.95420  Biso   1.000  H
  C73      1.0000 0.60930  0.30600  0.70500  Biso   1.000  C
  H55      1.0000 0.64260  0.29600  0.71420  Biso   1.000  H
  C74      1.0000 0.58180  0.28440  0.66320  Biso   1.000  C
  H56      1.0000 0.59600  0.26040  0.64450  Biso   1.000  H
  C75      1.0000 0.51250  0.33120  0.67830  Biso   1.000  C
  H57      1.0000 0.47830  0.33970  0.67050  Biso   1.000  H
  C76      1.0000 0.54170  0.35200  0.71920  Biso   1.000  C
  H58      1.0000 0.52760  0.37560  0.73920  Biso   1.000  H
  C77      1.0000 0.76500  0.41030  0.14890  Biso   1.000  C
  H59      1.0000 0.74000  0.39570  0.12600  Biso   1.000  H
  C78      1.0000 0.78860  0.39180  0.19560  Biso   1.000  C
  H60      1.0000 0.77860  0.36400  0.20470  Biso   1.000  H
  C79      1.0000 0.84360  0.44640  0.20660  Biso   1.000  C
  H61      1.0000 0.87410  0.45740  0.22370  Biso   1.000  H
  C80      1.0000 0.82140  0.46740  0.16180  Biso   1.000  C
  H62      1.0000 0.83550  0.49320  0.14870  Biso   1.000  H
  Cd5      1.0000 0.36220  0.12562  0.80880  Biso   1.000  Cd
  Cd6      1.0000 0.61457  0.12219  0.33049  Biso   1.000  Cd
  O13      1.0000 0.36330  0.18679  0.87100  Biso   1.000  O
  O14      1.0000 0.29800  0.18323  0.80940  Biso   1.000  O
  O15      1.0000 0.17880  0.35083  0.88440  Biso   1.000  O
  O16      1.0000 0.16600  0.30080  0.81820  Biso   1.000  O
  O17      1.0000 0.35700  0.28120  0.04150  Biso   1.000  O
  O18      1.0000 0.29690  0.32780  0.04920  Biso   1.000  O
  N11      1.0000 0.40650  0.16056  0.73350  Biso   1.000  N
  N12      1.0000 0.56220  0.15322  0.40140  Biso   1.000  N
  N13      1.0000 0.31180  0.09470  0.88210  Biso   1.000  N
  N14      1.0000 0.17610  0.09149  0.22970  Biso   1.000  N
  N15      1.0000 0.31880  0.29900  0.02240  Biso   1.000  N
  C81      1.0000 0.40290  0.20210  0.72850  Biso   1.000  C
  H63      1.0000 0.37930  0.21670  0.75320  Biso   1.000  H
  C82      1.0000 0.43250  0.22420  0.68860  Biso   1.000  C
  H64      1.0000 0.43080  0.25390  0.68780  Biso   1.000  H
  C83      1.0000 0.46200  0.15980  0.64910  Biso   1.000  C
  H65      1.0000 0.48000  0.14340  0.62030  Biso   1.000  H
  C84      1.0000 0.43200  0.14050  0.69170  Biso   1.000  C
  H66      1.0000 0.42960  0.11080  0.69080  Biso   1.000  H
  C85      1.0000 0.46600  0.20280  0.64820  Biso   1.000  C
  C86      1.0000 0.50040  0.22540  0.60550  Biso   1.000  C
  H67      1.0000 0.53630  0.21550  0.61140  Biso   1.000  H
  C87      1.0000 0.48840  0.22740  0.53690  Biso   1.000  C
  H68      1.0000 0.45060  0.22870  0.53030  Biso   1.000  H
  C88      1.0000 0.51210  0.19780  0.49280  Biso   1.000  C
  C89      1.0000 0.49370  0.19680  0.43370  Biso   1.000  C
  H69      1.0000 0.46320  0.21140  0.42360  Biso   1.000  H
  C90      1.0000 0.51970  0.17460  0.39010  Biso   1.000  C
  H70      1.0000 0.50650  0.17450  0.35020  Biso   1.000  H
  C91      1.0000 0.57920  0.15340  0.45910  Biso   1.000  C
  H71      1.0000 0.60930  0.13810  0.46820  Biso   1.000  H
  C92      1.0000 0.55570  0.17440  0.50510  Biso   1.000  C
  H72      1.0000 0.56900  0.17300  0.54490  Biso   1.000  H
  C93      1.0000 0.33190  0.09180  0.93790  Biso   1.000  C
  H73      1.0000 0.36390  0.10500  0.94500  Biso   1.000  H
  C94      1.0000 0.30950  0.07150  0.98440  Biso   1.000  C
  H74      1.0000 0.32550  0.07080  0.02280  Biso   1.000  H
  C95      1.0000 0.26220  0.05160  0.97530  Biso   1.000  C
  C96      1.0000 0.24020  0.05610  0.91890  Biso   1.000  C
  H75      1.0000 0.20750  0.04430  0.91080  Biso   1.000  H
  C97      1.0000 0.26590  0.07790  0.87460  Biso   1.000  C
  H76      1.0000 0.24980  0.08100  0.83650  Biso   1.000  H
  C98      1.0000 0.23910  0.02290  0.02080  Biso   1.000  C
  H77      1.0000 0.20120  0.02210  0.01530  Biso   1.000  H
  C99      1.0000 0.25190  0.02440  0.08880  Biso   1.000  C
  H78      1.0000 0.28870  0.03230  0.09320  Biso   1.000  H
  C100     1.0000 0.22180  0.04810  0.13460  Biso   1.000  C
  C101     1.0000 0.22000  0.09080  0.13480  Biso   1.000  C
  H79      1.0000 0.23340  0.10620  0.10170  Biso   1.000  H
  C102     1.0000 0.19850  0.11160  0.18330  Biso   1.000  C
  H80      1.0000 0.19960  0.14140  0.18400  Biso   1.000  H
  C103     1.0000 0.17930  0.04880  0.22980  Biso   1.000  C
  H81      1.0000 0.16670  0.03420  0.26400  Biso   1.000  H
  C104     1.0000 0.19960  0.02600  0.18360  Biso   1.000  C
  H82      1.0000 0.19900  0.99630  0.18420  Biso   1.000  H
  C105     1.0000 0.32080  0.19980  0.85220  Biso   1.000  C
  C106     1.0000 0.29740  0.23740  0.88320  Biso   1.000  C
  C107     1.0000 0.25520  0.25770  0.85930  Biso   1.000  C
  H83      1.0000 0.24010  0.24750  0.82320  Biso   1.000  H
  C108     1.0000 0.23470  0.29250  0.88730  Biso   1.000  C
  C109     1.0000 0.18960  0.31590  0.86210  Biso   1.000  C
  C110     1.0000 0.25510  0.30580  0.94210  Biso   1.000  C
  H84      1.0000 0.24050  0.32900  0.96270  Biso   1.000  H
  C111     1.0000 0.29690  0.28500  0.96600  Biso   1.000  C
  C112     1.0000 0.31840  0.25070  0.93720  Biso   1.000  C
  H85      1.0000 0.34700  0.23660  0.95420  Biso   1.000  H
  C113     1.0000 0.39070  0.19400  0.70500  Biso   1.000  C
  H86      1.0000 0.35740  0.20400  0.71420  Biso   1.000  H
  C114     1.0000 0.41820  0.21560  0.66320  Biso   1.000  C
  H87      1.0000 0.40400  0.23960  0.64450  Biso   1.000  H
  C115     1.0000 0.48750  0.16880  0.67830  Biso   1.000  C
  H88      1.0000 0.52170  0.16030  0.67050  Biso   1.000  H
  C116     1.0000 0.45830  0.14800  0.71920  Biso   1.000  C
  H89      1.0000 0.47240  0.12440  0.73920  Biso   1.000  H
  C117     1.0000 0.23500  0.08970  0.14890  Biso   1.000  C
  H90      1.0000 0.26000  0.10430  0.12600  Biso   1.000  H
  C118     1.0000 0.21140  0.10820  0.19560  Biso   1.000  C
  H91      1.0000 0.22140  0.13600  0.20470  Biso   1.000  H
  C119     1.0000 0.15640  0.05360  0.20660  Biso   1.000  C
  H92      1.0000 0.12590  0.04260  0.22370  Biso   1.000  H
  C120     1.0000 0.17860  0.03260  0.16180  Biso   1.000  C
  H93      1.0000 0.16450  0.00680  0.14870  Biso   1.000  H
  Cd7      1.0000 0.86220  0.62562  0.80880  Biso   1.000  Cd
  Cd8      1.0000 0.11457  0.62219  0.33049  Biso   1.000  Cd
  O19      1.0000 0.86330  0.68679  0.87100  Biso   1.000  O
  O20      1.0000 0.79800  0.68323  0.80940  Biso   1.000  O
  O21      1.0000 0.67880  0.85083  0.88440  Biso   1.000  O
  O22      1.0000 0.66600  0.80080  0.81820  Biso   1.000  O
  O23      1.0000 0.85700  0.78120  0.04150  Biso   1.000  O
  O24      1.0000 0.79690  0.82780  0.04920  Biso   1.000  O
  N16      1.0000 0.90650  0.66056  0.73350  Biso   1.000  N
  N17      1.0000 0.06220  0.65322  0.40140  Biso   1.000  N
  N18      1.0000 0.81180  0.59470  0.88210  Biso   1.000  N
  N19      1.0000 0.67610  0.59149  0.22970  Biso   1.000  N
  N20      1.0000 0.81880  0.79900  0.02240  Biso   1.000  N
  C121     1.0000 0.90290  0.70210  0.72850  Biso   1.000  C
  H94      1.0000 0.87930  0.71670  0.75320  Biso   1.000  H
  C122     1.0000 0.93250  0.72420  0.68860  Biso   1.000  C
  H95      1.0000 0.93080  0.75390  0.68780  Biso   1.000  H
  C123     1.0000 0.96200  0.65980  0.64910  Biso   1.000  C
  H96      1.0000 0.98000  0.64340  0.62030  Biso   1.000  H
  C124     1.0000 0.93200  0.64050  0.69170  Biso   1.000  C
  H97      1.0000 0.92960  0.61080  0.69080  Biso   1.000  H
  C125     1.0000 0.96600  0.70280  0.64820  Biso   1.000  C
  C126     1.0000 0.00040  0.72540  0.60550  Biso   1.000  C
  H98      1.0000 0.03630  0.71550  0.61140  Biso   1.000  H
  C127     1.0000 0.98840  0.72740  0.53690  Biso   1.000  C
  H99      1.0000 0.95060  0.72870  0.53030  Biso   1.000  H
  C128     1.0000 0.01210  0.69780  0.49280  Biso   1.000  C
  C129     1.0000 0.99370  0.69680  0.43370  Biso   1.000  C
  H100     1.0000 0.96320  0.71140  0.42360  Biso   1.000  H
  C130     1.0000 0.01970  0.67460  0.39010  Biso   1.000  C
  H101     1.0000 0.00650  0.67450  0.35020  Biso   1.000  H
  C131     1.0000 0.07920  0.65340  0.45910  Biso   1.000  C
  H102     1.0000 0.10930  0.63810  0.46820  Biso   1.000  H
  C132     1.0000 0.05570  0.67440  0.50510  Biso   1.000  C
  H103     1.0000 0.06900  0.67300  0.54490  Biso   1.000  H
  C133     1.0000 0.83190  0.59180  0.93790  Biso   1.000  C
  H104     1.0000 0.86390  0.60500  0.94500  Biso   1.000  H
  C134     1.0000 0.80950  0.57150  0.98440  Biso   1.000  C
  H105     1.0000 0.82550  0.57080  0.02280  Biso   1.000  H
  C135     1.0000 0.76220  0.55160  0.97530  Biso   1.000  C
  C136     1.0000 0.74020  0.55610  0.91890  Biso   1.000  C
  H106     1.0000 0.70750  0.54430  0.91080  Biso   1.000  H
  C137     1.0000 0.76590  0.57790  0.87460  Biso   1.000  C
  H107     1.0000 0.74980  0.58100  0.83650  Biso   1.000  H
  C138     1.0000 0.73910  0.52290  0.02080  Biso   1.000  C
  H108     1.0000 0.70120  0.52210  0.01530  Biso   1.000  H
  C139     1.0000 0.75190  0.52440  0.08880  Biso   1.000  C
  H109     1.0000 0.78870  0.53230  0.09320  Biso   1.000  H
  C140     1.0000 0.72180  0.54810  0.13460  Biso   1.000  C
  C141     1.0000 0.72000  0.59080  0.13480  Biso   1.000  C
  H110     1.0000 0.73340  0.60620  0.10170  Biso   1.000  H
  C142     1.0000 0.69850  0.61160  0.18330  Biso   1.000  C
  H111     1.0000 0.69960  0.64140  0.18400  Biso   1.000  H
  C143     1.0000 0.67930  0.54880  0.22980  Biso   1.000  C
  H112     1.0000 0.66670  0.53420  0.26400  Biso   1.000  H
  C144     1.0000 0.69960  0.52600  0.18360  Biso   1.000  C
  H113     1.0000 0.69900  0.49630  0.18420  Biso   1.000  H
  C145     1.0000 0.82080  0.69980  0.85220  Biso   1.000  C
  C146     1.0000 0.79740  0.73740  0.88320  Biso   1.000  C
  C147     1.0000 0.75520  0.75770  0.85930  Biso   1.000  C
  H114     1.0000 0.74010  0.74750  0.82320  Biso   1.000  H
  C148     1.0000 0.73470  0.79250  0.88730  Biso   1.000  C
  C149     1.0000 0.68960  0.81590  0.86210  Biso   1.000  C
  C150     1.0000 0.75510  0.80580  0.94210  Biso   1.000  C
  H115     1.0000 0.74050  0.82900  0.96270  Biso   1.000  H
  C151     1.0000 0.79690  0.78500  0.96600  Biso   1.000  C
  C152     1.0000 0.81840  0.75070  0.93720  Biso   1.000  C
  H116     1.0000 0.84700  0.73660  0.95420  Biso   1.000  H
  C153     1.0000 0.89070  0.69400  0.70500  Biso   1.000  C
  H117     1.0000 0.85740  0.70400  0.71420  Biso   1.000  H
  C154     1.0000 0.91820  0.71560  0.66320  Biso   1.000  C
  H118     1.0000 0.90400  0.73960  0.64450  Biso   1.000  H
  C155     1.0000 0.98750  0.66880  0.67830  Biso   1.000  C
  H119     1.0000 0.02170  0.66030  0.67050  Biso   1.000  H
  C156     1.0000 0.95830  0.64800  0.71920  Biso   1.000  C
  H120     1.0000 0.97240  0.62440  0.73920  Biso   1.000  H
  C157     1.0000 0.73500  0.58970  0.14890  Biso   1.000  C
  H121     1.0000 0.76000  0.60430  0.12600  Biso   1.000  H
  C158     1.0000 0.71140  0.60820  0.19560  Biso   1.000  C
  H122     1.0000 0.72140  0.63600  0.20470  Biso   1.000  H
  C159     1.0000 0.65640  0.55360  0.20660  Biso   1.000  C
  H123     1.0000 0.62590  0.54260  0.22370  Biso   1.000  H
  C160     1.0000 0.67860  0.53260  0.16180  Biso   1.000  C
  H124     1.0000 0.66450  0.50680  0.14870  Biso   1.000  H
  Cd9      1.0000 0.13780  0.12562  0.30880  Biso   1.000  Cd
  Cd10     1.0000 0.88543  0.12219  0.83049  Biso   1.000  Cd
  O25      1.0000 0.13670  0.18679  0.37100  Biso   1.000  O
  O26      1.0000 0.20200  0.18323  0.30940  Biso   1.000  O
  O27      1.0000 0.32120  0.35083  0.38440  Biso   1.000  O
  O28      1.0000 0.33400  0.30080  0.31820  Biso   1.000  O
  O29      1.0000 0.14300  0.28120  0.54150  Biso   1.000  O
  O30      1.0000 0.20310  0.32780  0.54920  Biso   1.000  O
  N21      1.0000 0.09350  0.16056  0.23350  Biso   1.000  N
  N22      1.0000 0.93780  0.15322  0.90140  Biso   1.000  N
  N23      1.0000 0.18820  0.09470  0.38210  Biso   1.000  N
  N24      1.0000 0.32390  0.09149  0.72970  Biso   1.000  N
  N25      1.0000 0.18120  0.29900  0.52240  Biso   1.000  N
  C161     1.0000 0.09710  0.20210  0.22850  Biso   1.000  C
  H125     1.0000 0.12070  0.21670  0.25320  Biso   1.000  H
  C162     1.0000 0.06750  0.22420  0.18860  Biso   1.000  C
  H126     1.0000 0.06920  0.25390  0.18780  Biso   1.000  H
  C163     1.0000 0.03800  0.15980  0.14910  Biso   1.000  C
  H127     1.0000 0.02000  0.14340  0.12030  Biso   1.000  H
  C164     1.0000 0.06800  0.14050  0.19170  Biso   1.000  C
  H128     1.0000 0.07040  0.11080  0.19080  Biso   1.000  H
  C165     1.0000 0.03400  0.20280  0.14820  Biso   1.000  C
  C166     1.0000 0.99960  0.22540  0.10550  Biso   1.000  C
  H129     1.0000 0.96370  0.21550  0.11140  Biso   1.000  H
  C167     1.0000 0.01160  0.22740  0.03690  Biso   1.000  C
  H130     1.0000 0.04940  0.22870  0.03030  Biso   1.000  H
  C168     1.0000 0.98790  0.19780  0.99280  Biso   1.000  C
  C169     1.0000 0.00630  0.19680  0.93370  Biso   1.000  C
  H131     1.0000 0.03680  0.21140  0.92360  Biso   1.000  H
  C170     1.0000 0.98030  0.17460  0.89010  Biso   1.000  C
  H132     1.0000 0.99350  0.17450  0.85020  Biso   1.000  H
  C171     1.0000 0.92080  0.15340  0.95910  Biso   1.000  C
  H133     1.0000 0.89070  0.13810  0.96820  Biso   1.000  H
  C172     1.0000 0.94430  0.17440  0.00510  Biso   1.000  C
  H134     1.0000 0.93100  0.17300  0.04490  Biso   1.000  H
  C173     1.0000 0.16810  0.09180  0.43790  Biso   1.000  C
  H135     1.0000 0.13610  0.10500  0.44500  Biso   1.000  H
  C174     1.0000 0.19050  0.07150  0.48440  Biso   1.000  C
  H136     1.0000 0.17450  0.07080  0.52280  Biso   1.000  H
  C175     1.0000 0.23780  0.05160  0.47530  Biso   1.000  C
  C176     1.0000 0.25980  0.05610  0.41890  Biso   1.000  C
  H137     1.0000 0.29250  0.04430  0.41080  Biso   1.000  H
  C177     1.0000 0.23410  0.07790  0.37460  Biso   1.000  C
  H138     1.0000 0.25020  0.08100  0.33650  Biso   1.000  H
  C178     1.0000 0.26090  0.02290  0.52080  Biso   1.000  C
  H139     1.0000 0.29880  0.02210  0.51530  Biso   1.000  H
  C179     1.0000 0.24810  0.02440  0.58880  Biso   1.000  C
  H140     1.0000 0.21130  0.03230  0.59320  Biso   1.000  H
  C180     1.0000 0.27820  0.04810  0.63460  Biso   1.000  C
  C181     1.0000 0.28000  0.09080  0.63480  Biso   1.000  C
  H141     1.0000 0.26660  0.10620  0.60170  Biso   1.000  H
  C182     1.0000 0.30150  0.11160  0.68330  Biso   1.000  C
  H142     1.0000 0.30040  0.14140  0.68400  Biso   1.000  H
  C183     1.0000 0.32070  0.04880  0.72980  Biso   1.000  C
  H143     1.0000 0.33330  0.03420  0.76400  Biso   1.000  H
  C184     1.0000 0.30040  0.02600  0.68360  Biso   1.000  C
  H144     1.0000 0.30100  0.99630  0.68420  Biso   1.000  H
  C185     1.0000 0.17920  0.19980  0.35220  Biso   1.000  C
  C186     1.0000 0.20260  0.23740  0.38320  Biso   1.000  C
  C187     1.0000 0.24480  0.25770  0.35930  Biso   1.000  C
  H145     1.0000 0.25990  0.24750  0.32320  Biso   1.000  H
  C188     1.0000 0.26530  0.29250  0.38730  Biso   1.000  C
  C189     1.0000 0.31040  0.31590  0.36210  Biso   1.000  C
  C190     1.0000 0.24490  0.30580  0.44210  Biso   1.000  C
  H146     1.0000 0.25950  0.32900  0.46270  Biso   1.000  H
  C191     1.0000 0.20310  0.28500  0.46600  Biso   1.000  C
  C192     1.0000 0.18160  0.25070  0.43720  Biso   1.000  C
  H147     1.0000 0.15300  0.23660  0.45420  Biso   1.000  H
  C193     1.0000 0.10930  0.19400  0.20500  Biso   1.000  C
  H148     1.0000 0.14260  0.20400  0.21420  Biso   1.000  H
  C194     1.0000 0.08180  0.21560  0.16320  Biso   1.000  C
  H149     1.0000 0.09600  0.23960  0.14450  Biso   1.000  H
  C195     1.0000 0.01250  0.16880  0.17830  Biso   1.000  C
  H150     1.0000 0.97830  0.16030  0.17050  Biso   1.000  H
  C196     1.0000 0.04170  0.14800  0.21920  Biso   1.000  C
  H151     1.0000 0.02760  0.12440  0.23920  Biso   1.000  H
  C197     1.0000 0.26500  0.08970  0.64890  Biso   1.000  C
  H152     1.0000 0.24000  0.10430  0.62600  Biso   1.000  H
  C198     1.0000 0.28860  0.10820  0.69560  Biso   1.000  C
  H153     1.0000 0.27860  0.13600  0.70470  Biso   1.000  H
  C199     1.0000 0.34360  0.05360  0.70660  Biso   1.000  C
  H154     1.0000 0.37410  0.04260  0.72370  Biso   1.000  H
  C200     1.0000 0.32140  0.03260  0.66180  Biso   1.000  C
  H155     1.0000 0.33550  0.00680  0.64870  Biso   1.000  H
  Cd11     1.0000 0.63780  0.62562  0.30880  Biso   1.000  Cd
  Cd12     1.0000 0.38543  0.62219  0.83049  Biso   1.000  Cd
  O31      1.0000 0.63670  0.68679  0.37100  Biso   1.000  O
  O32      1.0000 0.70200  0.68323  0.30940  Biso   1.000  O
  O33      1.0000 0.82120  0.85083  0.38440  Biso   1.000  O
  O34      1.0000 0.83400  0.80080  0.31820  Biso   1.000  O
  O35      1.0000 0.64300  0.78120  0.54150  Biso   1.000  O
  O36      1.0000 0.70310  0.82780  0.54920  Biso   1.000  O
  N26      1.0000 0.59350  0.66056  0.23350  Biso   1.000  N
  N27      1.0000 0.43780  0.65322  0.90140  Biso   1.000  N
  N28      1.0000 0.68820  0.59470  0.38210  Biso   1.000  N
  N29      1.0000 0.82390  0.59149  0.72970  Biso   1.000  N
  N30      1.0000 0.68120  0.79900  0.52240  Biso   1.000  N
  C201     1.0000 0.59710  0.70210  0.22850  Biso   1.000  C
  H156     1.0000 0.62070  0.71670  0.25320  Biso   1.000  H
  C202     1.0000 0.56750  0.72420  0.18860  Biso   1.000  C
  H157     1.0000 0.56920  0.75390  0.18780  Biso   1.000  H
  C203     1.0000 0.53800  0.65980  0.14910  Biso   1.000  C
  H158     1.0000 0.52000  0.64340  0.12030  Biso   1.000  H
  C204     1.0000 0.56800  0.64050  0.19170  Biso   1.000  C
  H159     1.0000 0.57040  0.61080  0.19080  Biso   1.000  H
  C205     1.0000 0.53400  0.70280  0.14820  Biso   1.000  C
  C206     1.0000 0.49960  0.72540  0.10550  Biso   1.000  C
  H160     1.0000 0.46370  0.71550  0.11140  Biso   1.000  H
  C207     1.0000 0.51160  0.72740  0.03690  Biso   1.000  C
  H161     1.0000 0.54940  0.72870  0.03030  Biso   1.000  H
  C208     1.0000 0.48790  0.69780  0.99280  Biso   1.000  C
  C209     1.0000 0.50630  0.69680  0.93370  Biso   1.000  C
  H162     1.0000 0.53680  0.71140  0.92360  Biso   1.000  H
  C210     1.0000 0.48030  0.67460  0.89010  Biso   1.000  C
  H163     1.0000 0.49350  0.67450  0.85020  Biso   1.000  H
  C211     1.0000 0.42080  0.65340  0.95910  Biso   1.000  C
  H164     1.0000 0.39070  0.63810  0.96820  Biso   1.000  H
  C212     1.0000 0.44430  0.67440  0.00510  Biso   1.000  C
  H165     1.0000 0.43100  0.67300  0.04490  Biso   1.000  H
  C213     1.0000 0.66810  0.59180  0.43790  Biso   1.000  C
  H166     1.0000 0.63610  0.60500  0.44500  Biso   1.000  H
  C214     1.0000 0.69050  0.57150  0.48440  Biso   1.000  C
  H167     1.0000 0.67450  0.57080  0.52280  Biso   1.000  H
  C215     1.0000 0.73780  0.55160  0.47530  Biso   1.000  C
  C216     1.0000 0.75980  0.55610  0.41890  Biso   1.000  C
  H168     1.0000 0.79250  0.54430  0.41080  Biso   1.000  H
  C217     1.0000 0.73410  0.57790  0.37460  Biso   1.000  C
  H169     1.0000 0.75020  0.58100  0.33650  Biso   1.000  H
  C218     1.0000 0.76090  0.52290  0.52080  Biso   1.000  C
  H170     1.0000 0.79880  0.52210  0.51530  Biso   1.000  H
  C219     1.0000 0.74810  0.52440  0.58880  Biso   1.000  C
  H171     1.0000 0.71130  0.53230  0.59320  Biso   1.000  H
  C220     1.0000 0.77820  0.54810  0.63460  Biso   1.000  C
  C221     1.0000 0.78000  0.59080  0.63480  Biso   1.000  C
  H172     1.0000 0.76660  0.60620  0.60170  Biso   1.000  H
  C222     1.0000 0.80150  0.61160  0.68330  Biso   1.000  C
  H173     1.0000 0.80040  0.64140  0.68400  Biso   1.000  H
  C223     1.0000 0.82070  0.54880  0.72980  Biso   1.000  C
  H174     1.0000 0.83330  0.53420  0.76400  Biso   1.000  H
  C224     1.0000 0.80040  0.52600  0.68360  Biso   1.000  C
  H175     1.0000 0.80100  0.49630  0.68420  Biso   1.000  H
  C225     1.0000 0.67920  0.69980  0.35220  Biso   1.000  C
  C226     1.0000 0.70260  0.73740  0.38320  Biso   1.000  C
  C227     1.0000 0.74480  0.75770  0.35930  Biso   1.000  C
  H176     1.0000 0.75990  0.74750  0.32320  Biso   1.000  H
  C228     1.0000 0.76530  0.79250  0.38730  Biso   1.000  C
  C229     1.0000 0.81040  0.81590  0.36210  Biso   1.000  C
  C230     1.0000 0.74490  0.80580  0.44210  Biso   1.000  C
  H177     1.0000 0.75950  0.82900  0.46270  Biso   1.000  H
  C231     1.0000 0.70310  0.78500  0.46600  Biso   1.000  C
  C232     1.0000 0.68160  0.75070  0.43720  Biso   1.000  C
  H178     1.0000 0.65300  0.73660  0.45420  Biso   1.000  H
  C233     1.0000 0.60930  0.69400  0.20500  Biso   1.000  C
  H179     1.0000 0.64260  0.70400  0.21420  Biso   1.000  H
  C234     1.0000 0.58180  0.71560  0.16320  Biso   1.000  C
  H180     1.0000 0.59600  0.73960  0.14450  Biso   1.000  H
  C235     1.0000 0.51250  0.66880  0.17830  Biso   1.000  C
  H181     1.0000 0.47830  0.66030  0.17050  Biso   1.000  H
  C236     1.0000 0.54170  0.64800  0.21920  Biso   1.000  C
  H182     1.0000 0.52760  0.62440  0.23920  Biso   1.000  H
  C237     1.0000 0.76500  0.58970  0.64890  Biso   1.000  C
  H183     1.0000 0.74000  0.60430  0.62600  Biso   1.000  H
  C238     1.0000 0.78860  0.60820  0.69560  Biso   1.000  C
  H184     1.0000 0.77860  0.63600  0.70470  Biso   1.000  H
  C239     1.0000 0.84360  0.55360  0.70660  Biso   1.000  C
  H185     1.0000 0.87410  0.54260  0.72370  Biso   1.000  H
  C240     1.0000 0.82140  0.53260  0.66180  Biso   1.000  C
  H186     1.0000 0.83550  0.50680  0.64870  Biso   1.000  H
  Cd13     1.0000 0.36220  0.87438  0.30880  Biso   1.000  Cd
  Cd14     1.0000 0.61457  0.87781  0.83049  Biso   1.000  Cd
  O37      1.0000 0.36330  0.81321  0.37100  Biso   1.000  O
  O38      1.0000 0.29800  0.81677  0.30940  Biso   1.000  O
  O39      1.0000 0.17880  0.64917  0.38440  Biso   1.000  O
  O40      1.0000 0.16600  0.69920  0.31820  Biso   1.000  O
  O41      1.0000 0.35700  0.71880  0.54150  Biso   1.000  O
  O42      1.0000 0.29690  0.67220  0.54920  Biso   1.000  O
  N31      1.0000 0.40650  0.83944  0.23350  Biso   1.000  N
  N32      1.0000 0.56220  0.84678  0.90140  Biso   1.000  N
  N33      1.0000 0.31180  0.90530  0.38210  Biso   1.000  N
  N34      1.0000 0.17610  0.90851  0.72970  Biso   1.000  N
  N35      1.0000 0.31880  0.70100  0.52240  Biso   1.000  N
  C241     1.0000 0.40290  0.79790  0.22850  Biso   1.000  C
  H187     1.0000 0.37930  0.78330  0.25320  Biso   1.000  H
  C242     1.0000 0.43250  0.77580  0.18860  Biso   1.000  C
  H188     1.0000 0.43080  0.74610  0.18780  Biso   1.000  H
  C243     1.0000 0.46200  0.84020  0.14910  Biso   1.000  C
  H189     1.0000 0.48000  0.85660  0.12030  Biso   1.000  H
  C244     1.0000 0.43200  0.85950  0.19170  Biso   1.000  C
  H190     1.0000 0.42960  0.88920  0.19080  Biso   1.000  H
  C245     1.0000 0.46600  0.79720  0.14820  Biso   1.000  C
  C246     1.0000 0.50040  0.77460  0.10550  Biso   1.000  C
  H191     1.0000 0.53630  0.78450  0.11140  Biso   1.000  H
  C247     1.0000 0.48840  0.77260  0.03690  Biso   1.000  C
  H192     1.0000 0.45060  0.77130  0.03030  Biso   1.000  H
  C248     1.0000 0.51210  0.80220  0.99280  Biso   1.000  C
  C249     1.0000 0.49370  0.80320  0.93370  Biso   1.000  C
  H193     1.0000 0.46320  0.78860  0.92360  Biso   1.000  H
  C250     1.0000 0.51970  0.82540  0.89010  Biso   1.000  C
  H194     1.0000 0.50650  0.82550  0.85020  Biso   1.000  H
  C251     1.0000 0.57920  0.84660  0.95910  Biso   1.000  C
  H195     1.0000 0.60930  0.86190  0.96820  Biso   1.000  H
  C252     1.0000 0.55570  0.82560  0.00510  Biso   1.000  C
  H196     1.0000 0.56900  0.82700  0.04490  Biso   1.000  H
  C253     1.0000 0.33190  0.90820  0.43790  Biso   1.000  C
  H197     1.0000 0.36390  0.89500  0.44500  Biso   1.000  H
  C254     1.0000 0.30950  0.92850  0.48440  Biso   1.000  C
  H198     1.0000 0.32550  0.92920  0.52280  Biso   1.000  H
  C255     1.0000 0.26220  0.94840  0.47530  Biso   1.000  C
  C256     1.0000 0.24020  0.94390  0.41890  Biso   1.000  C
  H199     1.0000 0.20750  0.95570  0.41080  Biso   1.000  H
  C257     1.0000 0.26590  0.92210  0.37460  Biso   1.000  C
  H200     1.0000 0.24980  0.91900  0.33650  Biso   1.000  H
  C258     1.0000 0.23910  0.97710  0.52080  Biso   1.000  C
  H201     1.0000 0.20120  0.97790  0.51530  Biso   1.000  H
  C259     1.0000 0.25190  0.97560  0.58880  Biso   1.000  C
  H202     1.0000 0.28870  0.96770  0.59320  Biso   1.000  H
  C260     1.0000 0.22180  0.95190  0.63460  Biso   1.000  C
  C261     1.0000 0.22000  0.90920  0.63480  Biso   1.000  C
  H203     1.0000 0.23340  0.89380  0.60170  Biso   1.000  H
  C262     1.0000 0.19850  0.88840  0.68330  Biso   1.000  C
  H204     1.0000 0.19960  0.85860  0.68400  Biso   1.000  H
  C263     1.0000 0.17930  0.95120  0.72980  Biso   1.000  C
  H205     1.0000 0.16670  0.96580  0.76400  Biso   1.000  H
  C264     1.0000 0.19960  0.97400  0.68360  Biso   1.000  C
  H206     1.0000 0.19900  0.00370  0.68420  Biso   1.000  H
  C265     1.0000 0.32080  0.80020  0.35220  Biso   1.000  C
  C266     1.0000 0.29740  0.76260  0.38320  Biso   1.000  C
  C267     1.0000 0.25520  0.74230  0.35930  Biso   1.000  C
  H207     1.0000 0.24010  0.75250  0.32320  Biso   1.000  H
  C268     1.0000 0.23470  0.70750  0.38730  Biso   1.000  C
  C269     1.0000 0.18960  0.68410  0.36210  Biso   1.000  C
  C270     1.0000 0.25510  0.69420  0.44210  Biso   1.000  C
  H208     1.0000 0.24050  0.67100  0.46270  Biso   1.000  H
  C271     1.0000 0.29690  0.71500  0.46600  Biso   1.000  C
  C272     1.0000 0.31840  0.74930  0.43720  Biso   1.000  C
  H209     1.0000 0.34700  0.76340  0.45420  Biso   1.000  H
  C273     1.0000 0.39070  0.80600  0.20500  Biso   1.000  C
  H210     1.0000 0.35740  0.79600  0.21420  Biso   1.000  H
  C274     1.0000 0.41820  0.78440  0.16320  Biso   1.000  C
  H211     1.0000 0.40400  0.76040  0.14450  Biso   1.000  H
  C275     1.0000 0.48750  0.83120  0.17830  Biso   1.000  C
  H212     1.0000 0.52170  0.83970  0.17050  Biso   1.000  H
  C276     1.0000 0.45830  0.85200  0.21920  Biso   1.000  C
  H213     1.0000 0.47240  0.87560  0.23920  Biso   1.000  H
  C277     1.0000 0.23500  0.91030  0.64890  Biso   1.000  C
  H214     1.0000 0.26000  0.89570  0.62600  Biso   1.000  H
  C278     1.0000 0.21140  0.89180  0.69560  Biso   1.000  C
  H215     1.0000 0.22140  0.86400  0.70470  Biso   1.000  H
  C279     1.0000 0.15640  0.94640  0.70660  Biso   1.000  C
  H216     1.0000 0.12590  0.95740  0.72370  Biso   1.000  H
  C280     1.0000 0.17860  0.96740  0.66180  Biso   1.000  C
  H217     1.0000 0.16450  0.99320  0.64870  Biso   1.000  H
  Cd15     1.0000 0.86220  0.37438  0.30880  Biso   1.000  Cd
  Cd16     1.0000 0.11457  0.37781  0.83049  Biso   1.000  Cd
  O43      1.0000 0.86330  0.31321  0.37100  Biso   1.000  O
  O44      1.0000 0.79800  0.31677  0.30940  Biso   1.000  O
  O45      1.0000 0.67880  0.14917  0.38440  Biso   1.000  O
  O46      1.0000 0.66600  0.19920  0.31820  Biso   1.000  O
  O47      1.0000 0.85700  0.21880  0.54150  Biso   1.000  O
  O48      1.0000 0.79690  0.17220  0.54920  Biso   1.000  O
  N36      1.0000 0.90650  0.33944  0.23350  Biso   1.000  N
  N37      1.0000 0.06220  0.34678  0.90140  Biso   1.000  N
  N38      1.0000 0.81180  0.40530  0.38210  Biso   1.000  N
  N39      1.0000 0.67610  0.40851  0.72970  Biso   1.000  N
  N40      1.0000 0.81880  0.20100  0.52240  Biso   1.000  N
  C281     1.0000 0.90290  0.29790  0.22850  Biso   1.000  C
  H218     1.0000 0.87930  0.28330  0.25320  Biso   1.000  H
  C282     1.0000 0.93250  0.27580  0.18860  Biso   1.000  C
  H219     1.0000 0.93080  0.24610  0.18780  Biso   1.000  H
  C283     1.0000 0.96200  0.34020  0.14910  Biso   1.000  C
  H220     1.0000 0.98000  0.35660  0.12030  Biso   1.000  H
  C284     1.0000 0.93200  0.35950  0.19170  Biso   1.000  C
  H221     1.0000 0.92960  0.38920  0.19080  Biso   1.000  H
  C285     1.0000 0.96600  0.29720  0.14820  Biso   1.000  C
  C286     1.0000 0.00040  0.27460  0.10550  Biso   1.000  C
  H222     1.0000 0.03630  0.28450  0.11140  Biso   1.000  H
  C287     1.0000 0.98840  0.27260  0.03690  Biso   1.000  C
  H223     1.0000 0.95060  0.27130  0.03030  Biso   1.000  H
  C288     1.0000 0.01210  0.30220  0.99280  Biso   1.000  C
  C289     1.0000 0.99370  0.30320  0.93370  Biso   1.000  C
  H224     1.0000 0.96320  0.28860  0.92360  Biso   1.000  H
  C290     1.0000 0.01970  0.32540  0.89010  Biso   1.000  C
  H225     1.0000 0.00650  0.32550  0.85020  Biso   1.000  H
  C291     1.0000 0.07920  0.34660  0.95910  Biso   1.000  C
  H226     1.0000 0.10930  0.36190  0.96820  Biso   1.000  H
  C292     1.0000 0.05570  0.32560  0.00510  Biso   1.000  C
  H227     1.0000 0.06900  0.32700  0.04490  Biso   1.000  H
  C293     1.0000 0.83190  0.40820  0.43790  Biso   1.000  C
  H228     1.0000 0.86390  0.39500  0.44500  Biso   1.000  H
  C294     1.0000 0.80950  0.42850  0.48440  Biso   1.000  C
  H229     1.0000 0.82550  0.42920  0.52280  Biso   1.000  H
  C295     1.0000 0.76220  0.44840  0.47530  Biso   1.000  C
  C296     1.0000 0.74020  0.44390  0.41890  Biso   1.000  C
  H230     1.0000 0.70750  0.45570  0.41080  Biso   1.000  H
  C297     1.0000 0.76590  0.42210  0.37460  Biso   1.000  C
  H231     1.0000 0.74980  0.41900  0.33650  Biso   1.000  H
  C298     1.0000 0.73910  0.47710  0.52080  Biso   1.000  C
  H232     1.0000 0.70120  0.47790  0.51530  Biso   1.000  H
  C299     1.0000 0.75190  0.47560  0.58880  Biso   1.000  C
  H233     1.0000 0.78870  0.46770  0.59320  Biso   1.000  H
  C300     1.0000 0.72180  0.45190  0.63460  Biso   1.000  C
  C301     1.0000 0.72000  0.40920  0.63480  Biso   1.000  C
  H234     1.0000 0.73340  0.39380  0.60170  Biso   1.000  H
  C302     1.0000 0.69850  0.38840  0.68330  Biso   1.000  C
  H235     1.0000 0.69960  0.35860  0.68400  Biso   1.000  H
  C303     1.0000 0.67930  0.45120  0.72980  Biso   1.000  C
  H236     1.0000 0.66670  0.46580  0.76400  Biso   1.000  H
  C304     1.0000 0.69960  0.47400  0.68360  Biso   1.000  C
  H237     1.0000 0.69900  0.50370  0.68420  Biso   1.000  H
  C305     1.0000 0.82080  0.30020  0.35220  Biso   1.000  C
  C306     1.0000 0.79740  0.26260  0.38320  Biso   1.000  C
  C307     1.0000 0.75520  0.24230  0.35930  Biso   1.000  C
  H238     1.0000 0.74010  0.25250  0.32320  Biso   1.000  H
  C308     1.0000 0.73470  0.20750  0.38730  Biso   1.000  C
  C309     1.0000 0.68960  0.18410  0.36210  Biso   1.000  C
  C310     1.0000 0.75510  0.19420  0.44210  Biso   1.000  C
  H239     1.0000 0.74050  0.17100  0.46270  Biso   1.000  H
  C311     1.0000 0.79690  0.21500  0.46600  Biso   1.000  C
  C312     1.0000 0.81840  0.24930  0.43720  Biso   1.000  C
  H240     1.0000 0.84700  0.26340  0.45420  Biso   1.000  H
  C313     1.0000 0.89070  0.30600  0.20500  Biso   1.000  C
  H241     1.0000 0.85740  0.29600  0.21420  Biso   1.000  H
  C314     1.0000 0.91820  0.28440  0.16320  Biso   1.000  C
  H242     1.0000 0.90400  0.26040  0.14450  Biso   1.000  H
  C315     1.0000 0.98750  0.33120  0.17830  Biso   1.000  C
  H243     1.0000 0.02170  0.33970  0.17050  Biso   1.000  H
  C316     1.0000 0.95830  0.35200  0.21920  Biso   1.000  C
  H244     1.0000 0.97240  0.37560  0.23920  Biso   1.000  H
  C317     1.0000 0.73500  0.41030  0.64890  Biso   1.000  C
  H245     1.0000 0.76000  0.39570  0.62600  Biso   1.000  H
  C318     1.0000 0.71140  0.39180  0.69560  Biso   1.000  C
  H246     1.0000 0.72140  0.36400  0.70470  Biso   1.000  H
  C319     1.0000 0.65640  0.44640  0.70660  Biso   1.000  C
  H247     1.0000 0.62590  0.45740  0.72370  Biso   1.000  H
  C320     1.0000 0.67860  0.46740  0.66180  Biso   1.000  C
  H248     1.0000 0.66450  0.49320  0.64870  Biso   1.000  H
  Cd17     1.0000 0.86220  0.87438  0.69120  Biso   1.000  Cd
  Cd18     1.0000 0.11457  0.87781  0.16951  Biso   1.000  Cd
  O49      1.0000 0.86330  0.81321  0.62900  Biso   1.000  O
  O50      1.0000 0.79800  0.81677  0.69060  Biso   1.000  O
  O51      1.0000 0.67880  0.64917  0.61560  Biso   1.000  O
  O52      1.0000 0.66600  0.69920  0.68180  Biso   1.000  O
  O53      1.0000 0.85700  0.71880  0.45850  Biso   1.000  O
  O54      1.0000 0.79690  0.67220  0.45080  Biso   1.000  O
  N41      1.0000 0.90650  0.83944  0.76650  Biso   1.000  N
  N42      1.0000 0.06220  0.84678  0.09860  Biso   1.000  N
  N43      1.0000 0.81180  0.90530  0.61790  Biso   1.000  N
  N44      1.0000 0.67610  0.90851  0.27030  Biso   1.000  N
  N45      1.0000 0.81880  0.70100  0.47760  Biso   1.000  N
  C321     1.0000 0.90290  0.79790  0.77150  Biso   1.000  C
  H249     1.0000 0.87930  0.78330  0.74680  Biso   1.000  H
  C322     1.0000 0.93250  0.77580  0.81140  Biso   1.000  C
  H250     1.0000 0.93080  0.74610  0.81220  Biso   1.000  H
  C323     1.0000 0.96200  0.84020  0.85090  Biso   1.000  C
  H251     1.0000 0.98000  0.85660  0.87970  Biso   1.000  H
  C324     1.0000 0.93200  0.85950  0.80830  Biso   1.000  C
  H252     1.0000 0.92960  0.88920  0.80920  Biso   1.000  H
  C325     1.0000 0.96600  0.79720  0.85180  Biso   1.000  C
  C326     1.0000 0.00040  0.77460  0.89450  Biso   1.000  C
  H253     1.0000 0.03630  0.78450  0.88860  Biso   1.000  H
  C327     1.0000 0.98840  0.77260  0.96310  Biso   1.000  C
  H254     1.0000 0.95060  0.77130  0.96970  Biso   1.000  H
  C328     1.0000 0.01210  0.80220  0.00720  Biso   1.000  C
  C329     1.0000 0.99370  0.80320  0.06630  Biso   1.000  C
  H255     1.0000 0.96320  0.78860  0.07640  Biso   1.000  H
  C330     1.0000 0.01970  0.82540  0.10990  Biso   1.000  C
  H256     1.0000 0.00650  0.82550  0.14980  Biso   1.000  H
  C331     1.0000 0.07920  0.84660  0.04090  Biso   1.000  C
  H257     1.0000 0.10930  0.86190  0.03180  Biso   1.000  H
  C332     1.0000 0.05570  0.82560  0.99490  Biso   1.000  C
  H258     1.0000 0.06900  0.82700  0.95510  Biso   1.000  H
  C333     1.0000 0.83190  0.90820  0.56210  Biso   1.000  C
  H259     1.0000 0.86390  0.89500  0.55500  Biso   1.000  H
  C334     1.0000 0.80950  0.92850  0.51560  Biso   1.000  C
  H260     1.0000 0.82550  0.92920  0.47720  Biso   1.000  H
  C335     1.0000 0.76220  0.94840  0.52470  Biso   1.000  C
  C336     1.0000 0.74020  0.94390  0.58110  Biso   1.000  C
  H261     1.0000 0.70750  0.95570  0.58920  Biso   1.000  H
  C337     1.0000 0.76590  0.92210  0.62540  Biso   1.000  C
  H262     1.0000 0.74980  0.91900  0.66350  Biso   1.000  H
  C338     1.0000 0.73910  0.97710  0.47920  Biso   1.000  C
  H263     1.0000 0.70120  0.97790  0.48470  Biso   1.000  H
  C339     1.0000 0.75190  0.97560  0.41120  Biso   1.000  C
  H264     1.0000 0.78870  0.96770  0.40680  Biso   1.000  H
  C340     1.0000 0.72180  0.95190  0.36540  Biso   1.000  C
  C341     1.0000 0.72000  0.90920  0.36520  Biso   1.000  C
  H265     1.0000 0.73340  0.89380  0.39830  Biso   1.000  H
  C342     1.0000 0.69850  0.88840  0.31670  Biso   1.000  C
  H266     1.0000 0.69960  0.85860  0.31600  Biso   1.000  H
  C343     1.0000 0.67930  0.95120  0.27020  Biso   1.000  C
  H267     1.0000 0.66670  0.96580  0.23600  Biso   1.000  H
  C344     1.0000 0.69960  0.97400  0.31640  Biso   1.000  C
  H268     1.0000 0.69900  0.00370  0.31580  Biso   1.000  H
  C345     1.0000 0.82080  0.80020  0.64780  Biso   1.000  C
  C346     1.0000 0.79740  0.76260  0.61680  Biso   1.000  C
  C347     1.0000 0.75520  0.74230  0.64070  Biso   1.000  C
  H269     1.0000 0.74010  0.75250  0.67680  Biso   1.000  H
  C348     1.0000 0.73470  0.70750  0.61270  Biso   1.000  C
  C349     1.0000 0.68960  0.68410  0.63790  Biso   1.000  C
  C350     1.0000 0.75510  0.69420  0.55790  Biso   1.000  C
  H270     1.0000 0.74050  0.67100  0.53730  Biso   1.000  H
  C351     1.0000 0.79690  0.71500  0.53400  Biso   1.000  C
  C352     1.0000 0.81840  0.74930  0.56280  Biso   1.000  C
  H271     1.0000 0.84700  0.76340  0.54580  Biso   1.000  H
  C353     1.0000 0.89070  0.80600  0.79500  Biso   1.000  C
  H272     1.0000 0.85740  0.79600  0.78580  Biso   1.000  H
  C354     1.0000 0.91820  0.78440  0.83680  Biso   1.000  C
  H273     1.0000 0.90400  0.76040  0.85550  Biso   1.000  H
  C355     1.0000 0.98750  0.83120  0.82170  Biso   1.000  C
  H274     1.0000 0.02170  0.83970  0.82950  Biso   1.000  H
  C356     1.0000 0.95830  0.85200  0.78080  Biso   1.000  C
  H275     1.0000 0.97240  0.87560  0.76080  Biso   1.000  H
  C357     1.0000 0.73500  0.91030  0.35110  Biso   1.000  C
  H276     1.0000 0.76000  0.89570  0.37400  Biso   1.000  H
  C358     1.0000 0.71140  0.89180  0.30440  Biso   1.000  C
  H277     1.0000 0.72140  0.86400  0.29530  Biso   1.000  H
  C359     1.0000 0.65640  0.94640  0.29340  Biso   1.000  C
  H278     1.0000 0.62590  0.95740  0.27630  Biso   1.000  H
  C360     1.0000 0.67860  0.96740  0.33820  Biso   1.000  C
  H279     1.0000 0.66450  0.99320  0.35130  Biso   1.000  H
  Cd19     1.0000 0.36220  0.37438  0.69120  Biso   1.000  Cd
  Cd20     1.0000 0.61457  0.37781  0.16951  Biso   1.000  Cd
  O55      1.0000 0.36330  0.31321  0.62900  Biso   1.000  O
  O56      1.0000 0.29800  0.31677  0.69060  Biso   1.000  O
  O57      1.0000 0.17880  0.14917  0.61560  Biso   1.000  O
  O58      1.0000 0.16600  0.19920  0.68180  Biso   1.000  O
  O59      1.0000 0.35700  0.21880  0.45850  Biso   1.000  O
  O60      1.0000 0.29690  0.17220  0.45080  Biso   1.000  O
  N46      1.0000 0.40650  0.33944  0.76650  Biso   1.000  N
  N47      1.0000 0.56220  0.34678  0.09860  Biso   1.000  N
  N48      1.0000 0.31180  0.40530  0.61790  Biso   1.000  N
  N49      1.0000 0.17610  0.40851  0.27030  Biso   1.000  N
  N50      1.0000 0.31880  0.20100  0.47760  Biso   1.000  N
  C361     1.0000 0.40290  0.29790  0.77150  Biso   1.000  C
  H280     1.0000 0.37930  0.28330  0.74680  Biso   1.000  H
  C362     1.0000 0.43250  0.27580  0.81140  Biso   1.000  C
  H281     1.0000 0.43080  0.24610  0.81220  Biso   1.000  H
  C363     1.0000 0.46200  0.34020  0.85090  Biso   1.000  C
  H282     1.0000 0.48000  0.35660  0.87970  Biso   1.000  H
  C364     1.0000 0.43200  0.35950  0.80830  Biso   1.000  C
  H283     1.0000 0.42960  0.38920  0.80920  Biso   1.000  H
  C365     1.0000 0.46600  0.29720  0.85180  Biso   1.000  C
  C366     1.0000 0.50040  0.27460  0.89450  Biso   1.000  C
  H284     1.0000 0.53630  0.28450  0.88860  Biso   1.000  H
  C367     1.0000 0.48840  0.27260  0.96310  Biso   1.000  C
  H285     1.0000 0.45060  0.27130  0.96970  Biso   1.000  H
  C368     1.0000 0.51210  0.30220  0.00720  Biso   1.000  C
  C369     1.0000 0.49370  0.30320  0.06630  Biso   1.000  C
  H286     1.0000 0.46320  0.28860  0.07640  Biso   1.000  H
  C370     1.0000 0.51970  0.32540  0.10990  Biso   1.000  C
  H287     1.0000 0.50650  0.32550  0.14980  Biso   1.000  H
  C371     1.0000 0.57920  0.34660  0.04090  Biso   1.000  C
  H288     1.0000 0.60930  0.36190  0.03180  Biso   1.000  H
  C372     1.0000 0.55570  0.32560  0.99490  Biso   1.000  C
  H289     1.0000 0.56900  0.32700  0.95510  Biso   1.000  H
  C373     1.0000 0.33190  0.40820  0.56210  Biso   1.000  C
  H290     1.0000 0.36390  0.39500  0.55500  Biso   1.000  H
  C374     1.0000 0.30950  0.42850  0.51560  Biso   1.000  C
  H291     1.0000 0.32550  0.42920  0.47720  Biso   1.000  H
  C375     1.0000 0.26220  0.44840  0.52470  Biso   1.000  C
  C376     1.0000 0.24020  0.44390  0.58110  Biso   1.000  C
  H292     1.0000 0.20750  0.45570  0.58920  Biso   1.000  H
  C377     1.0000 0.26590  0.42210  0.62540  Biso   1.000  C
  H293     1.0000 0.24980  0.41900  0.66350  Biso   1.000  H
  C378     1.0000 0.23910  0.47710  0.47920  Biso   1.000  C
  H294     1.0000 0.20120  0.47790  0.48470  Biso   1.000  H
  C379     1.0000 0.25190  0.47560  0.41120  Biso   1.000  C
  H295     1.0000 0.28870  0.46770  0.40680  Biso   1.000  H
  C380     1.0000 0.22180  0.45190  0.36540  Biso   1.000  C
  C381     1.0000 0.22000  0.40920  0.36520  Biso   1.000  C
  H296     1.0000 0.23340  0.39380  0.39830  Biso   1.000  H
  C382     1.0000 0.19850  0.38840  0.31670  Biso   1.000  C
  H297     1.0000 0.19960  0.35860  0.31600  Biso   1.000  H
  C383     1.0000 0.17930  0.45120  0.27020  Biso   1.000  C
  H298     1.0000 0.16670  0.46580  0.23600  Biso   1.000  H
  C384     1.0000 0.19960  0.47400  0.31640  Biso   1.000  C
  H299     1.0000 0.19900  0.50370  0.31580  Biso   1.000  H
  C385     1.0000 0.32080  0.30020  0.64780  Biso   1.000  C
  C386     1.0000 0.29740  0.26260  0.61680  Biso   1.000  C
  C387     1.0000 0.25520  0.24230  0.64070  Biso   1.000  C
  H300     1.0000 0.24010  0.25250  0.67680  Biso   1.000  H
  C388     1.0000 0.23470  0.20750  0.61270  Biso   1.000  C
  C389     1.0000 0.18960  0.18410  0.63790  Biso   1.000  C
  C390     1.0000 0.25510  0.19420  0.55790  Biso   1.000  C
  H301     1.0000 0.24050  0.17100  0.53730  Biso   1.000  H
  C391     1.0000 0.29690  0.21500  0.53400  Biso   1.000  C
  C392     1.0000 0.31840  0.24930  0.56280  Biso   1.000  C
  H302     1.0000 0.34700  0.26340  0.54580  Biso   1.000  H
  C393     1.0000 0.39070  0.30600  0.79500  Biso   1.000  C
  H303     1.0000 0.35740  0.29600  0.78580  Biso   1.000  H
  C394     1.0000 0.41820  0.28440  0.83680  Biso   1.000  C
  H304     1.0000 0.40400  0.26040  0.85550  Biso   1.000  H
  C395     1.0000 0.48750  0.33120  0.82170  Biso   1.000  C
  H305     1.0000 0.52170  0.33970  0.82950  Biso   1.000  H
  C396     1.0000 0.45830  0.35200  0.78080  Biso   1.000  C
  H306     1.0000 0.47240  0.37560  0.76080  Biso   1.000  H
  C397     1.0000 0.23500  0.41030  0.35110  Biso   1.000  C
  H307     1.0000 0.26000  0.39570  0.37400  Biso   1.000  H
  C398     1.0000 0.21140  0.39180  0.30440  Biso   1.000  C
  H308     1.0000 0.22140  0.36400  0.29530  Biso   1.000  H
  C399     1.0000 0.15640  0.44640  0.29340  Biso   1.000  C
  H309     1.0000 0.12590  0.45740  0.27630  Biso   1.000  H
  C400     1.0000 0.17860  0.46740  0.33820  Biso   1.000  C
  H310     1.0000 0.16450  0.49320  0.35130  Biso   1.000  H
  Cd21     1.0000 0.63780  0.12562  0.69120  Biso   1.000  Cd
  Cd22     1.0000 0.38543  0.12219  0.16951  Biso   1.000  Cd
  O61      1.0000 0.63670  0.18679  0.62900  Biso   1.000  O
  O62      1.0000 0.70200  0.18323  0.69060  Biso   1.000  O
  O63      1.0000 0.82120  0.35083  0.61560  Biso   1.000  O
  O64      1.0000 0.83400  0.30080  0.68180  Biso   1.000  O
  O65      1.0000 0.64300  0.28120  0.45850  Biso   1.000  O
  O66      1.0000 0.70310  0.32780  0.45080  Biso   1.000  O
  N51      1.0000 0.59350  0.16056  0.76650  Biso   1.000  N
  N52      1.0000 0.43780  0.15322  0.09860  Biso   1.000  N
  N53      1.0000 0.68820  0.09470  0.61790  Biso   1.000  N
  N54      1.0000 0.82390  0.09149  0.27030  Biso   1.000  N
  N55      1.0000 0.68120  0.29900  0.47760  Biso   1.000  N
  C401     1.0000 0.59710  0.20210  0.77150  Biso   1.000  C
  H311     1.0000 0.62070  0.21670  0.74680  Biso   1.000  H
  C402     1.0000 0.56750  0.22420  0.81140  Biso   1.000  C
  H312     1.0000 0.56920  0.25390  0.81220  Biso   1.000  H
  C403     1.0000 0.53800  0.15980  0.85090  Biso   1.000  C
  H313     1.0000 0.52000  0.14340  0.87970  Biso   1.000  H
  C404     1.0000 0.56800  0.14050  0.80830  Biso   1.000  C
  H314     1.0000 0.57040  0.11080  0.80920  Biso   1.000  H
  C405     1.0000 0.53400  0.20280  0.85180  Biso   1.000  C
  C406     1.0000 0.49960  0.22540  0.89450  Biso   1.000  C
  H315     1.0000 0.46370  0.21550  0.88860  Biso   1.000  H
  C407     1.0000 0.51160  0.22740  0.96310  Biso   1.000  C
  H316     1.0000 0.54940  0.22870  0.96970  Biso   1.000  H
  C408     1.0000 0.48790  0.19780  0.00720  Biso   1.000  C
  C409     1.0000 0.50630  0.19680  0.06630  Biso   1.000  C
  H317     1.0000 0.53680  0.21140  0.07640  Biso   1.000  H
  C410     1.0000 0.48030  0.17460  0.10990  Biso   1.000  C
  H318     1.0000 0.49350  0.17450  0.14980  Biso   1.000  H
  C411     1.0000 0.42080  0.15340  0.04090  Biso   1.000  C
  H319     1.0000 0.39070  0.13810  0.03180  Biso   1.000  H
  C412     1.0000 0.44430  0.17440  0.99490  Biso   1.000  C
  H320     1.0000 0.43100  0.17300  0.95510  Biso   1.000  H
  C413     1.0000 0.66810  0.09180  0.56210  Biso   1.000  C
  H321     1.0000 0.63610  0.10500  0.55500  Biso   1.000  H
  C414     1.0000 0.69050  0.07150  0.51560  Biso   1.000  C
  H322     1.0000 0.67450  0.07080  0.47720  Biso   1.000  H
  C415     1.0000 0.73780  0.05160  0.52470  Biso   1.000  C
  C416     1.0000 0.75980  0.05610  0.58110  Biso   1.000  C
  H323     1.0000 0.79250  0.04430  0.58920  Biso   1.000  H
  C417     1.0000 0.73410  0.07790  0.62540  Biso   1.000  C
  H324     1.0000 0.75020  0.08100  0.66350  Biso   1.000  H
  C418     1.0000 0.76090  0.02290  0.47920  Biso   1.000  C
  H325     1.0000 0.79880  0.02210  0.48470  Biso   1.000  H
  C419     1.0000 0.74810  0.02440  0.41120  Biso   1.000  C
  H326     1.0000 0.71130  0.03230  0.40680  Biso   1.000  H
  C420     1.0000 0.77820  0.04810  0.36540  Biso   1.000  C
  C421     1.0000 0.78000  0.09080  0.36520  Biso   1.000  C
  H327     1.0000 0.76660  0.10620  0.39830  Biso   1.000  H
  C422     1.0000 0.80150  0.11160  0.31670  Biso   1.000  C
  H328     1.0000 0.80040  0.14140  0.31600  Biso   1.000  H
  C423     1.0000 0.82070  0.04880  0.27020  Biso   1.000  C
  H329     1.0000 0.83330  0.03420  0.23600  Biso   1.000  H
  C424     1.0000 0.80040  0.02600  0.31640  Biso   1.000  C
  H330     1.0000 0.80100  0.99630  0.31580  Biso   1.000  H
  C425     1.0000 0.67920  0.19980  0.64780  Biso   1.000  C
  C426     1.0000 0.70260  0.23740  0.61680  Biso   1.000  C
  C427     1.0000 0.74480  0.25770  0.64070  Biso   1.000  C
  H331     1.0000 0.75990  0.24750  0.67680  Biso   1.000  H
  C428     1.0000 0.76530  0.29250  0.61270  Biso   1.000  C
  C429     1.0000 0.81040  0.31590  0.63790  Biso   1.000  C
  C430     1.0000 0.74490  0.30580  0.55790  Biso   1.000  C
  H332     1.0000 0.75950  0.32900  0.53730  Biso   1.000  H
  C431     1.0000 0.70310  0.28500  0.53400  Biso   1.000  C
  C432     1.0000 0.68160  0.25070  0.56280  Biso   1.000  C
  H333     1.0000 0.65300  0.23660  0.54580  Biso   1.000  H
  C433     1.0000 0.60930  0.19400  0.79500  Biso   1.000  C
  H334     1.0000 0.64260  0.20400  0.78580  Biso   1.000  H
  C434     1.0000 0.58180  0.21560  0.83680  Biso   1.000  C
  H335     1.0000 0.59600  0.23960  0.85550  Biso   1.000  H
  C435     1.0000 0.51250  0.16880  0.82170  Biso   1.000  C
  H336     1.0000 0.47830  0.16030  0.82950  Biso   1.000  H
  C436     1.0000 0.54170  0.14800  0.78080  Biso   1.000  C
  H337     1.0000 0.52760  0.12440  0.76080  Biso   1.000  H
  C437     1.0000 0.76500  0.08970  0.35110  Biso   1.000  C
  H338     1.0000 0.74000  0.10430  0.37400  Biso   1.000  H
  C438     1.0000 0.78860  0.10820  0.30440  Biso   1.000  C
  H339     1.0000 0.77860  0.13600  0.29530  Biso   1.000  H
  C439     1.0000 0.84360  0.05360  0.29340  Biso   1.000  C
  H340     1.0000 0.87410  0.04260  0.27630  Biso   1.000  H
  C440     1.0000 0.82140  0.03260  0.33820  Biso   1.000  C
  H341     1.0000 0.83550  0.00680  0.35130  Biso   1.000  H
  Cd23     1.0000 0.13780  0.62562  0.69120  Biso   1.000  Cd
  Cd24     1.0000 0.88543  0.62219  0.16951  Biso   1.000  Cd
  O67      1.0000 0.13670  0.68679  0.62900  Biso   1.000  O
  O68      1.0000 0.20200  0.68323  0.69060  Biso   1.000  O
  O69      1.0000 0.32120  0.85083  0.61560  Biso   1.000  O
  O70      1.0000 0.33400  0.80080  0.68180  Biso   1.000  O
  O71      1.0000 0.14300  0.78120  0.45850  Biso   1.000  O
  O72      1.0000 0.20310  0.82780  0.45080  Biso   1.000  O
  N56      1.0000 0.09350  0.66056  0.76650  Biso   1.000  N
  N57      1.0000 0.93780  0.65322  0.09860  Biso   1.000  N
  N58      1.0000 0.18820  0.59470  0.61790  Biso   1.000  N
  N59      1.0000 0.32390  0.59149  0.27030  Biso   1.000  N
  N60      1.0000 0.18120  0.79900  0.47760  Biso   1.000  N
  C441     1.0000 0.09710  0.70210  0.77150  Biso   1.000  C
  H342     1.0000 0.12070  0.71670  0.74680  Biso   1.000  H
  C442     1.0000 0.06750  0.72420  0.81140  Biso   1.000  C
  H343     1.0000 0.06920  0.75390  0.81220  Biso   1.000  H
  C443     1.0000 0.03800  0.65980  0.85090  Biso   1.000  C
  H344     1.0000 0.02000  0.64340  0.87970  Biso   1.000  H
  C444     1.0000 0.06800  0.64050  0.80830  Biso   1.000  C
  H345     1.0000 0.07040  0.61080  0.80920  Biso   1.000  H
  C445     1.0000 0.03400  0.70280  0.85180  Biso   1.000  C
  C446     1.0000 0.99960  0.72540  0.89450  Biso   1.000  C
  H346     1.0000 0.96370  0.71550  0.88860  Biso   1.000  H
  C447     1.0000 0.01160  0.72740  0.96310  Biso   1.000  C
  H347     1.0000 0.04940  0.72870  0.96970  Biso   1.000  H
  C448     1.0000 0.98790  0.69780  0.00720  Biso   1.000  C
  C449     1.0000 0.00630  0.69680  0.06630  Biso   1.000  C
  H348     1.0000 0.03680  0.71140  0.07640  Biso   1.000  H
  C450     1.0000 0.98030  0.67460  0.10990  Biso   1.000  C
  H349     1.0000 0.99350  0.67450  0.14980  Biso   1.000  H
  C451     1.0000 0.92080  0.65340  0.04090  Biso   1.000  C
  H350     1.0000 0.89070  0.63810  0.03180  Biso   1.000  H
  C452     1.0000 0.94430  0.67440  0.99490  Biso   1.000  C
  H351     1.0000 0.93100  0.67300  0.95510  Biso   1.000  H
  C453     1.0000 0.16810  0.59180  0.56210  Biso   1.000  C
  H352     1.0000 0.13610  0.60500  0.55500  Biso   1.000  H
  C454     1.0000 0.19050  0.57150  0.51560  Biso   1.000  C
  H353     1.0000 0.17450  0.57080  0.47720  Biso   1.000  H
  C455     1.0000 0.23780  0.55160  0.52470  Biso   1.000  C
  C456     1.0000 0.25980  0.55610  0.58110  Biso   1.000  C
  H354     1.0000 0.29250  0.54430  0.58920  Biso   1.000  H
  C457     1.0000 0.23410  0.57790  0.62540  Biso   1.000  C
  H355     1.0000 0.25020  0.58100  0.66350  Biso   1.000  H
  C458     1.0000 0.26090  0.52290  0.47920  Biso   1.000  C
  H356     1.0000 0.29880  0.52210  0.48470  Biso   1.000  H
  C459     1.0000 0.24810  0.52440  0.41120  Biso   1.000  C
  H357     1.0000 0.21130  0.53230  0.40680  Biso   1.000  H
  C460     1.0000 0.27820  0.54810  0.36540  Biso   1.000  C
  C461     1.0000 0.28000  0.59080  0.36520  Biso   1.000  C
  H358     1.0000 0.26660  0.60620  0.39830  Biso   1.000  H
  C462     1.0000 0.30150  0.61160  0.31670  Biso   1.000  C
  H359     1.0000 0.30040  0.64140  0.31600  Biso   1.000  H
  C463     1.0000 0.32070  0.54880  0.27020  Biso   1.000  C
  H360     1.0000 0.33330  0.53420  0.23600  Biso   1.000  H
  C464     1.0000 0.30040  0.52600  0.31640  Biso   1.000  C
  H361     1.0000 0.30100  0.49630  0.31580  Biso   1.000  H
  C465     1.0000 0.17920  0.69980  0.64780  Biso   1.000  C
  C466     1.0000 0.20260  0.73740  0.61680  Biso   1.000  C
  C467     1.0000 0.24480  0.75770  0.64070  Biso   1.000  C
  H362     1.0000 0.25990  0.74750  0.67680  Biso   1.000  H
  C468     1.0000 0.26530  0.79250  0.61270  Biso   1.000  C
  C469     1.0000 0.31040  0.81590  0.63790  Biso   1.000  C
  C470     1.0000 0.24490  0.80580  0.55790  Biso   1.000  C
  H363     1.0000 0.25950  0.82900  0.53730  Biso   1.000  H
  C471     1.0000 0.20310  0.78500  0.53400  Biso   1.000  C
  C472     1.0000 0.18160  0.75070  0.56280  Biso   1.000  C
  H364     1.0000 0.15300  0.73660  0.54580  Biso   1.000  H
  C473     1.0000 0.10930  0.69400  0.79500  Biso   1.000  C
  H365     1.0000 0.14260  0.70400  0.78580  Biso   1.000  H
  C474     1.0000 0.08180  0.71560  0.83680  Biso   1.000  C
  H366     1.0000 0.09600  0.73960  0.85550  Biso   1.000  H
  C475     1.0000 0.01250  0.66880  0.82170  Biso   1.000  C
  H367     1.0000 0.97830  0.66030  0.82950  Biso   1.000  H
  C476     1.0000 0.04170  0.64800  0.78080  Biso   1.000  C
  H368     1.0000 0.02760  0.62440  0.76080  Biso   1.000  H
  C477     1.0000 0.26500  0.58970  0.35110  Biso   1.000  C
  H369     1.0000 0.24000  0.60430  0.37400  Biso   1.000  H
  C478     1.0000 0.28860  0.60820  0.30440  Biso   1.000  C
  H370     1.0000 0.27860  0.63600  0.29530  Biso   1.000  H
  C479     1.0000 0.34360  0.55360  0.29340  Biso   1.000  C
  H371     1.0000 0.37410  0.54260  0.27630  Biso   1.000  H
  C480     1.0000 0.32140  0.53260  0.33820  Biso   1.000  C
  H372     1.0000 0.33550  0.50680  0.35130  Biso   1.000  H
  Cd25     1.0000 0.86220  0.12562  0.19120  Biso   1.000  Cd
  Cd26     1.0000 0.11457  0.12219  0.66951  Biso   1.000  Cd
  O73      1.0000 0.86330  0.18679  0.12900  Biso   1.000  O
  O74      1.0000 0.79800  0.18323  0.19060  Biso   1.000  O
  O75      1.0000 0.67880  0.35083  0.11560  Biso   1.000  O
  O76      1.0000 0.66600  0.30080  0.18180  Biso   1.000  O
  O77      1.0000 0.85700  0.28120  0.95850  Biso   1.000  O
  O78      1.0000 0.79690  0.32780  0.95080  Biso   1.000  O
  N61      1.0000 0.90650  0.16056  0.26650  Biso   1.000  N
  N62      1.0000 0.06220  0.15322  0.59860  Biso   1.000  N
  N63      1.0000 0.81180  0.09470  0.11790  Biso   1.000  N
  N64      1.0000 0.67610  0.09149  0.77030  Biso   1.000  N
  N65      1.0000 0.81880  0.29900  0.97760  Biso   1.000  N
  C481     1.0000 0.90290  0.20210  0.27150  Biso   1.000  C
  H373     1.0000 0.87930  0.21670  0.24680  Biso   1.000  H
  C482     1.0000 0.93250  0.22420  0.31140  Biso   1.000  C
  H374     1.0000 0.93080  0.25390  0.31220  Biso   1.000  H
  C483     1.0000 0.96200  0.15980  0.35090  Biso   1.000  C
  H375     1.0000 0.98000  0.14340  0.37970  Biso   1.000  H
  C484     1.0000 0.93200  0.14050  0.30830  Biso   1.000  C
  H376     1.0000 0.92960  0.11080  0.30920  Biso   1.000  H
  C485     1.0000 0.96600  0.20280  0.35180  Biso   1.000  C
  C486     1.0000 0.00040  0.22540  0.39450  Biso   1.000  C
  H377     1.0000 0.03630  0.21550  0.38860  Biso   1.000  H
  C487     1.0000 0.98840  0.22740  0.46310  Biso   1.000  C
  H378     1.0000 0.95060  0.22870  0.46970  Biso   1.000  H
  C488     1.0000 0.01210  0.19780  0.50720  Biso   1.000  C
  C489     1.0000 0.99370  0.19680  0.56630  Biso   1.000  C
  H379     1.0000 0.96320  0.21140  0.57640  Biso   1.000  H
  C490     1.0000 0.01970  0.17460  0.60990  Biso   1.000  C
  H380     1.0000 0.00650  0.17450  0.64980  Biso   1.000  H
  C491     1.0000 0.07920  0.15340  0.54090  Biso   1.000  C
  H381     1.0000 0.10930  0.13810  0.53180  Biso   1.000  H
  C492     1.0000 0.05570  0.17440  0.49490  Biso   1.000  C
  H382     1.0000 0.06900  0.17300  0.45510  Biso   1.000  H
  C493     1.0000 0.83190  0.09180  0.06210  Biso   1.000  C
  H383     1.0000 0.86390  0.10500  0.05500  Biso   1.000  H
  C494     1.0000 0.80950  0.07150  0.01560  Biso   1.000  C
  H384     1.0000 0.82550  0.07080  0.97720  Biso   1.000  H
  C495     1.0000 0.76220  0.05160  0.02470  Biso   1.000  C
  C496     1.0000 0.74020  0.05610  0.08110  Biso   1.000  C
  H385     1.0000 0.70750  0.04430  0.08920  Biso   1.000  H
  C497     1.0000 0.76590  0.07790  0.12540  Biso   1.000  C
  H386     1.0000 0.74980  0.08100  0.16350  Biso   1.000  H
  C498     1.0000 0.73910  0.02290  0.97920  Biso   1.000  C
  H387     1.0000 0.70120  0.02210  0.98470  Biso   1.000  H
  C499     1.0000 0.75190  0.02440  0.91120  Biso   1.000  C
  H388     1.0000 0.78870  0.03230  0.90680  Biso   1.000  H
  C500     1.0000 0.72180  0.04810  0.86540  Biso   1.000  C
  C501     1.0000 0.72000  0.09080  0.86520  Biso   1.000  C
  H389     1.0000 0.73340  0.10620  0.89830  Biso   1.000  H
  C502     1.0000 0.69850  0.11160  0.81670  Biso   1.000  C
  H390     1.0000 0.69960  0.14140  0.81600  Biso   1.000  H
  C503     1.0000 0.67930  0.04880  0.77020  Biso   1.000  C
  H391     1.0000 0.66670  0.03420  0.73600  Biso   1.000  H
  C504     1.0000 0.69960  0.02600  0.81640  Biso   1.000  C
  H392     1.0000 0.69900  0.99630  0.81580  Biso   1.000  H
  C505     1.0000 0.82080  0.19980  0.14780  Biso   1.000  C
  C506     1.0000 0.79740  0.23740  0.11680  Biso   1.000  C
  C507     1.0000 0.75520  0.25770  0.14070  Biso   1.000  C
  H393     1.0000 0.74010  0.24750  0.17680  Biso   1.000  H
  C508     1.0000 0.73470  0.29250  0.11270  Biso   1.000  C
  C509     1.0000 0.68960  0.31590  0.13790  Biso   1.000  C
  C510     1.0000 0.75510  0.30580  0.05790  Biso   1.000  C
  H394     1.0000 0.74050  0.32900  0.03730  Biso   1.000  H
  C511     1.0000 0.79690  0.28500  0.03400  Biso   1.000  C
  C512     1.0000 0.81840  0.25070  0.06280  Biso   1.000  C
  H395     1.0000 0.84700  0.23660  0.04580  Biso   1.000  H
  C513     1.0000 0.89070  0.19400  0.29500  Biso   1.000  C
  H396     1.0000 0.85740  0.20400  0.28580  Biso   1.000  H
  C514     1.0000 0.91820  0.21560  0.33680  Biso   1.000  C
  H397     1.0000 0.90400  0.23960  0.35550  Biso   1.000  H
  C515     1.0000 0.98750  0.16880  0.32170  Biso   1.000  C
  H398     1.0000 0.02170  0.16030  0.32950  Biso   1.000  H
  C516     1.0000 0.95830  0.14800  0.28080  Biso   1.000  C
  H399     1.0000 0.97240  0.12440  0.26080  Biso   1.000  H
  C517     1.0000 0.73500  0.08970  0.85110  Biso   1.000  C
  H400     1.0000 0.76000  0.10430  0.87400  Biso   1.000  H
  C518     1.0000 0.71140  0.10820  0.80440  Biso   1.000  C
  H401     1.0000 0.72140  0.13600  0.79530  Biso   1.000  H
  C519     1.0000 0.65640  0.05360  0.79340  Biso   1.000  C
  H402     1.0000 0.62590  0.04260  0.77630  Biso   1.000  H
  C520     1.0000 0.67860  0.03260  0.83820  Biso   1.000  C
  H403     1.0000 0.66450  0.00680  0.85130  Biso   1.000  H
  Cd27     1.0000 0.36220  0.62562  0.19120  Biso   1.000  Cd
  Cd28     1.0000 0.61457  0.62219  0.66951  Biso   1.000  Cd
  O79      1.0000 0.36330  0.68679  0.12900  Biso   1.000  O
  O80      1.0000 0.29800  0.68323  0.19060  Biso   1.000  O
  O81      1.0000 0.17880  0.85083  0.11560  Biso   1.000  O
  O82      1.0000 0.16600  0.80080  0.18180  Biso   1.000  O
  O83      1.0000 0.35700  0.78120  0.95850  Biso   1.000  O
  O84      1.0000 0.29690  0.82780  0.95080  Biso   1.000  O
  N66      1.0000 0.40650  0.66056  0.26650  Biso   1.000  N
  N67      1.0000 0.56220  0.65322  0.59860  Biso   1.000  N
  N68      1.0000 0.31180  0.59470  0.11790  Biso   1.000  N
  N69      1.0000 0.17610  0.59149  0.77030  Biso   1.000  N
  N70      1.0000 0.31880  0.79900  0.97760  Biso   1.000  N
  C521     1.0000 0.40290  0.70210  0.27150  Biso   1.000  C
  H404     1.0000 0.37930  0.71670  0.24680  Biso   1.000  H
  C522     1.0000 0.43250  0.72420  0.31140  Biso   1.000  C
  H405     1.0000 0.43080  0.75390  0.31220  Biso   1.000  H
  C523     1.0000 0.46200  0.65980  0.35090  Biso   1.000  C
  H406     1.0000 0.48000  0.64340  0.37970  Biso   1.000  H
  C524     1.0000 0.43200  0.64050  0.30830  Biso   1.000  C
  H407     1.0000 0.42960  0.61080  0.30920  Biso   1.000  H
  C525     1.0000 0.46600  0.70280  0.35180  Biso   1.000  C
  C526     1.0000 0.50040  0.72540  0.39450  Biso   1.000  C
  H408     1.0000 0.53630  0.71550  0.38860  Biso   1.000  H
  C527     1.0000 0.48840  0.72740  0.46310  Biso   1.000  C
  H409     1.0000 0.45060  0.72870  0.46970  Biso   1.000  H
  C528     1.0000 0.51210  0.69780  0.50720  Biso   1.000  C
  C529     1.0000 0.49370  0.69680  0.56630  Biso   1.000  C
  H410     1.0000 0.46320  0.71140  0.57640  Biso   1.000  H
  C530     1.0000 0.51970  0.67460  0.60990  Biso   1.000  C
  H411     1.0000 0.50650  0.67450  0.64980  Biso   1.000  H
  C531     1.0000 0.57920  0.65340  0.54090  Biso   1.000  C
  H412     1.0000 0.60930  0.63810  0.53180  Biso   1.000  H
  C532     1.0000 0.55570  0.67440  0.49490  Biso   1.000  C
  H413     1.0000 0.56900  0.67300  0.45510  Biso   1.000  H
  C533     1.0000 0.33190  0.59180  0.06210  Biso   1.000  C
  H414     1.0000 0.36390  0.60500  0.05500  Biso   1.000  H
  C534     1.0000 0.30950  0.57150  0.01560  Biso   1.000  C
  H415     1.0000 0.32550  0.57080  0.97720  Biso   1.000  H
  C535     1.0000 0.26220  0.55160  0.02470  Biso   1.000  C
  C536     1.0000 0.24020  0.55610  0.08110  Biso   1.000  C
  H416     1.0000 0.20750  0.54430  0.08920  Biso   1.000  H
  C537     1.0000 0.26590  0.57790  0.12540  Biso   1.000  C
  H417     1.0000 0.24980  0.58100  0.16350  Biso   1.000  H
  C538     1.0000 0.23910  0.52290  0.97920  Biso   1.000  C
  H418     1.0000 0.20120  0.52210  0.98470  Biso   1.000  H
  C539     1.0000 0.25190  0.52440  0.91120  Biso   1.000  C
  H419     1.0000 0.28870  0.53230  0.90680  Biso   1.000  H
  C540     1.0000 0.22180  0.54810  0.86540  Biso   1.000  C
  C541     1.0000 0.22000  0.59080  0.86520  Biso   1.000  C
  H420     1.0000 0.23340  0.60620  0.89830  Biso   1.000  H
  C542     1.0000 0.19850  0.61160  0.81670  Biso   1.000  C
  H421     1.0000 0.19960  0.64140  0.81600  Biso   1.000  H
  C543     1.0000 0.17930  0.54880  0.77020  Biso   1.000  C
  H422     1.0000 0.16670  0.53420  0.73600  Biso   1.000  H
  C544     1.0000 0.19960  0.52600  0.81640  Biso   1.000  C
  H423     1.0000 0.19900  0.49630  0.81580  Biso   1.000  H
  C545     1.0000 0.32080  0.69980  0.14780  Biso   1.000  C
  C546     1.0000 0.29740  0.73740  0.11680  Biso   1.000  C
  C547     1.0000 0.25520  0.75770  0.14070  Biso   1.000  C
  H424     1.0000 0.24010  0.74750  0.17680  Biso   1.000  H
  C548     1.0000 0.23470  0.79250  0.11270  Biso   1.000  C
  C549     1.0000 0.18960  0.81590  0.13790  Biso   1.000  C
  C550     1.0000 0.25510  0.80580  0.05790  Biso   1.000  C
  H425     1.0000 0.24050  0.82900  0.03730  Biso   1.000  H
  C551     1.0000 0.29690  0.78500  0.03400  Biso   1.000  C
  C552     1.0000 0.31840  0.75070  0.06280  Biso   1.000  C
  H426     1.0000 0.34700  0.73660  0.04580  Biso   1.000  H
  C553     1.0000 0.39070  0.69400  0.29500  Biso   1.000  C
  H427     1.0000 0.35740  0.70400  0.28580  Biso   1.000  H
  C554     1.0000 0.41820  0.71560  0.33680  Biso   1.000  C
  H428     1.0000 0.40400  0.73960  0.35550  Biso   1.000  H
  C555     1.0000 0.48750  0.66880  0.32170  Biso   1.000  C
  H429     1.0000 0.52170  0.66030  0.32950  Biso   1.000  H
  C556     1.0000 0.45830  0.64800  0.28080  Biso   1.000  C
  H430     1.0000 0.47240  0.62440  0.26080  Biso   1.000  H
  C557     1.0000 0.23500  0.58970  0.85110  Biso   1.000  C
  H431     1.0000 0.26000  0.60430  0.87400  Biso   1.000  H
  C558     1.0000 0.21140  0.60820  0.80440  Biso   1.000  C
  H432     1.0000 0.22140  0.63600  0.79530  Biso   1.000  H
  C559     1.0000 0.15640  0.55360  0.79340  Biso   1.000  C
  H433     1.0000 0.12590  0.54260  0.77630  Biso   1.000  H
  C560     1.0000 0.17860  0.53260  0.83820  Biso   1.000  C
  H434     1.0000 0.16450  0.50680  0.85130  Biso   1.000  H
  Cd29     1.0000 0.63780  0.87438  0.19120  Biso   1.000  Cd
  Cd30     1.0000 0.38543  0.87781  0.66951  Biso   1.000  Cd
  O85      1.0000 0.63670  0.81321  0.12900  Biso   1.000  O
  O86      1.0000 0.70200  0.81677  0.19060  Biso   1.000  O
  O87      1.0000 0.82120  0.64917  0.11560  Biso   1.000  O
  O88      1.0000 0.83400  0.69920  0.18180  Biso   1.000  O
  O89      1.0000 0.64300  0.71880  0.95850  Biso   1.000  O
  O90      1.0000 0.70310  0.67220  0.95080  Biso   1.000  O
  N71      1.0000 0.59350  0.83944  0.26650  Biso   1.000  N
  N72      1.0000 0.43780  0.84678  0.59860  Biso   1.000  N
  N73      1.0000 0.68820  0.90530  0.11790  Biso   1.000  N
  N74      1.0000 0.82390  0.90851  0.77030  Biso   1.000  N
  N75      1.0000 0.68120  0.70100  0.97760  Biso   1.000  N
  C561     1.0000 0.59710  0.79790  0.27150  Biso   1.000  C
  H435     1.0000 0.62070  0.78330  0.24680  Biso   1.000  H
  C562     1.0000 0.56750  0.77580  0.31140  Biso   1.000  C
  H436     1.0000 0.56920  0.74610  0.31220  Biso   1.000  H
  C563     1.0000 0.53800  0.84020  0.35090  Biso   1.000  C
  H437     1.0000 0.52000  0.85660  0.37970  Biso   1.000  H
  C564     1.0000 0.56800  0.85950  0.30830  Biso   1.000  C
  H438     1.0000 0.57040  0.88920  0.30920  Biso   1.000  H
  C565     1.0000 0.53400  0.79720  0.35180  Biso   1.000  C
  C566     1.0000 0.49960  0.77460  0.39450  Biso   1.000  C
  H439     1.0000 0.46370  0.78450  0.38860  Biso   1.000  H
  C567     1.0000 0.51160  0.77260  0.46310  Biso   1.000  C
  H440     1.0000 0.54940  0.77130  0.46970  Biso   1.000  H
  C568     1.0000 0.48790  0.80220  0.50720  Biso   1.000  C
  C569     1.0000 0.50630  0.80320  0.56630  Biso   1.000  C
  H441     1.0000 0.53680  0.78860  0.57640  Biso   1.000  H
  C570     1.0000 0.48030  0.82540  0.60990  Biso   1.000  C
  H442     1.0000 0.49350  0.82550  0.64980  Biso   1.000  H
  C571     1.0000 0.42080  0.84660  0.54090  Biso   1.000  C
  H443     1.0000 0.39070  0.86190  0.53180  Biso   1.000  H
  C572     1.0000 0.44430  0.82560  0.49490  Biso   1.000  C
  H444     1.0000 0.43100  0.82700  0.45510  Biso   1.000  H
  C573     1.0000 0.66810  0.90820  0.06210  Biso   1.000  C
  H445     1.0000 0.63610  0.89500  0.05500  Biso   1.000  H
  C574     1.0000 0.69050  0.92850  0.01560  Biso   1.000  C
  H446     1.0000 0.67450  0.92920  0.97720  Biso   1.000  H
  C575     1.0000 0.73780  0.94840  0.02470  Biso   1.000  C
  C576     1.0000 0.75980  0.94390  0.08110  Biso   1.000  C
  H447     1.0000 0.79250  0.95570  0.08920  Biso   1.000  H
  C577     1.0000 0.73410  0.92210  0.12540  Biso   1.000  C
  H448     1.0000 0.75020  0.91900  0.16350  Biso   1.000  H
  C578     1.0000 0.76090  0.97710  0.97920  Biso   1.000  C
  H449     1.0000 0.79880  0.97790  0.98470  Biso   1.000  H
  C579     1.0000 0.74810  0.97560  0.91120  Biso   1.000  C
  H450     1.0000 0.71130  0.96770  0.90680  Biso   1.000  H
  C580     1.0000 0.77820  0.95190  0.86540  Biso   1.000  C
  C581     1.0000 0.78000  0.90920  0.86520  Biso   1.000  C
  H451     1.0000 0.76660  0.89380  0.89830  Biso   1.000  H
  C582     1.0000 0.80150  0.88840  0.81670  Biso   1.000  C
  H452     1.0000 0.80040  0.85860  0.81600  Biso   1.000  H
  C583     1.0000 0.82070  0.95120  0.77020  Biso   1.000  C
  H453     1.0000 0.83330  0.96580  0.73600  Biso   1.000  H
  C584     1.0000 0.80040  0.97400  0.81640  Biso   1.000  C
  H454     1.0000 0.80100  0.00370  0.81580  Biso   1.000  H
  C585     1.0000 0.67920  0.80020  0.14780  Biso   1.000  C
  C586     1.0000 0.70260  0.76260  0.11680  Biso   1.000  C
  C587     1.0000 0.74480  0.74230  0.14070  Biso   1.000  C
  H455     1.0000 0.75990  0.75250  0.17680  Biso   1.000  H
  C588     1.0000 0.76530  0.70750  0.11270  Biso   1.000  C
  C589     1.0000 0.81040  0.68410  0.13790  Biso   1.000  C
  C590     1.0000 0.74490  0.69420  0.05790  Biso   1.000  C
  H456     1.0000 0.75950  0.67100  0.03730  Biso   1.000  H
  C591     1.0000 0.70310  0.71500  0.03400  Biso   1.000  C
  C592     1.0000 0.68160  0.74930  0.06280  Biso   1.000  C
  H457     1.0000 0.65300  0.76340  0.04580  Biso   1.000  H
  C593     1.0000 0.60930  0.80600  0.29500  Biso   1.000  C
  H458     1.0000 0.64260  0.79600  0.28580  Biso   1.000  H
  C594     1.0000 0.58180  0.78440  0.33680  Biso   1.000  C
  H459     1.0000 0.59600  0.76040  0.35550  Biso   1.000  H
  C595     1.0000 0.51250  0.83120  0.32170  Biso   1.000  C
  H460     1.0000 0.47830  0.83970  0.32950  Biso   1.000  H
  C596     1.0000 0.54170  0.85200  0.28080  Biso   1.000  C
  H461     1.0000 0.52760  0.87560  0.26080  Biso   1.000  H
  C597     1.0000 0.76500  0.91030  0.85110  Biso   1.000  C
  H462     1.0000 0.74000  0.89570  0.87400  Biso   1.000  H
  C598     1.0000 0.78860  0.89180  0.80440  Biso   1.000  C
  H463     1.0000 0.77860  0.86400  0.79530  Biso   1.000  H
  C599     1.0000 0.84360  0.94640  0.79340  Biso   1.000  C
  H464     1.0000 0.87410  0.95740  0.77630  Biso   1.000  H
  C600     1.0000 0.82140  0.96740  0.83820  Biso   1.000  C
  H465     1.0000 0.83550  0.99320  0.85130  Biso   1.000  H
  Cd31     1.0000 0.13780  0.37438  0.19120  Biso   1.000  Cd
  Cd32     1.0000 0.88543  0.37781  0.66951  Biso   1.000  Cd
  O91      1.0000 0.13670  0.31321  0.12900  Biso   1.000  O
  O92      1.0000 0.20200  0.31677  0.19060  Biso   1.000  O
  O93      1.0000 0.32120  0.14917  0.11560  Biso   1.000  O
  O94      1.0000 0.33400  0.19920  0.18180  Biso   1.000  O
  O95      1.0000 0.14300  0.21880  0.95850  Biso   1.000  O
  O96      1.0000 0.20310  0.17220  0.95080  Biso   1.000  O
  N76      1.0000 0.09350  0.33944  0.26650  Biso   1.000  N
  N77      1.0000 0.93780  0.34678  0.59860  Biso   1.000  N
  N78      1.0000 0.18820  0.40530  0.11790  Biso   1.000  N
  N79      1.0000 0.32390  0.40851  0.77030  Biso   1.000  N
  N80      1.0000 0.18120  0.20100  0.97760  Biso   1.000  N
  C601     1.0000 0.09710  0.29790  0.27150  Biso   1.000  C
  H466     1.0000 0.12070  0.28330  0.24680  Biso   1.000  H
  C602     1.0000 0.06750  0.27580  0.31140  Biso   1.000  C
  H467     1.0000 0.06920  0.24610  0.31220  Biso   1.000  H
  C603     1.0000 0.03800  0.34020  0.35090  Biso   1.000  C
  H468     1.0000 0.02000  0.35660  0.37970  Biso   1.000  H
  C604     1.0000 0.06800  0.35950  0.30830  Biso   1.000  C
  H469     1.0000 0.07040  0.38920  0.30920  Biso   1.000  H
  C605     1.0000 0.03400  0.29720  0.35180  Biso   1.000  C
  C606     1.0000 0.99960  0.27460  0.39450  Biso   1.000  C
  H470     1.0000 0.96370  0.28450  0.38860  Biso   1.000  H
  C607     1.0000 0.01160  0.27260  0.46310  Biso   1.000  C
  H471     1.0000 0.04940  0.27130  0.46970  Biso   1.000  H
  C608     1.0000 0.98790  0.30220  0.50720  Biso   1.000  C
  C609     1.0000 0.00630  0.30320  0.56630  Biso   1.000  C
  H472     1.0000 0.03680  0.28860  0.57640  Biso   1.000  H
  C610     1.0000 0.98030  0.32540  0.60990  Biso   1.000  C
  H473     1.0000 0.99350  0.32550  0.64980  Biso   1.000  H
  C611     1.0000 0.92080  0.34660  0.54090  Biso   1.000  C
  H474     1.0000 0.89070  0.36190  0.53180  Biso   1.000  H
  C612     1.0000 0.94430  0.32560  0.49490  Biso   1.000  C
  H475     1.0000 0.93100  0.32700  0.45510  Biso   1.000  H
  C613     1.0000 0.16810  0.40820  0.06210  Biso   1.000  C
  H476     1.0000 0.13610  0.39500  0.05500  Biso   1.000  H
  C614     1.0000 0.19050  0.42850  0.01560  Biso   1.000  C
  H477     1.0000 0.17450  0.42920  0.97720  Biso   1.000  H
  C615     1.0000 0.23780  0.44840  0.02470  Biso   1.000  C
  C616     1.0000 0.25980  0.44390  0.08110  Biso   1.000  C
  H478     1.0000 0.29250  0.45570  0.08920  Biso   1.000  H
  C617     1.0000 0.23410  0.42210  0.12540  Biso   1.000  C
  H479     1.0000 0.25020  0.41900  0.16350  Biso   1.000  H
  C618     1.0000 0.26090  0.47710  0.97920  Biso   1.000  C
  H480     1.0000 0.29880  0.47790  0.98470  Biso   1.000  H
  C619     1.0000 0.24810  0.47560  0.91120  Biso   1.000  C
  H481     1.0000 0.21130  0.46770  0.90680  Biso   1.000  H
  C620     1.0000 0.27820  0.45190  0.86540  Biso   1.000  C
  C621     1.0000 0.28000  0.40920  0.86520  Biso   1.000  C
  H482     1.0000 0.26660  0.39380  0.89830  Biso   1.000  H
  C622     1.0000 0.30150  0.38840  0.81670  Biso   1.000  C
  H483     1.0000 0.30040  0.35860  0.81600  Biso   1.000  H
  C623     1.0000 0.32070  0.45120  0.77020  Biso   1.000  C
  H484     1.0000 0.33330  0.46580  0.73600  Biso   1.000  H
  C624     1.0000 0.30040  0.47400  0.81640  Biso   1.000  C
  H485     1.0000 0.30100  0.50370  0.81580  Biso   1.000  H
  C625     1.0000 0.17920  0.30020  0.14780  Biso   1.000  C
  C626     1.0000 0.20260  0.26260  0.11680  Biso   1.000  C
  C627     1.0000 0.24480  0.24230  0.14070  Biso   1.000  C
  H486     1.0000 0.25990  0.25250  0.17680  Biso   1.000  H
  C628     1.0000 0.26530  0.20750  0.11270  Biso   1.000  C
  C629     1.0000 0.31040  0.18410  0.13790  Biso   1.000  C
  C630     1.0000 0.24490  0.19420  0.05790  Biso   1.000  C
  H487     1.0000 0.25950  0.17100  0.03730  Biso   1.000  H
  C631     1.0000 0.20310  0.21500  0.03400  Biso   1.000  C
  C632     1.0000 0.18160  0.24930  0.06280  Biso   1.000  C
  H488     1.0000 0.15300  0.26340  0.04580  Biso   1.000  H
  C633     1.0000 0.10930  0.30600  0.29500  Biso   1.000  C
  H489     1.0000 0.14260  0.29600  0.28580  Biso   1.000  H
  C634     1.0000 0.08180  0.28440  0.33680  Biso   1.000  C
  H490     1.0000 0.09600  0.26040  0.35550  Biso   1.000  H
  C635     1.0000 0.01250  0.33120  0.32170  Biso   1.000  C
  H491     1.0000 0.97830  0.33970  0.32950  Biso   1.000  H
  C636     1.0000 0.04170  0.35200  0.28080  Biso   1.000  C
  H492     1.0000 0.02760  0.37560  0.26080  Biso   1.000  H
  C637     1.0000 0.26500  0.41030  0.85110  Biso   1.000  C
  H493     1.0000 0.24000  0.39570  0.87400  Biso   1.000  H
  C638     1.0000 0.28860  0.39180  0.80440  Biso   1.000  C
  H494     1.0000 0.27860  0.36400  0.79530  Biso   1.000  H
  C639     1.0000 0.34360  0.44640  0.79340  Biso   1.000  C
  H495     1.0000 0.37410  0.45740  0.77630  Biso   1.000  H
  C640     1.0000 0.32140  0.46740  0.83820  Biso   1.000  C
  H496     1.0000 0.33550  0.49320  0.85130  Biso   1.000  H
