data_image0
_cell_length_a       43.986
_cell_length_b       14.1893
_cell_length_c       26.3617
_cell_angle_alpha    90
_cell_angle_beta     107.283
_cell_angle_gamma    90

_symmetry_space_group_name_H-M    "P 1"
_symmetry_int_tables_number       1

loop_
  _symmetry_equiv_pos_as_xyz
  'x, y, z'

loop_
  _atom_site_label
  _atom_site_occupancy
  _atom_site_fract_x
  _atom_site_fract_y
  _atom_site_fract_z
  _atom_site_thermal_displace_type
  _atom_site_B_iso_or_equiv
  _atom_site_type_symbol
  O1       1.0000 0.26000  0.09190  0.72810  Biso   1.000  O
  H1       1.0000 0.25540  0.06640  0.75370  Biso   1.000  H
  Ca1      1.0000 0.13716  0.15554  0.43964  Biso   1.000  Ca
  Ca2      1.0000 0.20968  0.30803  0.45716  Biso   1.000  Ca
  Ca3      1.0000 0.05499  0.22706  0.34374  Biso   1.000  Ca
  C1       1.0000 0.05722  0.44810  0.11353  Biso   1.000  C
  C2       1.0000 0.07011  0.44130  0.16890  Biso   1.000  C
  C3       1.0000 0.06039  0.37030  0.19601  Biso   1.000  C
  H2       1.0000 0.06970  0.36650  0.23340  Biso   1.000  H
  C4       1.0000 0.03796  0.30480  0.17162  Biso   1.000  C
  C5       1.0000 0.02610  0.30740  0.11740  Biso   1.000  C
  H3       1.0000 0.01110  0.26170  0.09890  Biso   1.000  H
  C6       1.0000 0.03645  0.37900  0.09000  Biso   1.000  C
  H4       1.0000 0.02840  0.37920  0.05230  Biso   1.000  H
  O2       1.0000 0.09292  0.50260  0.19529  Biso   1.000  O
  C7       1.0000 0.02611  0.23360  0.20301  Biso   1.000  C
  O3       1.0000 0.04203  0.21670  0.25001  Biso   1.000  O
  O4       1.0000 0.00075  0.18910  0.18061  Biso   1.000  O
  C8       1.0000 0.06454  0.52860  0.08176  Biso   1.000  C
  C9       1.0000 0.09456  0.56730  0.08900  Biso   1.000  C
  C10      1.0000 0.09925  0.63620  0.05490  Biso   1.000  C
  H5       1.0000 0.11990  0.66220  0.06060  Biso   1.000  H
  C11      1.0000 0.07444  0.66760  0.01273  Biso   1.000  C
  C12      1.0000 0.04448  0.63300  0.00700  Biso   1.000  C
  H6       1.0000 0.02690  0.65510  0.97900  Biso   1.000  H
  C13      1.0000 0.03985  0.56670  0.04170  Biso   1.000  C
  H7       1.0000 0.01880  0.54600  0.03800  Biso   1.000  H
  O5       1.0000 0.12028  0.53870  0.12840  Biso   1.000  O
  H8       1.0000 0.11490  0.49630  0.14630  Biso   1.000  H
  C14      1.0000 0.08005  0.74230  0.97478  Biso   1.000  C
  O6       1.0000 0.05816  0.75450  0.93236  Biso   1.000  O
  O7       1.0000 0.10626  0.78320  0.98834  Biso   1.000  O
  C15      1.0000 0.10980  0.63730  0.35880  Biso   1.000  C
  C16      1.0000 0.09941  0.57020  0.31830  Biso   1.000  C
  C17      1.0000 0.10640  0.47490  0.33040  Biso   1.000  C
  H9       1.0000 0.09890  0.42910  0.30330  Biso   1.000  H
  C18      1.0000 0.12369  0.44590  0.38024  Biso   1.000  C
  C19      1.0000 0.13577  0.51300  0.41950  Biso   1.000  C
  H10      1.0000 0.14920  0.49440  0.45330  Biso   1.000  H
  C20      1.0000 0.12814  0.60680  0.40910  Biso   1.000  C
  H11      1.0000 0.13550  0.65170  0.43670  Biso   1.000  H
  O8       1.0000 0.08397  0.59640  0.26900  Biso   1.000  O
  H12      1.0000 0.07960  0.54860  0.24940  Biso   1.000  H
  C21      1.0000 0.12892  0.34330  0.39246  Biso   1.000  C
  O9       1.0000 0.15356  0.31722  0.42710  Biso   1.000  O
  O10      1.0000 0.10780  0.28545  0.36810  Biso   1.000  O
  C22      1.0000 0.10074  0.73970  0.35040  Biso   1.000  C
  C23      1.0000 0.07029  0.76980  0.32360  Biso   1.000  C
  C24      1.0000 0.06206  0.86350  0.32400  Biso   1.000  C
  H13      1.0000 0.04070  0.88230  0.30720  Biso   1.000  H
  C25      1.0000 0.08454  0.93100  0.34864  Biso   1.000  C
  C26      1.0000 0.11540  0.90300  0.37210  Biso   1.000  C
  H14      1.0000 0.13130  0.94860  0.38730  Biso   1.000  H
  C27      1.0000 0.12352  0.80800  0.37360  Biso   1.000  C
  H15      1.0000 0.14490  0.78940  0.39060  Biso   1.000  H
  O11      1.0000 0.04704  0.70800  0.29520  Biso   1.000  O
  H16      1.0000 0.03020  0.73790  0.28090  Biso   1.000  H
  C28      1.0000 0.07495  0.03130  0.34748  Biso   1.000  C
  O12      1.0000 0.09385  0.09165  0.37473  Biso   1.000  O
  O13      1.0000 0.04699  0.05577  0.32040  Biso   1.000  O
  C29      1.0000 0.20488  0.06290  0.68850  Biso   1.000  C
  C30      1.0000 0.23286  0.09430  0.68360  Biso   1.000  C
  C31      1.0000 0.23510  0.13400  0.63710  Biso   1.000  C
  H17      1.0000 0.25510  0.15510  0.63470  Biso   1.000  H
  C32      1.0000 0.20803  0.14310  0.59398  Biso   1.000  C
  C33      1.0000 0.17882  0.12360  0.60030  Biso   1.000  C
  H18      1.0000 0.15990  0.14060  0.57330  Biso   1.000  H
  C34      1.0000 0.17688  0.07880  0.64620  Biso   1.000  C
  H19      1.0000 0.15680  0.05900  0.64900  Biso   1.000  H
  C35      1.0000 0.20995  0.18100  0.54173  Biso   1.000  C
  O14      1.0000 0.23622  0.20090  0.53589  Biso   1.000  O
  O15      1.0000 0.18458  0.19590  0.50604  Biso   1.000  O
  C36      1.0000 0.20202  0.01370  0.73750  Biso   1.000  C
  O16      1.0000 0.17200  0.15710  0.76310  Biso   1.000  O
  H20      1.0000 0.17500  0.18230  0.73610  Biso   1.000  H
  C37      1.0000 0.18160  0.05510  0.76550  Biso   1.000  C
  C38      1.0000 0.17810  0.00270  0.80920  Biso   1.000  C
  H21      1.0000 0.16370  0.02460  0.82720  Biso   1.000  H
  C39      1.0000 0.19506  0.92070  0.82680  Biso   1.000  C
  C40      1.0000 0.21301  0.88540  0.79830  Biso   1.000  C
  H22      1.0000 0.22340  0.82650  0.80800  Biso   1.000  H
  C41      1.0000 0.21670  0.93460  0.75420  Biso   1.000  C
  H23      1.0000 0.23040  0.90920  0.73580  Biso   1.000  H
  C42      1.0000 0.18965  0.86750  0.87278  Biso   1.000  C
  O17      1.0000 0.20575  0.79580  0.88874  Biso   1.000  O
  O18      1.0000 0.16918  0.90120  0.89221  Biso   1.000  O
  H24      1.0000 0.25150  0.08880  0.71300  Biso   1.000  H
  O19      1.0000 0.14590  0.06980  0.65310  Biso   1.000  O
  H25      1.0000 0.13220  0.09230  0.62650  Biso   1.000  H
  H26      1.0000 0.17110  0.11360  0.75520  Biso   1.000  H
  O20      1.0000 0.23720  0.89000  0.72720  Biso   1.000  O
  H27      1.0000 0.24470  0.84000  0.74310  Biso   1.000  H
  O21      1.0000 0.76000  0.59190  0.72810  Biso   1.000  O
  H28      1.0000 0.75540  0.56640  0.75370  Biso   1.000  H
  Ca4      1.0000 0.63716  0.65554  0.43964  Biso   1.000  Ca
  Ca5      1.0000 0.70968  0.80803  0.45716  Biso   1.000  Ca
  Ca6      1.0000 0.55499  0.72706  0.34374  Biso   1.000  Ca
  C43      1.0000 0.55722  0.94810  0.11353  Biso   1.000  C
  C44      1.0000 0.57011  0.94130  0.16890  Biso   1.000  C
  C45      1.0000 0.56039  0.87030  0.19601  Biso   1.000  C
  H29      1.0000 0.56970  0.86650  0.23340  Biso   1.000  H
  C46      1.0000 0.53796  0.80480  0.17162  Biso   1.000  C
  C47      1.0000 0.52610  0.80740  0.11740  Biso   1.000  C
  H30      1.0000 0.51110  0.76170  0.09890  Biso   1.000  H
  C48      1.0000 0.53645  0.87900  0.09000  Biso   1.000  C
  H31      1.0000 0.52840  0.87920  0.05230  Biso   1.000  H
  O22      1.0000 0.59292  0.00260  0.19529  Biso   1.000  O
  C49      1.0000 0.52611  0.73360  0.20301  Biso   1.000  C
  O23      1.0000 0.54203  0.71670  0.25001  Biso   1.000  O
  O24      1.0000 0.50075  0.68910  0.18061  Biso   1.000  O
  C50      1.0000 0.56454  0.02860  0.08176  Biso   1.000  C
  C51      1.0000 0.59456  0.06730  0.08900  Biso   1.000  C
  C52      1.0000 0.59925  0.13620  0.05490  Biso   1.000  C
  H32      1.0000 0.61990  0.16220  0.06060  Biso   1.000  H
  C53      1.0000 0.57444  0.16760  0.01273  Biso   1.000  C
  C54      1.0000 0.54448  0.13300  0.00700  Biso   1.000  C
  H33      1.0000 0.52690  0.15510  0.97900  Biso   1.000  H
  C55      1.0000 0.53985  0.06670  0.04170  Biso   1.000  C
  H34      1.0000 0.51880  0.04600  0.03800  Biso   1.000  H
  O25      1.0000 0.62028  0.03870  0.12840  Biso   1.000  O
  H35      1.0000 0.61490  0.99630  0.14630  Biso   1.000  H
  C56      1.0000 0.58005  0.24230  0.97478  Biso   1.000  C
  O26      1.0000 0.55816  0.25450  0.93236  Biso   1.000  O
  O27      1.0000 0.60626  0.28320  0.98834  Biso   1.000  O
  C57      1.0000 0.60980  0.13730  0.35880  Biso   1.000  C
  C58      1.0000 0.59941  0.07020  0.31830  Biso   1.000  C
  C59      1.0000 0.60640  0.97490  0.33040  Biso   1.000  C
  H36      1.0000 0.59890  0.92910  0.30330  Biso   1.000  H
  C60      1.0000 0.62369  0.94590  0.38024  Biso   1.000  C
  C61      1.0000 0.63577  0.01300  0.41950  Biso   1.000  C
  H37      1.0000 0.64920  0.99440  0.45330  Biso   1.000  H
  C62      1.0000 0.62814  0.10680  0.40910  Biso   1.000  C
  H38      1.0000 0.63550  0.15170  0.43670  Biso   1.000  H
  O28      1.0000 0.58397  0.09640  0.26900  Biso   1.000  O
  H39      1.0000 0.57960  0.04860  0.24940  Biso   1.000  H
  C63      1.0000 0.62892  0.84330  0.39246  Biso   1.000  C
  O29      1.0000 0.65356  0.81722  0.42710  Biso   1.000  O
  O30      1.0000 0.60780  0.78545  0.36810  Biso   1.000  O
  C64      1.0000 0.60074  0.23970  0.35040  Biso   1.000  C
  C65      1.0000 0.57029  0.26980  0.32360  Biso   1.000  C
  C66      1.0000 0.56206  0.36350  0.32400  Biso   1.000  C
  H40      1.0000 0.54070  0.38230  0.30720  Biso   1.000  H
  C67      1.0000 0.58454  0.43100  0.34864  Biso   1.000  C
  C68      1.0000 0.61540  0.40300  0.37210  Biso   1.000  C
  H41      1.0000 0.63130  0.44860  0.38730  Biso   1.000  H
  C69      1.0000 0.62352  0.30800  0.37360  Biso   1.000  C
  H42      1.0000 0.64490  0.28940  0.39060  Biso   1.000  H
  O31      1.0000 0.54704  0.20800  0.29520  Biso   1.000  O
  H43      1.0000 0.53020  0.23790  0.28090  Biso   1.000  H
  C70      1.0000 0.57495  0.53130  0.34748  Biso   1.000  C
  O32      1.0000 0.59385  0.59165  0.37473  Biso   1.000  O
  O33      1.0000 0.54699  0.55577  0.32040  Biso   1.000  O
  C71      1.0000 0.70488  0.56290  0.68850  Biso   1.000  C
  C72      1.0000 0.73286  0.59430  0.68360  Biso   1.000  C
  C73      1.0000 0.73510  0.63400  0.63710  Biso   1.000  C
  H44      1.0000 0.75510  0.65510  0.63470  Biso   1.000  H
  C74      1.0000 0.70803  0.64310  0.59398  Biso   1.000  C
  C75      1.0000 0.67882  0.62360  0.60030  Biso   1.000  C
  H45      1.0000 0.65990  0.64060  0.57330  Biso   1.000  H
  C76      1.0000 0.67688  0.57880  0.64620  Biso   1.000  C
  H46      1.0000 0.65680  0.55900  0.64900  Biso   1.000  H
  C77      1.0000 0.70995  0.68100  0.54173  Biso   1.000  C
  O34      1.0000 0.73622  0.70090  0.53589  Biso   1.000  O
  O35      1.0000 0.68458  0.69590  0.50604  Biso   1.000  O
  C78      1.0000 0.70202  0.51370  0.73750  Biso   1.000  C
  O36      1.0000 0.67200  0.65710  0.76310  Biso   1.000  O
  H47      1.0000 0.67500  0.68230  0.73610  Biso   1.000  H
  C79      1.0000 0.68160  0.55510  0.76550  Biso   1.000  C
  C80      1.0000 0.67810  0.50270  0.80920  Biso   1.000  C
  H48      1.0000 0.66370  0.52460  0.82720  Biso   1.000  H
  C81      1.0000 0.69506  0.42070  0.82680  Biso   1.000  C
  C82      1.0000 0.71301  0.38540  0.79830  Biso   1.000  C
  H49      1.0000 0.72340  0.32650  0.80800  Biso   1.000  H
  C83      1.0000 0.71670  0.43460  0.75420  Biso   1.000  C
  H50      1.0000 0.73040  0.40920  0.73580  Biso   1.000  H
  C84      1.0000 0.68965  0.36750  0.87278  Biso   1.000  C
  O37      1.0000 0.70575  0.29580  0.88874  Biso   1.000  O
  O38      1.0000 0.66918  0.40120  0.89221  Biso   1.000  O
  H51      1.0000 0.75150  0.58880  0.71300  Biso   1.000  H
  O39      1.0000 0.64590  0.56980  0.65310  Biso   1.000  O
  H52      1.0000 0.63220  0.59230  0.62650  Biso   1.000  H
  H53      1.0000 0.67110  0.61360  0.75520  Biso   1.000  H
  O40      1.0000 0.73720  0.39000  0.72720  Biso   1.000  O
  H54      1.0000 0.74470  0.34000  0.74310  Biso   1.000  H
  O41      1.0000 0.74000  0.09190  0.77190  Biso   1.000  O
  H55      1.0000 0.74460  0.06640  0.74630  Biso   1.000  H
  Ca7      1.0000 0.86284  0.15554  0.06036  Biso   1.000  Ca
  Ca8      1.0000 0.79032  0.30803  0.04284  Biso   1.000  Ca
  Ca9      1.0000 0.94501  0.22706  0.15626  Biso   1.000  Ca
  C85      1.0000 0.94278  0.44810  0.38647  Biso   1.000  C
  C86      1.0000 0.92989  0.44130  0.33110  Biso   1.000  C
  C87      1.0000 0.93961  0.37030  0.30399  Biso   1.000  C
  H56      1.0000 0.93030  0.36650  0.26660  Biso   1.000  H
  C88      1.0000 0.96204  0.30480  0.32838  Biso   1.000  C
  C89      1.0000 0.97390  0.30740  0.38260  Biso   1.000  C
  H57      1.0000 0.98890  0.26170  0.40110  Biso   1.000  H
  C90      1.0000 0.96355  0.37900  0.41000  Biso   1.000  C
  H58      1.0000 0.97160  0.37920  0.44770  Biso   1.000  H
  O42      1.0000 0.90708  0.50260  0.30471  Biso   1.000  O
  C91      1.0000 0.97389  0.23360  0.29699  Biso   1.000  C
  O43      1.0000 0.95797  0.21670  0.24999  Biso   1.000  O
  O44      1.0000 0.99925  0.18910  0.31939  Biso   1.000  O
  C92      1.0000 0.93546  0.52860  0.41824  Biso   1.000  C
  C93      1.0000 0.90544  0.56730  0.41100  Biso   1.000  C
  C94      1.0000 0.90075  0.63620  0.44510  Biso   1.000  C
  H59      1.0000 0.88010  0.66220  0.43940  Biso   1.000  H
  C95      1.0000 0.92556  0.66760  0.48727  Biso   1.000  C
  C96      1.0000 0.95552  0.63300  0.49300  Biso   1.000  C
  H60      1.0000 0.97310  0.65510  0.52100  Biso   1.000  H
  C97      1.0000 0.96015  0.56670  0.45830  Biso   1.000  C
  H61      1.0000 0.98120  0.54600  0.46200  Biso   1.000  H
  O45      1.0000 0.87972  0.53870  0.37160  Biso   1.000  O
  H62      1.0000 0.88510  0.49630  0.35370  Biso   1.000  H
  C98      1.0000 0.91995  0.74230  0.52522  Biso   1.000  C
  O46      1.0000 0.94184  0.75450  0.56764  Biso   1.000  O
  O47      1.0000 0.89374  0.78320  0.51166  Biso   1.000  O
  C99      1.0000 0.89020  0.63730  0.14120  Biso   1.000  C
  C100     1.0000 0.90059  0.57020  0.18170  Biso   1.000  C
  C101     1.0000 0.89360  0.47490  0.16960  Biso   1.000  C
  H63      1.0000 0.90110  0.42910  0.19670  Biso   1.000  H
  C102     1.0000 0.87631  0.44590  0.11976  Biso   1.000  C
  C103     1.0000 0.86423  0.51300  0.08050  Biso   1.000  C
  H64      1.0000 0.85080  0.49440  0.04670  Biso   1.000  H
  C104     1.0000 0.87186  0.60680  0.09090  Biso   1.000  C
  H65      1.0000 0.86450  0.65170  0.06330  Biso   1.000  H
  O48      1.0000 0.91603  0.59640  0.23100  Biso   1.000  O
  H66      1.0000 0.92040  0.54860  0.25060  Biso   1.000  H
  C105     1.0000 0.87108  0.34330  0.10754  Biso   1.000  C
  O49      1.0000 0.84644  0.31722  0.07290  Biso   1.000  O
  O50      1.0000 0.89220  0.28545  0.13190  Biso   1.000  O
  C106     1.0000 0.89926  0.73970  0.14960  Biso   1.000  C
  C107     1.0000 0.92971  0.76980  0.17640  Biso   1.000  C
  C108     1.0000 0.93794  0.86350  0.17600  Biso   1.000  C
  H67      1.0000 0.95930  0.88230  0.19280  Biso   1.000  H
  C109     1.0000 0.91546  0.93100  0.15136  Biso   1.000  C
  C110     1.0000 0.88460  0.90300  0.12790  Biso   1.000  C
  H68      1.0000 0.86870  0.94860  0.11270  Biso   1.000  H
  C111     1.0000 0.87648  0.80800  0.12640  Biso   1.000  C
  H69      1.0000 0.85510  0.78940  0.10940  Biso   1.000  H
  O51      1.0000 0.95296  0.70800  0.20480  Biso   1.000  O
  H70      1.0000 0.96980  0.73790  0.21910  Biso   1.000  H
  C112     1.0000 0.92505  0.03130  0.15252  Biso   1.000  C
  O52      1.0000 0.90615  0.09165  0.12527  Biso   1.000  O
  O53      1.0000 0.95301  0.05577  0.17960  Biso   1.000  O
  C113     1.0000 0.79512  0.06290  0.81150  Biso   1.000  C
  C114     1.0000 0.76714  0.09430  0.81640  Biso   1.000  C
  C115     1.0000 0.76490  0.13400  0.86290  Biso   1.000  C
  H71      1.0000 0.74490  0.15510  0.86530  Biso   1.000  H
  C116     1.0000 0.79197  0.14310  0.90602  Biso   1.000  C
  C117     1.0000 0.82118  0.12360  0.89970  Biso   1.000  C
  H72      1.0000 0.84010  0.14060  0.92670  Biso   1.000  H
  C118     1.0000 0.82312  0.07880  0.85380  Biso   1.000  C
  H73      1.0000 0.84320  0.05900  0.85100  Biso   1.000  H
  C119     1.0000 0.79005  0.18100  0.95827  Biso   1.000  C
  O54      1.0000 0.76378  0.20090  0.96411  Biso   1.000  O
  O55      1.0000 0.81542  0.19590  0.99396  Biso   1.000  O
  C120     1.0000 0.79798  0.01370  0.76250  Biso   1.000  C
  O56      1.0000 0.82800  0.15710  0.73690  Biso   1.000  O
  H74      1.0000 0.82500  0.18230  0.76390  Biso   1.000  H
  C121     1.0000 0.81840  0.05510  0.73450  Biso   1.000  C
  C122     1.0000 0.82190  0.00270  0.69080  Biso   1.000  C
  H75      1.0000 0.83630  0.02460  0.67280  Biso   1.000  H
  C123     1.0000 0.80494  0.92070  0.67320  Biso   1.000  C
  C124     1.0000 0.78699  0.88540  0.70170  Biso   1.000  C
  H76      1.0000 0.77660  0.82650  0.69200  Biso   1.000  H
  C125     1.0000 0.78330  0.93460  0.74580  Biso   1.000  C
  H77      1.0000 0.76960  0.90920  0.76420  Biso   1.000  H
  C126     1.0000 0.81035  0.86750  0.62722  Biso   1.000  C
  O57      1.0000 0.79425  0.79580  0.61126  Biso   1.000  O
  O58      1.0000 0.83082  0.90120  0.60779  Biso   1.000  O
  H78      1.0000 0.74850  0.08880  0.78700  Biso   1.000  H
  O59      1.0000 0.85410  0.06980  0.84690  Biso   1.000  O
  H79      1.0000 0.86780  0.09230  0.87350  Biso   1.000  H
  H80      1.0000 0.82890  0.11360  0.74480  Biso   1.000  H
  O60      1.0000 0.76280  0.89000  0.77280  Biso   1.000  O
  H81      1.0000 0.75530  0.84000  0.75690  Biso   1.000  H
  O61      1.0000 0.24000  0.59190  0.77190  Biso   1.000  O
  H82      1.0000 0.24460  0.56640  0.74630  Biso   1.000  H
  Ca10     1.0000 0.36284  0.65554  0.06036  Biso   1.000  Ca
  Ca11     1.0000 0.29032  0.80803  0.04284  Biso   1.000  Ca
  Ca12     1.0000 0.44501  0.72706  0.15626  Biso   1.000  Ca
  C127     1.0000 0.44278  0.94810  0.38647  Biso   1.000  C
  C128     1.0000 0.42989  0.94130  0.33110  Biso   1.000  C
  C129     1.0000 0.43961  0.87030  0.30399  Biso   1.000  C
  H83      1.0000 0.43030  0.86650  0.26660  Biso   1.000  H
  C130     1.0000 0.46204  0.80480  0.32838  Biso   1.000  C
  C131     1.0000 0.47390  0.80740  0.38260  Biso   1.000  C
  H84      1.0000 0.48890  0.76170  0.40110  Biso   1.000  H
  C132     1.0000 0.46355  0.87900  0.41000  Biso   1.000  C
  H85      1.0000 0.47160  0.87920  0.44770  Biso   1.000  H
  O62      1.0000 0.40708  0.00260  0.30471  Biso   1.000  O
  C133     1.0000 0.47389  0.73360  0.29699  Biso   1.000  C
  O63      1.0000 0.45797  0.71670  0.24999  Biso   1.000  O
  O64      1.0000 0.49925  0.68910  0.31939  Biso   1.000  O
  C134     1.0000 0.43546  0.02860  0.41824  Biso   1.000  C
  C135     1.0000 0.40544  0.06730  0.41100  Biso   1.000  C
  C136     1.0000 0.40075  0.13620  0.44510  Biso   1.000  C
  H86      1.0000 0.38010  0.16220  0.43940  Biso   1.000  H
  C137     1.0000 0.42556  0.16760  0.48727  Biso   1.000  C
  C138     1.0000 0.45552  0.13300  0.49300  Biso   1.000  C
  H87      1.0000 0.47310  0.15510  0.52100  Biso   1.000  H
  C139     1.0000 0.46015  0.06670  0.45830  Biso   1.000  C
  H88      1.0000 0.48120  0.04600  0.46200  Biso   1.000  H
  O65      1.0000 0.37972  0.03870  0.37160  Biso   1.000  O
  H89      1.0000 0.38510  0.99630  0.35370  Biso   1.000  H
  C140     1.0000 0.41995  0.24230  0.52522  Biso   1.000  C
  O66      1.0000 0.44184  0.25450  0.56764  Biso   1.000  O
  O67      1.0000 0.39374  0.28320  0.51166  Biso   1.000  O
  C141     1.0000 0.39020  0.13730  0.14120  Biso   1.000  C
  C142     1.0000 0.40059  0.07020  0.18170  Biso   1.000  C
  C143     1.0000 0.39360  0.97490  0.16960  Biso   1.000  C
  H90      1.0000 0.40110  0.92910  0.19670  Biso   1.000  H
  C144     1.0000 0.37631  0.94590  0.11976  Biso   1.000  C
  C145     1.0000 0.36423  0.01300  0.08050  Biso   1.000  C
  H91      1.0000 0.35080  0.99440  0.04670  Biso   1.000  H
  C146     1.0000 0.37186  0.10680  0.09090  Biso   1.000  C
  H92      1.0000 0.36450  0.15170  0.06330  Biso   1.000  H
  O68      1.0000 0.41603  0.09640  0.23100  Biso   1.000  O
  H93      1.0000 0.42040  0.04860  0.25060  Biso   1.000  H
  C147     1.0000 0.37108  0.84330  0.10754  Biso   1.000  C
  O69      1.0000 0.34644  0.81722  0.07290  Biso   1.000  O
  O70      1.0000 0.39220  0.78545  0.13190  Biso   1.000  O
  C148     1.0000 0.39926  0.23970  0.14960  Biso   1.000  C
  C149     1.0000 0.42971  0.26980  0.17640  Biso   1.000  C
  C150     1.0000 0.43794  0.36350  0.17600  Biso   1.000  C
  H94      1.0000 0.45930  0.38230  0.19280  Biso   1.000  H
  C151     1.0000 0.41546  0.43100  0.15136  Biso   1.000  C
  C152     1.0000 0.38460  0.40300  0.12790  Biso   1.000  C
  H95      1.0000 0.36870  0.44860  0.11270  Biso   1.000  H
  C153     1.0000 0.37648  0.30800  0.12640  Biso   1.000  C
  H96      1.0000 0.35510  0.28940  0.10940  Biso   1.000  H
  O71      1.0000 0.45296  0.20800  0.20480  Biso   1.000  O
  H97      1.0000 0.46980  0.23790  0.21910  Biso   1.000  H
  C154     1.0000 0.42505  0.53130  0.15252  Biso   1.000  C
  O72      1.0000 0.40615  0.59165  0.12527  Biso   1.000  O
  O73      1.0000 0.45301  0.55577  0.17960  Biso   1.000  O
  C155     1.0000 0.29512  0.56290  0.81150  Biso   1.000  C
  C156     1.0000 0.26714  0.59430  0.81640  Biso   1.000  C
  C157     1.0000 0.26490  0.63400  0.86290  Biso   1.000  C
  H98      1.0000 0.24490  0.65510  0.86530  Biso   1.000  H
  C158     1.0000 0.29197  0.64310  0.90602  Biso   1.000  C
  C159     1.0000 0.32118  0.62360  0.89970  Biso   1.000  C
  H99      1.0000 0.34010  0.64060  0.92670  Biso   1.000  H
  C160     1.0000 0.32312  0.57880  0.85380  Biso   1.000  C
  H100     1.0000 0.34320  0.55900  0.85100  Biso   1.000  H
  C161     1.0000 0.29005  0.68100  0.95827  Biso   1.000  C
  O74      1.0000 0.26378  0.70090  0.96411  Biso   1.000  O
  O75      1.0000 0.31542  0.69590  0.99396  Biso   1.000  O
  C162     1.0000 0.29798  0.51370  0.76250  Biso   1.000  C
  O76      1.0000 0.32800  0.65710  0.73690  Biso   1.000  O
  H101     1.0000 0.32500  0.68230  0.76390  Biso   1.000  H
  C163     1.0000 0.31840  0.55510  0.73450  Biso   1.000  C
  C164     1.0000 0.32190  0.50270  0.69080  Biso   1.000  C
  H102     1.0000 0.33630  0.52460  0.67280  Biso   1.000  H
  C165     1.0000 0.30494  0.42070  0.67320  Biso   1.000  C
  C166     1.0000 0.28699  0.38540  0.70170  Biso   1.000  C
  H103     1.0000 0.27660  0.32650  0.69200  Biso   1.000  H
  C167     1.0000 0.28330  0.43460  0.74580  Biso   1.000  C
  H104     1.0000 0.26960  0.40920  0.76420  Biso   1.000  H
  C168     1.0000 0.31035  0.36750  0.62722  Biso   1.000  C
  O77      1.0000 0.29425  0.29580  0.61126  Biso   1.000  O
  O78      1.0000 0.33082  0.40120  0.60779  Biso   1.000  O
  H105     1.0000 0.24850  0.58880  0.78700  Biso   1.000  H
  O79      1.0000 0.35410  0.56980  0.84690  Biso   1.000  O
  H106     1.0000 0.36780  0.59230  0.87350  Biso   1.000  H
  H107     1.0000 0.32890  0.61360  0.74480  Biso   1.000  H
  O80      1.0000 0.26280  0.39000  0.77280  Biso   1.000  O
  H108     1.0000 0.25530  0.34000  0.75690  Biso   1.000  H
  O81      1.0000 0.74000  0.90810  0.27190  Biso   1.000  O
  H109     1.0000 0.74460  0.93360  0.24630  Biso   1.000  H
  Ca13     1.0000 0.86284  0.84446  0.56036  Biso   1.000  Ca
  Ca14     1.0000 0.79032  0.69197  0.54284  Biso   1.000  Ca
  Ca15     1.0000 0.94501  0.77294  0.65626  Biso   1.000  Ca
  C169     1.0000 0.94278  0.55190  0.88647  Biso   1.000  C
  C170     1.0000 0.92989  0.55870  0.83110  Biso   1.000  C
  C171     1.0000 0.93961  0.62970  0.80399  Biso   1.000  C
  H110     1.0000 0.93030  0.63350  0.76660  Biso   1.000  H
  C172     1.0000 0.96204  0.69520  0.82838  Biso   1.000  C
  C173     1.0000 0.97390  0.69260  0.88260  Biso   1.000  C
  H111     1.0000 0.98890  0.73830  0.90110  Biso   1.000  H
  C174     1.0000 0.96355  0.62100  0.91000  Biso   1.000  C
  H112     1.0000 0.97160  0.62080  0.94770  Biso   1.000  H
  O82      1.0000 0.90708  0.49740  0.80471  Biso   1.000  O
  C175     1.0000 0.97389  0.76640  0.79699  Biso   1.000  C
  O83      1.0000 0.95797  0.78330  0.74999  Biso   1.000  O
  O84      1.0000 0.99925  0.81090  0.81939  Biso   1.000  O
  C176     1.0000 0.93546  0.47140  0.91824  Biso   1.000  C
  C177     1.0000 0.90544  0.43270  0.91100  Biso   1.000  C
  C178     1.0000 0.90075  0.36380  0.94510  Biso   1.000  C
  H113     1.0000 0.88010  0.33780  0.93940  Biso   1.000  H
  C179     1.0000 0.92556  0.33240  0.98727  Biso   1.000  C
  C180     1.0000 0.95552  0.36700  0.99300  Biso   1.000  C
  H114     1.0000 0.97310  0.34490  0.02100  Biso   1.000  H
  C181     1.0000 0.96015  0.43330  0.95830  Biso   1.000  C
  H115     1.0000 0.98120  0.45400  0.96200  Biso   1.000  H
  O85      1.0000 0.87972  0.46130  0.87160  Biso   1.000  O
  H116     1.0000 0.88510  0.50370  0.85370  Biso   1.000  H
  C182     1.0000 0.91995  0.25770  0.02522  Biso   1.000  C
  O86      1.0000 0.94184  0.24550  0.06764  Biso   1.000  O
  O87      1.0000 0.89374  0.21680  0.01166  Biso   1.000  O
  C183     1.0000 0.89020  0.36270  0.64120  Biso   1.000  C
  C184     1.0000 0.90059  0.42980  0.68170  Biso   1.000  C
  C185     1.0000 0.89360  0.52510  0.66960  Biso   1.000  C
  H117     1.0000 0.90110  0.57090  0.69670  Biso   1.000  H
  C186     1.0000 0.87631  0.55410  0.61976  Biso   1.000  C
  C187     1.0000 0.86423  0.48700  0.58050  Biso   1.000  C
  H118     1.0000 0.85080  0.50560  0.54670  Biso   1.000  H
  C188     1.0000 0.87186  0.39320  0.59090  Biso   1.000  C
  H119     1.0000 0.86450  0.34830  0.56330  Biso   1.000  H
  O88      1.0000 0.91603  0.40360  0.73100  Biso   1.000  O
  H120     1.0000 0.92040  0.45140  0.75060  Biso   1.000  H
  C189     1.0000 0.87108  0.65670  0.60754  Biso   1.000  C
  O89      1.0000 0.84644  0.68278  0.57290  Biso   1.000  O
  O90      1.0000 0.89220  0.71455  0.63190  Biso   1.000  O
  C190     1.0000 0.89926  0.26030  0.64960  Biso   1.000  C
  C191     1.0000 0.92971  0.23020  0.67640  Biso   1.000  C
  C192     1.0000 0.93794  0.13650  0.67600  Biso   1.000  C
  H121     1.0000 0.95930  0.11770  0.69280  Biso   1.000  H
  C193     1.0000 0.91546  0.06900  0.65136  Biso   1.000  C
  C194     1.0000 0.88460  0.09700  0.62790  Biso   1.000  C
  H122     1.0000 0.86870  0.05140  0.61270  Biso   1.000  H
  C195     1.0000 0.87648  0.19200  0.62640  Biso   1.000  C
  H123     1.0000 0.85510  0.21060  0.60940  Biso   1.000  H
  O91      1.0000 0.95296  0.29200  0.70480  Biso   1.000  O
  H124     1.0000 0.96980  0.26210  0.71910  Biso   1.000  H
  C196     1.0000 0.92505  0.96870  0.65252  Biso   1.000  C
  O92      1.0000 0.90615  0.90835  0.62527  Biso   1.000  O
  O93      1.0000 0.95301  0.94423  0.67960  Biso   1.000  O
  C197     1.0000 0.79512  0.93710  0.31150  Biso   1.000  C
  C198     1.0000 0.76714  0.90570  0.31640  Biso   1.000  C
  C199     1.0000 0.76490  0.86600  0.36290  Biso   1.000  C
  H125     1.0000 0.74490  0.84490  0.36530  Biso   1.000  H
  C200     1.0000 0.79197  0.85690  0.40602  Biso   1.000  C
  C201     1.0000 0.82118  0.87640  0.39970  Biso   1.000  C
  H126     1.0000 0.84010  0.85940  0.42670  Biso   1.000  H
  C202     1.0000 0.82312  0.92120  0.35380  Biso   1.000  C
  H127     1.0000 0.84320  0.94100  0.35100  Biso   1.000  H
  C203     1.0000 0.79005  0.81900  0.45827  Biso   1.000  C
  O94      1.0000 0.76378  0.79910  0.46411  Biso   1.000  O
  O95      1.0000 0.81542  0.80410  0.49396  Biso   1.000  O
  C204     1.0000 0.79798  0.98630  0.26250  Biso   1.000  C
  O96      1.0000 0.82800  0.84290  0.23690  Biso   1.000  O
  H128     1.0000 0.82500  0.81770  0.26390  Biso   1.000  H
  C205     1.0000 0.81840  0.94490  0.23450  Biso   1.000  C
  C206     1.0000 0.82190  0.99730  0.19080  Biso   1.000  C
  H129     1.0000 0.83630  0.97540  0.17280  Biso   1.000  H
  C207     1.0000 0.80494  0.07930  0.17320  Biso   1.000  C
  C208     1.0000 0.78699  0.11460  0.20170  Biso   1.000  C
  H130     1.0000 0.77660  0.17350  0.19200  Biso   1.000  H
  C209     1.0000 0.78330  0.06540  0.24580  Biso   1.000  C
  H131     1.0000 0.76960  0.09080  0.26420  Biso   1.000  H
  C210     1.0000 0.81035  0.13250  0.12722  Biso   1.000  C
  O97      1.0000 0.79425  0.20420  0.11126  Biso   1.000  O
  O98      1.0000 0.83082  0.09880  0.10779  Biso   1.000  O
  H132     1.0000 0.74850  0.91120  0.28700  Biso   1.000  H
  O99      1.0000 0.85410  0.93020  0.34690  Biso   1.000  O
  H133     1.0000 0.86780  0.90770  0.37350  Biso   1.000  H
  H134     1.0000 0.82890  0.88640  0.24480  Biso   1.000  H
  O100     1.0000 0.76280  0.11000  0.27280  Biso   1.000  O
  H135     1.0000 0.75530  0.16000  0.25690  Biso   1.000  H
  O101     1.0000 0.24000  0.40810  0.27190  Biso   1.000  O
  H136     1.0000 0.24460  0.43360  0.24630  Biso   1.000  H
  Ca16     1.0000 0.36284  0.34446  0.56036  Biso   1.000  Ca
  Ca17     1.0000 0.29032  0.19197  0.54284  Biso   1.000  Ca
  Ca18     1.0000 0.44501  0.27294  0.65626  Biso   1.000  Ca
  C211     1.0000 0.44278  0.05190  0.88647  Biso   1.000  C
  C212     1.0000 0.42989  0.05870  0.83110  Biso   1.000  C
  C213     1.0000 0.43961  0.12970  0.80399  Biso   1.000  C
  H137     1.0000 0.43030  0.13350  0.76660  Biso   1.000  H
  C214     1.0000 0.46204  0.19520  0.82838  Biso   1.000  C
  C215     1.0000 0.47390  0.19260  0.88260  Biso   1.000  C
  H138     1.0000 0.48890  0.23830  0.90110  Biso   1.000  H
  C216     1.0000 0.46355  0.12100  0.91000  Biso   1.000  C
  H139     1.0000 0.47160  0.12080  0.94770  Biso   1.000  H
  O102     1.0000 0.40708  0.99740  0.80471  Biso   1.000  O
  C217     1.0000 0.47389  0.26640  0.79699  Biso   1.000  C
  O103     1.0000 0.45797  0.28330  0.74999  Biso   1.000  O
  O104     1.0000 0.49925  0.31090  0.81939  Biso   1.000  O
  C218     1.0000 0.43546  0.97140  0.91824  Biso   1.000  C
  C219     1.0000 0.40544  0.93270  0.91100  Biso   1.000  C
  C220     1.0000 0.40075  0.86380  0.94510  Biso   1.000  C
  H140     1.0000 0.38010  0.83780  0.93940  Biso   1.000  H
  C221     1.0000 0.42556  0.83240  0.98727  Biso   1.000  C
  C222     1.0000 0.45552  0.86700  0.99300  Biso   1.000  C
  H141     1.0000 0.47310  0.84490  0.02100  Biso   1.000  H
  C223     1.0000 0.46015  0.93330  0.95830  Biso   1.000  C
  H142     1.0000 0.48120  0.95400  0.96200  Biso   1.000  H
  O105     1.0000 0.37972  0.96130  0.87160  Biso   1.000  O
  H143     1.0000 0.38510  0.00370  0.85370  Biso   1.000  H
  C224     1.0000 0.41995  0.75770  0.02522  Biso   1.000  C
  O106     1.0000 0.44184  0.74550  0.06764  Biso   1.000  O
  O107     1.0000 0.39374  0.71680  0.01166  Biso   1.000  O
  C225     1.0000 0.39020  0.86270  0.64120  Biso   1.000  C
  C226     1.0000 0.40059  0.92980  0.68170  Biso   1.000  C
  C227     1.0000 0.39360  0.02510  0.66960  Biso   1.000  C
  H144     1.0000 0.40110  0.07090  0.69670  Biso   1.000  H
  C228     1.0000 0.37631  0.05410  0.61976  Biso   1.000  C
  C229     1.0000 0.36423  0.98700  0.58050  Biso   1.000  C
  H145     1.0000 0.35080  0.00560  0.54670  Biso   1.000  H
  C230     1.0000 0.37186  0.89320  0.59090  Biso   1.000  C
  H146     1.0000 0.36450  0.84830  0.56330  Biso   1.000  H
  O108     1.0000 0.41603  0.90360  0.73100  Biso   1.000  O
  H147     1.0000 0.42040  0.95140  0.75060  Biso   1.000  H
  C231     1.0000 0.37108  0.15670  0.60754  Biso   1.000  C
  O109     1.0000 0.34644  0.18278  0.57290  Biso   1.000  O
  O110     1.0000 0.39220  0.21455  0.63190  Biso   1.000  O
  C232     1.0000 0.39926  0.76030  0.64960  Biso   1.000  C
  C233     1.0000 0.42971  0.73020  0.67640  Biso   1.000  C
  C234     1.0000 0.43794  0.63650  0.67600  Biso   1.000  C
  H148     1.0000 0.45930  0.61770  0.69280  Biso   1.000  H
  C235     1.0000 0.41546  0.56900  0.65136  Biso   1.000  C
  C236     1.0000 0.38460  0.59700  0.62790  Biso   1.000  C
  H149     1.0000 0.36870  0.55140  0.61270  Biso   1.000  H
  C237     1.0000 0.37648  0.69200  0.62640  Biso   1.000  C
  H150     1.0000 0.35510  0.71060  0.60940  Biso   1.000  H
  O111     1.0000 0.45296  0.79200  0.70480  Biso   1.000  O
  H151     1.0000 0.46980  0.76210  0.71910  Biso   1.000  H
  C238     1.0000 0.42505  0.46870  0.65252  Biso   1.000  C
  O112     1.0000 0.40615  0.40835  0.62527  Biso   1.000  O
  O113     1.0000 0.45301  0.44423  0.67960  Biso   1.000  O
  C239     1.0000 0.29512  0.43710  0.31150  Biso   1.000  C
  C240     1.0000 0.26714  0.40570  0.31640  Biso   1.000  C
  C241     1.0000 0.26490  0.36600  0.36290  Biso   1.000  C
  H152     1.0000 0.24490  0.34490  0.36530  Biso   1.000  H
  C242     1.0000 0.29197  0.35690  0.40602  Biso   1.000  C
  C243     1.0000 0.32118  0.37640  0.39970  Biso   1.000  C
  H153     1.0000 0.34010  0.35940  0.42670  Biso   1.000  H
  C244     1.0000 0.32312  0.42120  0.35380  Biso   1.000  C
  H154     1.0000 0.34320  0.44100  0.35100  Biso   1.000  H
  C245     1.0000 0.29005  0.31900  0.45827  Biso   1.000  C
  O114     1.0000 0.26378  0.29910  0.46411  Biso   1.000  O
  O115     1.0000 0.31542  0.30410  0.49396  Biso   1.000  O
  C246     1.0000 0.29798  0.48630  0.26250  Biso   1.000  C
  O116     1.0000 0.32800  0.34290  0.23690  Biso   1.000  O
  H155     1.0000 0.32500  0.31770  0.26390  Biso   1.000  H
  C247     1.0000 0.31840  0.44490  0.23450  Biso   1.000  C
  C248     1.0000 0.32190  0.49730  0.19080  Biso   1.000  C
  H156     1.0000 0.33630  0.47540  0.17280  Biso   1.000  H
  C249     1.0000 0.30494  0.57930  0.17320  Biso   1.000  C
  C250     1.0000 0.28699  0.61460  0.20170  Biso   1.000  C
  H157     1.0000 0.27660  0.67350  0.19200  Biso   1.000  H
  C251     1.0000 0.28330  0.56540  0.24580  Biso   1.000  C
  H158     1.0000 0.26960  0.59080  0.26420  Biso   1.000  H
  C252     1.0000 0.31035  0.63250  0.12722  Biso   1.000  C
  O117     1.0000 0.29425  0.70420  0.11126  Biso   1.000  O
  O118     1.0000 0.33082  0.59880  0.10779  Biso   1.000  O
  H159     1.0000 0.24850  0.41120  0.28700  Biso   1.000  H
  O119     1.0000 0.35410  0.43020  0.34690  Biso   1.000  O
  H160     1.0000 0.36780  0.40770  0.37350  Biso   1.000  H
  H161     1.0000 0.32890  0.38640  0.24480  Biso   1.000  H
  O120     1.0000 0.26280  0.61000  0.27280  Biso   1.000  O
  H162     1.0000 0.25530  0.66000  0.25690  Biso   1.000  H
  O121     1.0000 0.26000  0.90810  0.22810  Biso   1.000  O
  H163     1.0000 0.25540  0.93360  0.25370  Biso   1.000  H
  Ca19     1.0000 0.13716  0.84446  0.93964  Biso   1.000  Ca
  Ca20     1.0000 0.20968  0.69197  0.95716  Biso   1.000  Ca
  Ca21     1.0000 0.05499  0.77294  0.84374  Biso   1.000  Ca
  C253     1.0000 0.05722  0.55190  0.61353  Biso   1.000  C
  C254     1.0000 0.07011  0.55870  0.66890  Biso   1.000  C
  C255     1.0000 0.06039  0.62970  0.69601  Biso   1.000  C
  H164     1.0000 0.06970  0.63350  0.73340  Biso   1.000  H
  C256     1.0000 0.03796  0.69520  0.67162  Biso   1.000  C
  C257     1.0000 0.02610  0.69260  0.61740  Biso   1.000  C
  H165     1.0000 0.01110  0.73830  0.59890  Biso   1.000  H
  C258     1.0000 0.03645  0.62100  0.59000  Biso   1.000  C
  H166     1.0000 0.02840  0.62080  0.55230  Biso   1.000  H
  O122     1.0000 0.09292  0.49740  0.69529  Biso   1.000  O
  C259     1.0000 0.02611  0.76640  0.70301  Biso   1.000  C
  O123     1.0000 0.04203  0.78330  0.75001  Biso   1.000  O
  O124     1.0000 0.00075  0.81090  0.68061  Biso   1.000  O
  C260     1.0000 0.06454  0.47140  0.58176  Biso   1.000  C
  C261     1.0000 0.09456  0.43270  0.58900  Biso   1.000  C
  C262     1.0000 0.09925  0.36380  0.55490  Biso   1.000  C
  H167     1.0000 0.11990  0.33780  0.56060  Biso   1.000  H
  C263     1.0000 0.07444  0.33240  0.51273  Biso   1.000  C
  C264     1.0000 0.04448  0.36700  0.50700  Biso   1.000  C
  H168     1.0000 0.02690  0.34490  0.47900  Biso   1.000  H
  C265     1.0000 0.03985  0.43330  0.54170  Biso   1.000  C
  H169     1.0000 0.01880  0.45400  0.53800  Biso   1.000  H
  O125     1.0000 0.12028  0.46130  0.62840  Biso   1.000  O
  H170     1.0000 0.11490  0.50370  0.64630  Biso   1.000  H
  C266     1.0000 0.08005  0.25770  0.47478  Biso   1.000  C
  O126     1.0000 0.05816  0.24550  0.43236  Biso   1.000  O
  O127     1.0000 0.10626  0.21680  0.48834  Biso   1.000  O
  C267     1.0000 0.10980  0.36270  0.85880  Biso   1.000  C
  C268     1.0000 0.09941  0.42980  0.81830  Biso   1.000  C
  C269     1.0000 0.10640  0.52510  0.83040  Biso   1.000  C
  H171     1.0000 0.09890  0.57090  0.80330  Biso   1.000  H
  C270     1.0000 0.12369  0.55410  0.88024  Biso   1.000  C
  C271     1.0000 0.13577  0.48700  0.91950  Biso   1.000  C
  H172     1.0000 0.14920  0.50560  0.95330  Biso   1.000  H
  C272     1.0000 0.12814  0.39320  0.90910  Biso   1.000  C
  H173     1.0000 0.13550  0.34830  0.93670  Biso   1.000  H
  O128     1.0000 0.08397  0.40360  0.76900  Biso   1.000  O
  H174     1.0000 0.07960  0.45140  0.74940  Biso   1.000  H
  C273     1.0000 0.12892  0.65670  0.89246  Biso   1.000  C
  O129     1.0000 0.15356  0.68278  0.92710  Biso   1.000  O
  O130     1.0000 0.10780  0.71455  0.86810  Biso   1.000  O
  C274     1.0000 0.10074  0.26030  0.85040  Biso   1.000  C
  C275     1.0000 0.07029  0.23020  0.82360  Biso   1.000  C
  C276     1.0000 0.06206  0.13650  0.82400  Biso   1.000  C
  H175     1.0000 0.04070  0.11770  0.80720  Biso   1.000  H
  C277     1.0000 0.08454  0.06900  0.84864  Biso   1.000  C
  C278     1.0000 0.11540  0.09700  0.87210  Biso   1.000  C
  H176     1.0000 0.13130  0.05140  0.88730  Biso   1.000  H
  C279     1.0000 0.12352  0.19200  0.87360  Biso   1.000  C
  H177     1.0000 0.14490  0.21060  0.89060  Biso   1.000  H
  O131     1.0000 0.04704  0.29200  0.79520  Biso   1.000  O
  H178     1.0000 0.03020  0.26210  0.78090  Biso   1.000  H
  C280     1.0000 0.07495  0.96870  0.84748  Biso   1.000  C
  O132     1.0000 0.09385  0.90835  0.87473  Biso   1.000  O
  O133     1.0000 0.04699  0.94423  0.82040  Biso   1.000  O
  C281     1.0000 0.20488  0.93710  0.18850  Biso   1.000  C
  C282     1.0000 0.23286  0.90570  0.18360  Biso   1.000  C
  C283     1.0000 0.23510  0.86600  0.13710  Biso   1.000  C
  H179     1.0000 0.25510  0.84490  0.13470  Biso   1.000  H
  C284     1.0000 0.20803  0.85690  0.09398  Biso   1.000  C
  C285     1.0000 0.17882  0.87640  0.10030  Biso   1.000  C
  H180     1.0000 0.15990  0.85940  0.07330  Biso   1.000  H
  C286     1.0000 0.17688  0.92120  0.14620  Biso   1.000  C
  H181     1.0000 0.15680  0.94100  0.14900  Biso   1.000  H
  C287     1.0000 0.20995  0.81900  0.04173  Biso   1.000  C
  O134     1.0000 0.23622  0.79910  0.03589  Biso   1.000  O
  O135     1.0000 0.18458  0.80410  0.00604  Biso   1.000  O
  C288     1.0000 0.20202  0.98630  0.23750  Biso   1.000  C
  O136     1.0000 0.17200  0.84290  0.26310  Biso   1.000  O
  H182     1.0000 0.17500  0.81770  0.23610  Biso   1.000  H
  C289     1.0000 0.18160  0.94490  0.26550  Biso   1.000  C
  C290     1.0000 0.17810  0.99730  0.30920  Biso   1.000  C
  H183     1.0000 0.16370  0.97540  0.32720  Biso   1.000  H
  C291     1.0000 0.19506  0.07930  0.32680  Biso   1.000  C
  C292     1.0000 0.21301  0.11460  0.29830  Biso   1.000  C
  H184     1.0000 0.22340  0.17350  0.30800  Biso   1.000  H
  C293     1.0000 0.21670  0.06540  0.25420  Biso   1.000  C
  H185     1.0000 0.23040  0.09080  0.23580  Biso   1.000  H
  C294     1.0000 0.18965  0.13250  0.37278  Biso   1.000  C
  O137     1.0000 0.20575  0.20420  0.38874  Biso   1.000  O
  O138     1.0000 0.16918  0.09880  0.39221  Biso   1.000  O
  H186     1.0000 0.25150  0.91120  0.21300  Biso   1.000  H
  O139     1.0000 0.14590  0.93020  0.15310  Biso   1.000  O
  H187     1.0000 0.13220  0.90770  0.12650  Biso   1.000  H
  H188     1.0000 0.17110  0.88640  0.25520  Biso   1.000  H
  O140     1.0000 0.23720  0.11000  0.22720  Biso   1.000  O
  H189     1.0000 0.24470  0.16000  0.24310  Biso   1.000  H
  O141     1.0000 0.76000  0.40810  0.22810  Biso   1.000  O
  H190     1.0000 0.75540  0.43360  0.25370  Biso   1.000  H
  Ca22     1.0000 0.63716  0.34446  0.93964  Biso   1.000  Ca
  Ca23     1.0000 0.70968  0.19197  0.95716  Biso   1.000  Ca
  Ca24     1.0000 0.55499  0.27294  0.84374  Biso   1.000  Ca
  C295     1.0000 0.55722  0.05190  0.61353  Biso   1.000  C
  C296     1.0000 0.57011  0.05870  0.66890  Biso   1.000  C
  C297     1.0000 0.56039  0.12970  0.69601  Biso   1.000  C
  H191     1.0000 0.56970  0.13350  0.73340  Biso   1.000  H
  C298     1.0000 0.53796  0.19520  0.67162  Biso   1.000  C
  C299     1.0000 0.52610  0.19260  0.61740  Biso   1.000  C
  H192     1.0000 0.51110  0.23830  0.59890  Biso   1.000  H
  C300     1.0000 0.53645  0.12100  0.59000  Biso   1.000  C
  H193     1.0000 0.52840  0.12080  0.55230  Biso   1.000  H
  O142     1.0000 0.59292  0.99740  0.69529  Biso   1.000  O
  C301     1.0000 0.52611  0.26640  0.70301  Biso   1.000  C
  O143     1.0000 0.54203  0.28330  0.75001  Biso   1.000  O
  O144     1.0000 0.50075  0.31090  0.68061  Biso   1.000  O
  C302     1.0000 0.56454  0.97140  0.58176  Biso   1.000  C
  C303     1.0000 0.59456  0.93270  0.58900  Biso   1.000  C
  C304     1.0000 0.59925  0.86380  0.55490  Biso   1.000  C
  H194     1.0000 0.61990  0.83780  0.56060  Biso   1.000  H
  C305     1.0000 0.57444  0.83240  0.51273  Biso   1.000  C
  C306     1.0000 0.54448  0.86700  0.50700  Biso   1.000  C
  H195     1.0000 0.52690  0.84490  0.47900  Biso   1.000  H
  C307     1.0000 0.53985  0.93330  0.54170  Biso   1.000  C
  H196     1.0000 0.51880  0.95400  0.53800  Biso   1.000  H
  O145     1.0000 0.62028  0.96130  0.62840  Biso   1.000  O
  H197     1.0000 0.61490  0.00370  0.64630  Biso   1.000  H
  C308     1.0000 0.58005  0.75770  0.47478  Biso   1.000  C
  O146     1.0000 0.55816  0.74550  0.43236  Biso   1.000  O
  O147     1.0000 0.60626  0.71680  0.48834  Biso   1.000  O
  C309     1.0000 0.60980  0.86270  0.85880  Biso   1.000  C
  C310     1.0000 0.59941  0.92980  0.81830  Biso   1.000  C
  C311     1.0000 0.60640  0.02510  0.83040  Biso   1.000  C
  H198     1.0000 0.59890  0.07090  0.80330  Biso   1.000  H
  C312     1.0000 0.62369  0.05410  0.88024  Biso   1.000  C
  C313     1.0000 0.63577  0.98700  0.91950  Biso   1.000  C
  H199     1.0000 0.64920  0.00560  0.95330  Biso   1.000  H
  C314     1.0000 0.62814  0.89320  0.90910  Biso   1.000  C
  H200     1.0000 0.63550  0.84830  0.93670  Biso   1.000  H
  O148     1.0000 0.58397  0.90360  0.76900  Biso   1.000  O
  H201     1.0000 0.57960  0.95140  0.74940  Biso   1.000  H
  C315     1.0000 0.62892  0.15670  0.89246  Biso   1.000  C
  O149     1.0000 0.65356  0.18278  0.92710  Biso   1.000  O
  O150     1.0000 0.60780  0.21455  0.86810  Biso   1.000  O
  C316     1.0000 0.60074  0.76030  0.85040  Biso   1.000  C
  C317     1.0000 0.57029  0.73020  0.82360  Biso   1.000  C
  C318     1.0000 0.56206  0.63650  0.82400  Biso   1.000  C
  H202     1.0000 0.54070  0.61770  0.80720  Biso   1.000  H
  C319     1.0000 0.58454  0.56900  0.84864  Biso   1.000  C
  C320     1.0000 0.61540  0.59700  0.87210  Biso   1.000  C
  H203     1.0000 0.63130  0.55140  0.88730  Biso   1.000  H
  C321     1.0000 0.62352  0.69200  0.87360  Biso   1.000  C
  H204     1.0000 0.64490  0.71060  0.89060  Biso   1.000  H
  O151     1.0000 0.54704  0.79200  0.79520  Biso   1.000  O
  H205     1.0000 0.53020  0.76210  0.78090  Biso   1.000  H
  C322     1.0000 0.57495  0.46870  0.84748  Biso   1.000  C
  O152     1.0000 0.59385  0.40835  0.87473  Biso   1.000  O
  O153     1.0000 0.54699  0.44423  0.82040  Biso   1.000  O
  C323     1.0000 0.70488  0.43710  0.18850  Biso   1.000  C
  C324     1.0000 0.73286  0.40570  0.18360  Biso   1.000  C
  C325     1.0000 0.73510  0.36600  0.13710  Biso   1.000  C
  H206     1.0000 0.75510  0.34490  0.13470  Biso   1.000  H
  C326     1.0000 0.70803  0.35690  0.09398  Biso   1.000  C
  C327     1.0000 0.67882  0.37640  0.10030  Biso   1.000  C
  H207     1.0000 0.65990  0.35940  0.07330  Biso   1.000  H
  C328     1.0000 0.67688  0.42120  0.14620  Biso   1.000  C
  H208     1.0000 0.65680  0.44100  0.14900  Biso   1.000  H
  C329     1.0000 0.70995  0.31900  0.04173  Biso   1.000  C
  O154     1.0000 0.73622  0.29910  0.03589  Biso   1.000  O
  O155     1.0000 0.68458  0.30410  0.00604  Biso   1.000  O
  C330     1.0000 0.70202  0.48630  0.23750  Biso   1.000  C
  O156     1.0000 0.67200  0.34290  0.26310  Biso   1.000  O
  H209     1.0000 0.67500  0.31770  0.23610  Biso   1.000  H
  C331     1.0000 0.68160  0.44490  0.26550  Biso   1.000  C
  C332     1.0000 0.67810  0.49730  0.30920  Biso   1.000  C
  H210     1.0000 0.66370  0.47540  0.32720  Biso   1.000  H
  C333     1.0000 0.69506  0.57930  0.32680  Biso   1.000  C
  C334     1.0000 0.71301  0.61460  0.29830  Biso   1.000  C
  H211     1.0000 0.72340  0.67350  0.30800  Biso   1.000  H
  C335     1.0000 0.71670  0.56540  0.25420  Biso   1.000  C
  H212     1.0000 0.73040  0.59080  0.23580  Biso   1.000  H
  C336     1.0000 0.68965  0.63250  0.37278  Biso   1.000  C
  O157     1.0000 0.70575  0.70420  0.38874  Biso   1.000  O
  O158     1.0000 0.66918  0.59880  0.39221  Biso   1.000  O
  H213     1.0000 0.75150  0.41120  0.21300  Biso   1.000  H
  O159     1.0000 0.64590  0.43020  0.15310  Biso   1.000  O
  H214     1.0000 0.63220  0.40770  0.12650  Biso   1.000  H
  H215     1.0000 0.67110  0.38640  0.25520  Biso   1.000  H
  O160     1.0000 0.73720  0.61000  0.22720  Biso   1.000  O
  H216     1.0000 0.74470  0.66000  0.24310  Biso   1.000  H
  Ca25     1.0000 0.00000  0.07505  0.25000  Biso   1.000  Ca
  Ca26     1.0000 0.50000  0.57505  0.25000  Biso   1.000  Ca
  Ca27     1.0000 0.00000  0.92495  0.75000  Biso   1.000  Ca
  Ca28     1.0000 0.50000  0.42495  0.75000  Biso   1.000  Ca
