data_image0
_cell_length_a       38.465
_cell_length_b       38.465
_cell_length_c       38.465
_cell_angle_alpha    90
_cell_angle_beta     90
_cell_angle_gamma    90

_symmetry_space_group_name_H-M    "P 1"
_symmetry_int_tables_number       1

loop_
  _symmetry_equiv_pos_as_xyz
  'x, y, z'

loop_
  _atom_site_label
  _atom_site_occupancy
  _atom_site_fract_x
  _atom_site_fract_y
  _atom_site_fract_z
  _atom_site_thermal_displace_type
  _atom_site_B_iso_or_equiv
  _atom_site_type_symbol
  O1       1.0000 0.31520  0.17150  0.22060  Biso   1.000  O
  C1       1.0000 0.36670  0.12160  0.21978  Biso   1.000  C
  H1       1.0000 0.35410  0.12650  0.19910  Biso   1.000  H
  C2       1.0000 0.39200  0.09590  0.21992  Biso   1.000  C
  H2       1.0000 0.39640  0.08290  0.19940  Biso   1.000  H
  C3       1.0000 0.47210  0.07260  0.23840  Biso   1.000  C
  C4       1.0000 0.48132  0.10620  0.23230  Biso   1.000  C
  H3       1.0000 0.46630  0.12550  0.22870  Biso   1.000  H
  C5       1.0000 0.47390  0.07460  0.25960  Biso   1.000  C
  C6       1.0000 0.48130  0.10900  0.26340  Biso   1.000  C
  H4       1.0000 0.46580  0.12810  0.26540  Biso   1.000  H
  O2       1.0000 0.81520  0.67150  0.72060  Biso   1.000  O
  C7       1.0000 0.86670  0.62160  0.71978  Biso   1.000  C
  H5       1.0000 0.85410  0.62650  0.69910  Biso   1.000  H
  C8       1.0000 0.89200  0.59590  0.71992  Biso   1.000  C
  H6       1.0000 0.89640  0.58290  0.69940  Biso   1.000  H
  C9       1.0000 0.97210  0.57260  0.73840  Biso   1.000  C
  C10      1.0000 0.98132  0.60620  0.73230  Biso   1.000  C
  H7       1.0000 0.96630  0.62550  0.72870  Biso   1.000  H
  C11      1.0000 0.97390  0.57460  0.75960  Biso   1.000  C
  C12      1.0000 0.98130  0.60900  0.76340  Biso   1.000  C
  H8       1.0000 0.96580  0.62810  0.76540  Biso   1.000  H
  O3       1.0000 0.68480  0.82850  0.22060  Biso   1.000  O
  C13      1.0000 0.63330  0.87840  0.21978  Biso   1.000  C
  H9       1.0000 0.64590  0.87350  0.19910  Biso   1.000  H
  C14      1.0000 0.60800  0.90410  0.21992  Biso   1.000  C
  H10      1.0000 0.60360  0.91710  0.19940  Biso   1.000  H
  C15      1.0000 0.52790  0.92740  0.23840  Biso   1.000  C
  C16      1.0000 0.51868  0.89380  0.23230  Biso   1.000  C
  H11      1.0000 0.53370  0.87450  0.22870  Biso   1.000  H
  C17      1.0000 0.52610  0.92540  0.25960  Biso   1.000  C
  C18      1.0000 0.51870  0.89100  0.26340  Biso   1.000  C
  H12      1.0000 0.53420  0.87190  0.26540  Biso   1.000  H
  O4       1.0000 0.18480  0.32850  0.72060  Biso   1.000  O
  C19      1.0000 0.13330  0.37840  0.71978  Biso   1.000  C
  H13      1.0000 0.14590  0.37350  0.69910  Biso   1.000  H
  C20      1.0000 0.10800  0.40410  0.71992  Biso   1.000  C
  H14      1.0000 0.10360  0.41710  0.69940  Biso   1.000  H
  C21      1.0000 0.02790  0.42740  0.73840  Biso   1.000  C
  C22      1.0000 0.01868  0.39380  0.73230  Biso   1.000  C
  H15      1.0000 0.03370  0.37450  0.72870  Biso   1.000  H
  C23      1.0000 0.02610  0.42540  0.75960  Biso   1.000  C
  C24      1.0000 0.01870  0.39100  0.76340  Biso   1.000  C
  H16      1.0000 0.03420  0.37190  0.76540  Biso   1.000  H
  O5       1.0000 0.68480  0.17150  0.77940  Biso   1.000  O
  C25      1.0000 0.63330  0.12160  0.78022  Biso   1.000  C
  H17      1.0000 0.64590  0.12650  0.80090  Biso   1.000  H
  C26      1.0000 0.60800  0.09590  0.78008  Biso   1.000  C
  H18      1.0000 0.60360  0.08290  0.80060  Biso   1.000  H
  C27      1.0000 0.52790  0.07260  0.76160  Biso   1.000  C
  C28      1.0000 0.51868  0.10620  0.76770  Biso   1.000  C
  H19      1.0000 0.53370  0.12550  0.77130  Biso   1.000  H
  C29      1.0000 0.52610  0.07460  0.74040  Biso   1.000  C
  C30      1.0000 0.51870  0.10900  0.73660  Biso   1.000  C
  H20      1.0000 0.53420  0.12810  0.73460  Biso   1.000  H
  O6       1.0000 0.18480  0.67150  0.27940  Biso   1.000  O
  C31      1.0000 0.13330  0.62160  0.28022  Biso   1.000  C
  H21      1.0000 0.14590  0.62650  0.30090  Biso   1.000  H
  C32      1.0000 0.10800  0.59590  0.28008  Biso   1.000  C
  H22      1.0000 0.10360  0.58290  0.30060  Biso   1.000  H
  C33      1.0000 0.02790  0.57260  0.26160  Biso   1.000  C
  C34      1.0000 0.01868  0.60620  0.26770  Biso   1.000  C
  H23      1.0000 0.03370  0.62550  0.27130  Biso   1.000  H
  C35      1.0000 0.02610  0.57460  0.24040  Biso   1.000  C
  C36      1.0000 0.01870  0.60900  0.23660  Biso   1.000  C
  H24      1.0000 0.03420  0.62810  0.23460  Biso   1.000  H
  O7       1.0000 0.31520  0.82850  0.77940  Biso   1.000  O
  C37      1.0000 0.36670  0.87840  0.78022  Biso   1.000  C
  H25      1.0000 0.35410  0.87350  0.80090  Biso   1.000  H
  C38      1.0000 0.39200  0.90410  0.78008  Biso   1.000  C
  H26      1.0000 0.39640  0.91710  0.80060  Biso   1.000  H
  C39      1.0000 0.47210  0.92740  0.76160  Biso   1.000  C
  C40      1.0000 0.48132  0.89380  0.76770  Biso   1.000  C
  H27      1.0000 0.46630  0.87450  0.77130  Biso   1.000  H
  C41      1.0000 0.47390  0.92540  0.74040  Biso   1.000  C
  C42      1.0000 0.48130  0.89100  0.73660  Biso   1.000  C
  H28      1.0000 0.46580  0.87190  0.73460  Biso   1.000  H
  O8       1.0000 0.81520  0.32850  0.27940  Biso   1.000  O
  C43      1.0000 0.86670  0.37840  0.28022  Biso   1.000  C
  H29      1.0000 0.85410  0.37350  0.30090  Biso   1.000  H
  C44      1.0000 0.89200  0.40410  0.28008  Biso   1.000  C
  H30      1.0000 0.89640  0.41710  0.30060  Biso   1.000  H
  C45      1.0000 0.97210  0.42740  0.26160  Biso   1.000  C
  C46      1.0000 0.98132  0.39380  0.26770  Biso   1.000  C
  H31      1.0000 0.96630  0.37450  0.27130  Biso   1.000  H
  C47      1.0000 0.97390  0.42540  0.24040  Biso   1.000  C
  C48      1.0000 0.98130  0.39100  0.23660  Biso   1.000  C
  H32      1.0000 0.96580  0.37190  0.23460  Biso   1.000  H
  O9       1.0000 0.22060  0.31520  0.17150  Biso   1.000  O
  C49      1.0000 0.21978  0.36670  0.12160  Biso   1.000  C
  H33      1.0000 0.19910  0.35410  0.12650  Biso   1.000  H
  C50      1.0000 0.21992  0.39200  0.09590  Biso   1.000  C
  H34      1.0000 0.19940  0.39640  0.08290  Biso   1.000  H
  C51      1.0000 0.23840  0.47210  0.07260  Biso   1.000  C
  C52      1.0000 0.23230  0.48132  0.10620  Biso   1.000  C
  H35      1.0000 0.22870  0.46630  0.12550  Biso   1.000  H
  C53      1.0000 0.25960  0.47390  0.07460  Biso   1.000  C
  C54      1.0000 0.26340  0.48130  0.10900  Biso   1.000  C
  H36      1.0000 0.26540  0.46580  0.12810  Biso   1.000  H
  O10      1.0000 0.72060  0.81520  0.67150  Biso   1.000  O
  C55      1.0000 0.71978  0.86670  0.62160  Biso   1.000  C
  H37      1.0000 0.69910  0.85410  0.62650  Biso   1.000  H
  C56      1.0000 0.71992  0.89200  0.59590  Biso   1.000  C
  H38      1.0000 0.69940  0.89640  0.58290  Biso   1.000  H
  C57      1.0000 0.73840  0.97210  0.57260  Biso   1.000  C
  C58      1.0000 0.73230  0.98132  0.60620  Biso   1.000  C
  H39      1.0000 0.72870  0.96630  0.62550  Biso   1.000  H
  C59      1.0000 0.75960  0.97390  0.57460  Biso   1.000  C
  C60      1.0000 0.76340  0.98130  0.60900  Biso   1.000  C
  H40      1.0000 0.76540  0.96580  0.62810  Biso   1.000  H
  O11      1.0000 0.22060  0.68480  0.82850  Biso   1.000  O
  C61      1.0000 0.21978  0.63330  0.87840  Biso   1.000  C
  H41      1.0000 0.19910  0.64590  0.87350  Biso   1.000  H
  C62      1.0000 0.21992  0.60800  0.90410  Biso   1.000  C
  H42      1.0000 0.19940  0.60360  0.91710  Biso   1.000  H
  C63      1.0000 0.23840  0.52790  0.92740  Biso   1.000  C
  C64      1.0000 0.23230  0.51868  0.89380  Biso   1.000  C
  H43      1.0000 0.22870  0.53370  0.87450  Biso   1.000  H
  C65      1.0000 0.25960  0.52610  0.92540  Biso   1.000  C
  C66      1.0000 0.26340  0.51870  0.89100  Biso   1.000  C
  H44      1.0000 0.26540  0.53420  0.87190  Biso   1.000  H
  O12      1.0000 0.72060  0.18480  0.32850  Biso   1.000  O
  C67      1.0000 0.71978  0.13330  0.37840  Biso   1.000  C
  H45      1.0000 0.69910  0.14590  0.37350  Biso   1.000  H
  C68      1.0000 0.71992  0.10800  0.40410  Biso   1.000  C
  H46      1.0000 0.69940  0.10360  0.41710  Biso   1.000  H
  C69      1.0000 0.73840  0.02790  0.42740  Biso   1.000  C
  C70      1.0000 0.73230  0.01868  0.39380  Biso   1.000  C
  H47      1.0000 0.72870  0.03370  0.37450  Biso   1.000  H
  C71      1.0000 0.75960  0.02610  0.42540  Biso   1.000  C
  C72      1.0000 0.76340  0.01870  0.39100  Biso   1.000  C
  H48      1.0000 0.76540  0.03420  0.37190  Biso   1.000  H
  O13      1.0000 0.77940  0.68480  0.17150  Biso   1.000  O
  C73      1.0000 0.78022  0.63330  0.12160  Biso   1.000  C
  H49      1.0000 0.80090  0.64590  0.12650  Biso   1.000  H
  C74      1.0000 0.78008  0.60800  0.09590  Biso   1.000  C
  H50      1.0000 0.80060  0.60360  0.08290  Biso   1.000  H
  C75      1.0000 0.76160  0.52790  0.07260  Biso   1.000  C
  C76      1.0000 0.76770  0.51868  0.10620  Biso   1.000  C
  H51      1.0000 0.77130  0.53370  0.12550  Biso   1.000  H
  C77      1.0000 0.74040  0.52610  0.07460  Biso   1.000  C
  C78      1.0000 0.73660  0.51870  0.10900  Biso   1.000  C
  H52      1.0000 0.73460  0.53420  0.12810  Biso   1.000  H
  O14      1.0000 0.27940  0.18480  0.67150  Biso   1.000  O
  C79      1.0000 0.28022  0.13330  0.62160  Biso   1.000  C
  H53      1.0000 0.30090  0.14590  0.62650  Biso   1.000  H
  C80      1.0000 0.28008  0.10800  0.59590  Biso   1.000  C
  H54      1.0000 0.30060  0.10360  0.58290  Biso   1.000  H
  C81      1.0000 0.26160  0.02790  0.57260  Biso   1.000  C
  C82      1.0000 0.26770  0.01868  0.60620  Biso   1.000  C
  H55      1.0000 0.27130  0.03370  0.62550  Biso   1.000  H
  C83      1.0000 0.24040  0.02610  0.57460  Biso   1.000  C
  C84      1.0000 0.23660  0.01870  0.60900  Biso   1.000  C
  H56      1.0000 0.23460  0.03420  0.62810  Biso   1.000  H
  O15      1.0000 0.77940  0.31520  0.82850  Biso   1.000  O
  C85      1.0000 0.78022  0.36670  0.87840  Biso   1.000  C
  H57      1.0000 0.80090  0.35410  0.87350  Biso   1.000  H
  C86      1.0000 0.78008  0.39200  0.90410  Biso   1.000  C
  H58      1.0000 0.80060  0.39640  0.91710  Biso   1.000  H
  C87      1.0000 0.76160  0.47210  0.92740  Biso   1.000  C
  C88      1.0000 0.76770  0.48132  0.89380  Biso   1.000  C
  H59      1.0000 0.77130  0.46630  0.87450  Biso   1.000  H
  C89      1.0000 0.74040  0.47390  0.92540  Biso   1.000  C
  C90      1.0000 0.73660  0.48130  0.89100  Biso   1.000  C
  H60      1.0000 0.73460  0.46580  0.87190  Biso   1.000  H
  O16      1.0000 0.27940  0.81520  0.32850  Biso   1.000  O
  C91      1.0000 0.28022  0.86670  0.37840  Biso   1.000  C
  H61      1.0000 0.30090  0.85410  0.37350  Biso   1.000  H
  C92      1.0000 0.28008  0.89200  0.40410  Biso   1.000  C
  H62      1.0000 0.30060  0.89640  0.41710  Biso   1.000  H
  C93      1.0000 0.26160  0.97210  0.42740  Biso   1.000  C
  C94      1.0000 0.26770  0.98132  0.39380  Biso   1.000  C
  H63      1.0000 0.27130  0.96630  0.37450  Biso   1.000  H
  C95      1.0000 0.24040  0.97390  0.42540  Biso   1.000  C
  C96      1.0000 0.23660  0.98130  0.39100  Biso   1.000  C
  H64      1.0000 0.23460  0.96580  0.37190  Biso   1.000  H
  O17      1.0000 0.17150  0.22060  0.31520  Biso   1.000  O
  C97      1.0000 0.12160  0.21978  0.36670  Biso   1.000  C
  H65      1.0000 0.12650  0.19910  0.35410  Biso   1.000  H
  C98      1.0000 0.09590  0.21992  0.39200  Biso   1.000  C
  H66      1.0000 0.08290  0.19940  0.39640  Biso   1.000  H
  C99      1.0000 0.07260  0.23840  0.47210  Biso   1.000  C
  C100     1.0000 0.10620  0.23230  0.48132  Biso   1.000  C
  H67      1.0000 0.12550  0.22870  0.46630  Biso   1.000  H
  C101     1.0000 0.07460  0.25960  0.47390  Biso   1.000  C
  C102     1.0000 0.10900  0.26340  0.48130  Biso   1.000  C
  H68      1.0000 0.12810  0.26540  0.46580  Biso   1.000  H
  O18      1.0000 0.67150  0.72060  0.81520  Biso   1.000  O
  C103     1.0000 0.62160  0.71978  0.86670  Biso   1.000  C
  H69      1.0000 0.62650  0.69910  0.85410  Biso   1.000  H
  C104     1.0000 0.59590  0.71992  0.89200  Biso   1.000  C
  H70      1.0000 0.58290  0.69940  0.89640  Biso   1.000  H
  C105     1.0000 0.57260  0.73840  0.97210  Biso   1.000  C
  C106     1.0000 0.60620  0.73230  0.98132  Biso   1.000  C
  H71      1.0000 0.62550  0.72870  0.96630  Biso   1.000  H
  C107     1.0000 0.57460  0.75960  0.97390  Biso   1.000  C
  C108     1.0000 0.60900  0.76340  0.98130  Biso   1.000  C
  H72      1.0000 0.62810  0.76540  0.96580  Biso   1.000  H
  O19      1.0000 0.82850  0.22060  0.68480  Biso   1.000  O
  C109     1.0000 0.87840  0.21978  0.63330  Biso   1.000  C
  H73      1.0000 0.87350  0.19910  0.64590  Biso   1.000  H
  C110     1.0000 0.90410  0.21992  0.60800  Biso   1.000  C
  H74      1.0000 0.91710  0.19940  0.60360  Biso   1.000  H
  C111     1.0000 0.92740  0.23840  0.52790  Biso   1.000  C
  C112     1.0000 0.89380  0.23230  0.51868  Biso   1.000  C
  H75      1.0000 0.87450  0.22870  0.53370  Biso   1.000  H
  C113     1.0000 0.92540  0.25960  0.52610  Biso   1.000  C
  C114     1.0000 0.89100  0.26340  0.51870  Biso   1.000  C
  H76      1.0000 0.87190  0.26540  0.53420  Biso   1.000  H
  O20      1.0000 0.32850  0.72060  0.18480  Biso   1.000  O
  C115     1.0000 0.37840  0.71978  0.13330  Biso   1.000  C
  H77      1.0000 0.37350  0.69910  0.14590  Biso   1.000  H
  C116     1.0000 0.40410  0.71992  0.10800  Biso   1.000  C
  H78      1.0000 0.41710  0.69940  0.10360  Biso   1.000  H
  C117     1.0000 0.42740  0.73840  0.02790  Biso   1.000  C
  C118     1.0000 0.39380  0.73230  0.01868  Biso   1.000  C
  H79      1.0000 0.37450  0.72870  0.03370  Biso   1.000  H
  C119     1.0000 0.42540  0.75960  0.02610  Biso   1.000  C
  C120     1.0000 0.39100  0.76340  0.01870  Biso   1.000  C
  H80      1.0000 0.37190  0.76540  0.03420  Biso   1.000  H
  O21      1.0000 0.17150  0.77940  0.68480  Biso   1.000  O
  C121     1.0000 0.12160  0.78022  0.63330  Biso   1.000  C
  H81      1.0000 0.12650  0.80090  0.64590  Biso   1.000  H
  C122     1.0000 0.09590  0.78008  0.60800  Biso   1.000  C
  H82      1.0000 0.08290  0.80060  0.60360  Biso   1.000  H
  C123     1.0000 0.07260  0.76160  0.52790  Biso   1.000  C
  C124     1.0000 0.10620  0.76770  0.51868  Biso   1.000  C
  H83      1.0000 0.12550  0.77130  0.53370  Biso   1.000  H
  C125     1.0000 0.07460  0.74040  0.52610  Biso   1.000  C
  C126     1.0000 0.10900  0.73660  0.51870  Biso   1.000  C
  H84      1.0000 0.12810  0.73460  0.53420  Biso   1.000  H
  O22      1.0000 0.67150  0.27940  0.18480  Biso   1.000  O
  C127     1.0000 0.62160  0.28022  0.13330  Biso   1.000  C
  H85      1.0000 0.62650  0.30090  0.14590  Biso   1.000  H
  C128     1.0000 0.59590  0.28008  0.10800  Biso   1.000  C
  H86      1.0000 0.58290  0.30060  0.10360  Biso   1.000  H
  C129     1.0000 0.57260  0.26160  0.02790  Biso   1.000  C
  C130     1.0000 0.60620  0.26770  0.01868  Biso   1.000  C
  H87      1.0000 0.62550  0.27130  0.03370  Biso   1.000  H
  C131     1.0000 0.57460  0.24040  0.02610  Biso   1.000  C
  C132     1.0000 0.60900  0.23660  0.01870  Biso   1.000  C
  H88      1.0000 0.62810  0.23460  0.03420  Biso   1.000  H
  O23      1.0000 0.82850  0.77940  0.31520  Biso   1.000  O
  C133     1.0000 0.87840  0.78022  0.36670  Biso   1.000  C
  H89      1.0000 0.87350  0.80090  0.35410  Biso   1.000  H
  C134     1.0000 0.90410  0.78008  0.39200  Biso   1.000  C
  H90      1.0000 0.91710  0.80060  0.39640  Biso   1.000  H
  C135     1.0000 0.92740  0.76160  0.47210  Biso   1.000  C
  C136     1.0000 0.89380  0.76770  0.48132  Biso   1.000  C
  H91      1.0000 0.87450  0.77130  0.46630  Biso   1.000  H
  C137     1.0000 0.92540  0.74040  0.47390  Biso   1.000  C
  C138     1.0000 0.89100  0.73660  0.48130  Biso   1.000  C
  H92      1.0000 0.87190  0.73460  0.46580  Biso   1.000  H
  O24      1.0000 0.32850  0.27940  0.81520  Biso   1.000  O
  C139     1.0000 0.37840  0.28022  0.86670  Biso   1.000  C
  H93      1.0000 0.37350  0.30090  0.85410  Biso   1.000  H
  C140     1.0000 0.40410  0.28008  0.89200  Biso   1.000  C
  H94      1.0000 0.41710  0.30060  0.89640  Biso   1.000  H
  C141     1.0000 0.42740  0.26160  0.97210  Biso   1.000  C
  C142     1.0000 0.39380  0.26770  0.98132  Biso   1.000  C
  H95      1.0000 0.37450  0.27130  0.96630  Biso   1.000  H
  C143     1.0000 0.42540  0.24040  0.97390  Biso   1.000  C
  C144     1.0000 0.39100  0.23660  0.98130  Biso   1.000  C
  H96      1.0000 0.37190  0.23460  0.96580  Biso   1.000  H
  O25      1.0000 0.17150  0.31520  0.77940  Biso   1.000  O
  C145     1.0000 0.12160  0.36670  0.78022  Biso   1.000  C
  H97      1.0000 0.12650  0.35410  0.80090  Biso   1.000  H
  C146     1.0000 0.09590  0.39200  0.78008  Biso   1.000  C
  H98      1.0000 0.08290  0.39640  0.80060  Biso   1.000  H
  C147     1.0000 0.07260  0.47210  0.76160  Biso   1.000  C
  C148     1.0000 0.10620  0.48132  0.76770  Biso   1.000  C
  H99      1.0000 0.12550  0.46630  0.77130  Biso   1.000  H
  C149     1.0000 0.07460  0.47390  0.74040  Biso   1.000  C
  C150     1.0000 0.10900  0.48130  0.73660  Biso   1.000  C
  H100     1.0000 0.12810  0.46580  0.73460  Biso   1.000  H
  O26      1.0000 0.67150  0.81520  0.27940  Biso   1.000  O
  C151     1.0000 0.62160  0.86670  0.28022  Biso   1.000  C
  H101     1.0000 0.62650  0.85410  0.30090  Biso   1.000  H
  C152     1.0000 0.59590  0.89200  0.28008  Biso   1.000  C
  H102     1.0000 0.58290  0.89640  0.30060  Biso   1.000  H
  C153     1.0000 0.57260  0.97210  0.26160  Biso   1.000  C
  C154     1.0000 0.60620  0.98132  0.26770  Biso   1.000  C
  H103     1.0000 0.62550  0.96630  0.27130  Biso   1.000  H
  C155     1.0000 0.57460  0.97390  0.24040  Biso   1.000  C
  C156     1.0000 0.60900  0.98130  0.23660  Biso   1.000  C
  H104     1.0000 0.62810  0.96580  0.23460  Biso   1.000  H
  O27      1.0000 0.82850  0.68480  0.77940  Biso   1.000  O
  C157     1.0000 0.87840  0.63330  0.78022  Biso   1.000  C
  H105     1.0000 0.87350  0.64590  0.80090  Biso   1.000  H
  C158     1.0000 0.90410  0.60800  0.78008  Biso   1.000  C
  H106     1.0000 0.91710  0.60360  0.80060  Biso   1.000  H
  C159     1.0000 0.92740  0.52790  0.76160  Biso   1.000  C
  C160     1.0000 0.89380  0.51868  0.76770  Biso   1.000  C
  H107     1.0000 0.87450  0.53370  0.77130  Biso   1.000  H
  C161     1.0000 0.92540  0.52610  0.74040  Biso   1.000  C
  C162     1.0000 0.89100  0.51870  0.73660  Biso   1.000  C
  H108     1.0000 0.87190  0.53420  0.73460  Biso   1.000  H
  O28      1.0000 0.32850  0.18480  0.27940  Biso   1.000  O
  C163     1.0000 0.37840  0.13330  0.28022  Biso   1.000  C
  H109     1.0000 0.37350  0.14590  0.30090  Biso   1.000  H
  C164     1.0000 0.40410  0.10800  0.28008  Biso   1.000  C
  H110     1.0000 0.41710  0.10360  0.30060  Biso   1.000  H
  C165     1.0000 0.42740  0.02790  0.26160  Biso   1.000  C
  C166     1.0000 0.39380  0.01868  0.26770  Biso   1.000  C
  H111     1.0000 0.37450  0.03370  0.27130  Biso   1.000  H
  C167     1.0000 0.42540  0.02610  0.24040  Biso   1.000  C
  C168     1.0000 0.39100  0.01870  0.23660  Biso   1.000  C
  H112     1.0000 0.37190  0.03420  0.23460  Biso   1.000  H
  O29      1.0000 0.17150  0.68480  0.22060  Biso   1.000  O
  C169     1.0000 0.12160  0.63330  0.21978  Biso   1.000  C
  H113     1.0000 0.12650  0.64590  0.19910  Biso   1.000  H
  C170     1.0000 0.09590  0.60800  0.21992  Biso   1.000  C
  H114     1.0000 0.08290  0.60360  0.19940  Biso   1.000  H
  C171     1.0000 0.07260  0.52790  0.23840  Biso   1.000  C
  C172     1.0000 0.10620  0.51868  0.23230  Biso   1.000  C
  H115     1.0000 0.12550  0.53370  0.22870  Biso   1.000  H
  C173     1.0000 0.07460  0.52610  0.25960  Biso   1.000  C
  C174     1.0000 0.10900  0.51870  0.26340  Biso   1.000  C
  H116     1.0000 0.12810  0.53420  0.26540  Biso   1.000  H
  O30      1.0000 0.67150  0.18480  0.72060  Biso   1.000  O
  C175     1.0000 0.62160  0.13330  0.71978  Biso   1.000  C
  H117     1.0000 0.62650  0.14590  0.69910  Biso   1.000  H
  C176     1.0000 0.59590  0.10800  0.71992  Biso   1.000  C
  H118     1.0000 0.58290  0.10360  0.69940  Biso   1.000  H
  C177     1.0000 0.57260  0.02790  0.73840  Biso   1.000  C
  C178     1.0000 0.60620  0.01868  0.73230  Biso   1.000  C
  H119     1.0000 0.62550  0.03370  0.72870  Biso   1.000  H
  C179     1.0000 0.57460  0.02610  0.75960  Biso   1.000  C
  C180     1.0000 0.60900  0.01870  0.76340  Biso   1.000  C
  H120     1.0000 0.62810  0.03420  0.76540  Biso   1.000  H
  O31      1.0000 0.82850  0.31520  0.22060  Biso   1.000  O
  C181     1.0000 0.87840  0.36670  0.21978  Biso   1.000  C
  H121     1.0000 0.87350  0.35410  0.19910  Biso   1.000  H
  C182     1.0000 0.90410  0.39200  0.21992  Biso   1.000  C
  H122     1.0000 0.91710  0.39640  0.19940  Biso   1.000  H
  C183     1.0000 0.92740  0.47210  0.23840  Biso   1.000  C
  C184     1.0000 0.89380  0.48132  0.23230  Biso   1.000  C
  H123     1.0000 0.87450  0.46630  0.22870  Biso   1.000  H
  C185     1.0000 0.92540  0.47390  0.25960  Biso   1.000  C
  C186     1.0000 0.89100  0.48130  0.26340  Biso   1.000  C
  H124     1.0000 0.87190  0.46580  0.26540  Biso   1.000  H
  O32      1.0000 0.32850  0.81520  0.72060  Biso   1.000  O
  C187     1.0000 0.37840  0.86670  0.71978  Biso   1.000  C
  H125     1.0000 0.37350  0.85410  0.69910  Biso   1.000  H
  C188     1.0000 0.40410  0.89200  0.71992  Biso   1.000  C
  H126     1.0000 0.41710  0.89640  0.69940  Biso   1.000  H
  C189     1.0000 0.42740  0.97210  0.73840  Biso   1.000  C
  C190     1.0000 0.39380  0.98132  0.73230  Biso   1.000  C
  H127     1.0000 0.37450  0.96630  0.72870  Biso   1.000  H
  C191     1.0000 0.42540  0.97390  0.75960  Biso   1.000  C
  C192     1.0000 0.39100  0.98130  0.76340  Biso   1.000  C
  H128     1.0000 0.37190  0.96580  0.76540  Biso   1.000  H
  O33      1.0000 0.31520  0.22060  0.82850  Biso   1.000  O
  C193     1.0000 0.36670  0.21978  0.87840  Biso   1.000  C
  H129     1.0000 0.35410  0.19910  0.87350  Biso   1.000  H
  C194     1.0000 0.39200  0.21992  0.90410  Biso   1.000  C
  H130     1.0000 0.39640  0.19940  0.91710  Biso   1.000  H
  C195     1.0000 0.47210  0.23840  0.92740  Biso   1.000  C
  C196     1.0000 0.48132  0.23230  0.89380  Biso   1.000  C
  H131     1.0000 0.46630  0.22870  0.87450  Biso   1.000  H
  C197     1.0000 0.47390  0.25960  0.92540  Biso   1.000  C
  C198     1.0000 0.48130  0.26340  0.89100  Biso   1.000  C
  H132     1.0000 0.46580  0.26540  0.87190  Biso   1.000  H
  O34      1.0000 0.81520  0.72060  0.32850  Biso   1.000  O
  C199     1.0000 0.86670  0.71978  0.37840  Biso   1.000  C
  H133     1.0000 0.85410  0.69910  0.37350  Biso   1.000  H
  C200     1.0000 0.89200  0.71992  0.40410  Biso   1.000  C
  H134     1.0000 0.89640  0.69940  0.41710  Biso   1.000  H
  C201     1.0000 0.97210  0.73840  0.42740  Biso   1.000  C
  C202     1.0000 0.98132  0.73230  0.39380  Biso   1.000  C
  H135     1.0000 0.96630  0.72870  0.37450  Biso   1.000  H
  C203     1.0000 0.97390  0.75960  0.42540  Biso   1.000  C
  C204     1.0000 0.98130  0.76340  0.39100  Biso   1.000  C
  H136     1.0000 0.96580  0.76540  0.37190  Biso   1.000  H
  O35      1.0000 0.68480  0.22060  0.17150  Biso   1.000  O
  C205     1.0000 0.63330  0.21978  0.12160  Biso   1.000  C
  H137     1.0000 0.64590  0.19910  0.12650  Biso   1.000  H
  C206     1.0000 0.60800  0.21992  0.09590  Biso   1.000  C
  H138     1.0000 0.60360  0.19940  0.08290  Biso   1.000  H
  C207     1.0000 0.52790  0.23840  0.07260  Biso   1.000  C
  C208     1.0000 0.51868  0.23230  0.10620  Biso   1.000  C
  H139     1.0000 0.53370  0.22870  0.12550  Biso   1.000  H
  C209     1.0000 0.52610  0.25960  0.07460  Biso   1.000  C
  C210     1.0000 0.51870  0.26340  0.10900  Biso   1.000  C
  H140     1.0000 0.53420  0.26540  0.12810  Biso   1.000  H
  O36      1.0000 0.18480  0.72060  0.67150  Biso   1.000  O
  C211     1.0000 0.13330  0.71978  0.62160  Biso   1.000  C
  H141     1.0000 0.14590  0.69910  0.62650  Biso   1.000  H
  C212     1.0000 0.10800  0.71992  0.59590  Biso   1.000  C
  H142     1.0000 0.10360  0.69940  0.58290  Biso   1.000  H
  C213     1.0000 0.02790  0.73840  0.57260  Biso   1.000  C
  C214     1.0000 0.01868  0.73230  0.60620  Biso   1.000  C
  H143     1.0000 0.03370  0.72870  0.62550  Biso   1.000  H
  C215     1.0000 0.02610  0.75960  0.57460  Biso   1.000  C
  C216     1.0000 0.01870  0.76340  0.60900  Biso   1.000  C
  H144     1.0000 0.03420  0.76540  0.62810  Biso   1.000  H
  O37      1.0000 0.68480  0.77940  0.82850  Biso   1.000  O
  C217     1.0000 0.63330  0.78022  0.87840  Biso   1.000  C
  H145     1.0000 0.64590  0.80090  0.87350  Biso   1.000  H
  C218     1.0000 0.60800  0.78008  0.90410  Biso   1.000  C
  H146     1.0000 0.60360  0.80060  0.91710  Biso   1.000  H
  C219     1.0000 0.52790  0.76160  0.92740  Biso   1.000  C
  C220     1.0000 0.51868  0.76770  0.89380  Biso   1.000  C
  H147     1.0000 0.53370  0.77130  0.87450  Biso   1.000  H
  C221     1.0000 0.52610  0.74040  0.92540  Biso   1.000  C
  C222     1.0000 0.51870  0.73660  0.89100  Biso   1.000  C
  H148     1.0000 0.53420  0.73460  0.87190  Biso   1.000  H
  O38      1.0000 0.18480  0.27940  0.32850  Biso   1.000  O
  C223     1.0000 0.13330  0.28022  0.37840  Biso   1.000  C
  H149     1.0000 0.14590  0.30090  0.37350  Biso   1.000  H
  C224     1.0000 0.10800  0.28008  0.40410  Biso   1.000  C
  H150     1.0000 0.10360  0.30060  0.41710  Biso   1.000  H
  C225     1.0000 0.02790  0.26160  0.42740  Biso   1.000  C
  C226     1.0000 0.01868  0.26770  0.39380  Biso   1.000  C
  H151     1.0000 0.03370  0.27130  0.37450  Biso   1.000  H
  C227     1.0000 0.02610  0.24040  0.42540  Biso   1.000  C
  C228     1.0000 0.01870  0.23660  0.39100  Biso   1.000  C
  H152     1.0000 0.03420  0.23460  0.37190  Biso   1.000  H
  O39      1.0000 0.31520  0.77940  0.17150  Biso   1.000  O
  C229     1.0000 0.36670  0.78022  0.12160  Biso   1.000  C
  H153     1.0000 0.35410  0.80090  0.12650  Biso   1.000  H
  C230     1.0000 0.39200  0.78008  0.09590  Biso   1.000  C
  H154     1.0000 0.39640  0.80060  0.08290  Biso   1.000  H
  C231     1.0000 0.47210  0.76160  0.07260  Biso   1.000  C
  C232     1.0000 0.48132  0.76770  0.10620  Biso   1.000  C
  H155     1.0000 0.46630  0.77130  0.12550  Biso   1.000  H
  C233     1.0000 0.47390  0.74040  0.07460  Biso   1.000  C
  C234     1.0000 0.48130  0.73660  0.10900  Biso   1.000  C
  H156     1.0000 0.46580  0.73460  0.12810  Biso   1.000  H
  O40      1.0000 0.81520  0.27940  0.67150  Biso   1.000  O
  C235     1.0000 0.86670  0.28022  0.62160  Biso   1.000  C
  H157     1.0000 0.85410  0.30090  0.62650  Biso   1.000  H
  C236     1.0000 0.89200  0.28008  0.59590  Biso   1.000  C
  H158     1.0000 0.89640  0.30060  0.58290  Biso   1.000  H
  C237     1.0000 0.97210  0.26160  0.57260  Biso   1.000  C
  C238     1.0000 0.98132  0.26770  0.60620  Biso   1.000  C
  H159     1.0000 0.96630  0.27130  0.62550  Biso   1.000  H
  C239     1.0000 0.97390  0.24040  0.57460  Biso   1.000  C
  C240     1.0000 0.98130  0.23660  0.60900  Biso   1.000  C
  H160     1.0000 0.96580  0.23460  0.62810  Biso   1.000  H
  O41      1.0000 0.22060  0.17150  0.68480  Biso   1.000  O
  C241     1.0000 0.21978  0.12160  0.63330  Biso   1.000  C
  H161     1.0000 0.19910  0.12650  0.64590  Biso   1.000  H
  C242     1.0000 0.21992  0.09590  0.60800  Biso   1.000  C
  H162     1.0000 0.19940  0.08290  0.60360  Biso   1.000  H
  C243     1.0000 0.23840  0.07260  0.52790  Biso   1.000  C
  C244     1.0000 0.23230  0.10620  0.51868  Biso   1.000  C
  H163     1.0000 0.22870  0.12550  0.53370  Biso   1.000  H
  C245     1.0000 0.25960  0.07460  0.52610  Biso   1.000  C
  C246     1.0000 0.26340  0.10900  0.51870  Biso   1.000  C
  H164     1.0000 0.26540  0.12810  0.53420  Biso   1.000  H
  O42      1.0000 0.72060  0.67150  0.18480  Biso   1.000  O
  C247     1.0000 0.71978  0.62160  0.13330  Biso   1.000  C
  H165     1.0000 0.69910  0.62650  0.14590  Biso   1.000  H
  C248     1.0000 0.71992  0.59590  0.10800  Biso   1.000  C
  H166     1.0000 0.69940  0.58290  0.10360  Biso   1.000  H
  C249     1.0000 0.73840  0.57260  0.02790  Biso   1.000  C
  C250     1.0000 0.73230  0.60620  0.01868  Biso   1.000  C
  H167     1.0000 0.72870  0.62550  0.03370  Biso   1.000  H
  C251     1.0000 0.75960  0.57460  0.02610  Biso   1.000  C
  C252     1.0000 0.76340  0.60900  0.01870  Biso   1.000  C
  H168     1.0000 0.76540  0.62810  0.03420  Biso   1.000  H
  O43      1.0000 0.22060  0.82850  0.31520  Biso   1.000  O
  C253     1.0000 0.21978  0.87840  0.36670  Biso   1.000  C
  H169     1.0000 0.19910  0.87350  0.35410  Biso   1.000  H
  C254     1.0000 0.21992  0.90410  0.39200  Biso   1.000  C
  H170     1.0000 0.19940  0.91710  0.39640  Biso   1.000  H
  C255     1.0000 0.23840  0.92740  0.47210  Biso   1.000  C
  C256     1.0000 0.23230  0.89380  0.48132  Biso   1.000  C
  H171     1.0000 0.22870  0.87450  0.46630  Biso   1.000  H
  C257     1.0000 0.25960  0.92540  0.47390  Biso   1.000  C
  C258     1.0000 0.26340  0.89100  0.48130  Biso   1.000  C
  H172     1.0000 0.26540  0.87190  0.46580  Biso   1.000  H
  O44      1.0000 0.72060  0.32850  0.81520  Biso   1.000  O
  C259     1.0000 0.71978  0.37840  0.86670  Biso   1.000  C
  H173     1.0000 0.69910  0.37350  0.85410  Biso   1.000  H
  C260     1.0000 0.71992  0.40410  0.89200  Biso   1.000  C
  H174     1.0000 0.69940  0.41710  0.89640  Biso   1.000  H
  C261     1.0000 0.73840  0.42740  0.97210  Biso   1.000  C
  C262     1.0000 0.73230  0.39380  0.98132  Biso   1.000  C
  H175     1.0000 0.72870  0.37450  0.96630  Biso   1.000  H
  C263     1.0000 0.75960  0.42540  0.97390  Biso   1.000  C
  C264     1.0000 0.76340  0.39100  0.98130  Biso   1.000  C
  H176     1.0000 0.76540  0.37190  0.96580  Biso   1.000  H
  O45      1.0000 0.77940  0.17150  0.31520  Biso   1.000  O
  C265     1.0000 0.78022  0.12160  0.36670  Biso   1.000  C
  H177     1.0000 0.80090  0.12650  0.35410  Biso   1.000  H
  C266     1.0000 0.78008  0.09590  0.39200  Biso   1.000  C
  H178     1.0000 0.80060  0.08290  0.39640  Biso   1.000  H
  C267     1.0000 0.76160  0.07260  0.47210  Biso   1.000  C
  C268     1.0000 0.76770  0.10620  0.48132  Biso   1.000  C
  H179     1.0000 0.77130  0.12550  0.46630  Biso   1.000  H
  C269     1.0000 0.74040  0.07460  0.47390  Biso   1.000  C
  C270     1.0000 0.73660  0.10900  0.48130  Biso   1.000  C
  H180     1.0000 0.73460  0.12810  0.46580  Biso   1.000  H
  O46      1.0000 0.27940  0.67150  0.81520  Biso   1.000  O
  C271     1.0000 0.28022  0.62160  0.86670  Biso   1.000  C
  H181     1.0000 0.30090  0.62650  0.85410  Biso   1.000  H
  C272     1.0000 0.28008  0.59590  0.89200  Biso   1.000  C
  H182     1.0000 0.30060  0.58290  0.89640  Biso   1.000  H
  C273     1.0000 0.26160  0.57260  0.97210  Biso   1.000  C
  C274     1.0000 0.26770  0.60620  0.98132  Biso   1.000  C
  H183     1.0000 0.27130  0.62550  0.96630  Biso   1.000  H
  C275     1.0000 0.24040  0.57460  0.97390  Biso   1.000  C
  C276     1.0000 0.23660  0.60900  0.98130  Biso   1.000  C
  H184     1.0000 0.23460  0.62810  0.96580  Biso   1.000  H
  O47      1.0000 0.77940  0.82850  0.68480  Biso   1.000  O
  C277     1.0000 0.78022  0.87840  0.63330  Biso   1.000  C
  H185     1.0000 0.80090  0.87350  0.64590  Biso   1.000  H
  C278     1.0000 0.78008  0.90410  0.60800  Biso   1.000  C
  H186     1.0000 0.80060  0.91710  0.60360  Biso   1.000  H
  C279     1.0000 0.76160  0.92740  0.52790  Biso   1.000  C
  C280     1.0000 0.76770  0.89380  0.51868  Biso   1.000  C
  H187     1.0000 0.77130  0.87450  0.53370  Biso   1.000  H
  C281     1.0000 0.74040  0.92540  0.52610  Biso   1.000  C
  C282     1.0000 0.73660  0.89100  0.51870  Biso   1.000  C
  H188     1.0000 0.73460  0.87190  0.53420  Biso   1.000  H
  O48      1.0000 0.27940  0.32850  0.18480  Biso   1.000  O
  C283     1.0000 0.28022  0.37840  0.13330  Biso   1.000  C
  H189     1.0000 0.30090  0.37350  0.14590  Biso   1.000  H
  C284     1.0000 0.28008  0.40410  0.10800  Biso   1.000  C
  H190     1.0000 0.30060  0.41710  0.10360  Biso   1.000  H
  C285     1.0000 0.26160  0.42740  0.02790  Biso   1.000  C
  C286     1.0000 0.26770  0.39380  0.01868  Biso   1.000  C
  H191     1.0000 0.27130  0.37450  0.03370  Biso   1.000  H
  C287     1.0000 0.24040  0.42540  0.02610  Biso   1.000  C
  C288     1.0000 0.23660  0.39100  0.01870  Biso   1.000  C
  H192     1.0000 0.23460  0.37190  0.03420  Biso   1.000  H
  O49      1.0000 0.68480  0.82850  0.77940  Biso   1.000  O
  C289     1.0000 0.63330  0.87840  0.78022  Biso   1.000  C
  H193     1.0000 0.64590  0.87350  0.80090  Biso   1.000  H
  C290     1.0000 0.60800  0.90410  0.78008  Biso   1.000  C
  H194     1.0000 0.60360  0.91710  0.80060  Biso   1.000  H
  C291     1.0000 0.52790  0.92740  0.76160  Biso   1.000  C
  C292     1.0000 0.51868  0.89380  0.76770  Biso   1.000  C
  H195     1.0000 0.53370  0.87450  0.77130  Biso   1.000  H
  C293     1.0000 0.52610  0.92540  0.74040  Biso   1.000  C
  C294     1.0000 0.51870  0.89100  0.73660  Biso   1.000  C
  H196     1.0000 0.53420  0.87190  0.73460  Biso   1.000  H
  O50      1.0000 0.18480  0.32850  0.27940  Biso   1.000  O
  C295     1.0000 0.13330  0.37840  0.28022  Biso   1.000  C
  H197     1.0000 0.14590  0.37350  0.30090  Biso   1.000  H
  C296     1.0000 0.10800  0.40410  0.28008  Biso   1.000  C
  H198     1.0000 0.10360  0.41710  0.30060  Biso   1.000  H
  C297     1.0000 0.02790  0.42740  0.26160  Biso   1.000  C
  C298     1.0000 0.01868  0.39380  0.26770  Biso   1.000  C
  H199     1.0000 0.03370  0.37450  0.27130  Biso   1.000  H
  C299     1.0000 0.02610  0.42540  0.24040  Biso   1.000  C
  C300     1.0000 0.01870  0.39100  0.23660  Biso   1.000  C
  H200     1.0000 0.03420  0.37190  0.23460  Biso   1.000  H
  O51      1.0000 0.31520  0.17150  0.77940  Biso   1.000  O
  C301     1.0000 0.36670  0.12160  0.78022  Biso   1.000  C
  H201     1.0000 0.35410  0.12650  0.80090  Biso   1.000  H
  C302     1.0000 0.39200  0.09590  0.78008  Biso   1.000  C
  H202     1.0000 0.39640  0.08290  0.80060  Biso   1.000  H
  C303     1.0000 0.47210  0.07260  0.76160  Biso   1.000  C
  C304     1.0000 0.48132  0.10620  0.76770  Biso   1.000  C
  H203     1.0000 0.46630  0.12550  0.77130  Biso   1.000  H
  C305     1.0000 0.47390  0.07460  0.74040  Biso   1.000  C
  C306     1.0000 0.48130  0.10900  0.73660  Biso   1.000  C
  H204     1.0000 0.46580  0.12810  0.73460  Biso   1.000  H
  O52      1.0000 0.81520  0.67150  0.27940  Biso   1.000  O
  C307     1.0000 0.86670  0.62160  0.28022  Biso   1.000  C
  H205     1.0000 0.85410  0.62650  0.30090  Biso   1.000  H
  C308     1.0000 0.89200  0.59590  0.28008  Biso   1.000  C
  H206     1.0000 0.89640  0.58290  0.30060  Biso   1.000  H
  C309     1.0000 0.97210  0.57260  0.26160  Biso   1.000  C
  C310     1.0000 0.98132  0.60620  0.26770  Biso   1.000  C
  H207     1.0000 0.96630  0.62550  0.27130  Biso   1.000  H
  C311     1.0000 0.97390  0.57460  0.24040  Biso   1.000  C
  C312     1.0000 0.98130  0.60900  0.23660  Biso   1.000  C
  H208     1.0000 0.96580  0.62810  0.23460  Biso   1.000  H
  O53      1.0000 0.31520  0.82850  0.22060  Biso   1.000  O
  C313     1.0000 0.36670  0.87840  0.21978  Biso   1.000  C
  H209     1.0000 0.35410  0.87350  0.19910  Biso   1.000  H
  C314     1.0000 0.39200  0.90410  0.21992  Biso   1.000  C
  H210     1.0000 0.39640  0.91710  0.19940  Biso   1.000  H
  C315     1.0000 0.47210  0.92740  0.23840  Biso   1.000  C
  C316     1.0000 0.48132  0.89380  0.23230  Biso   1.000  C
  H211     1.0000 0.46630  0.87450  0.22870  Biso   1.000  H
  C317     1.0000 0.47390  0.92540  0.25960  Biso   1.000  C
  C318     1.0000 0.48130  0.89100  0.26340  Biso   1.000  C
  H212     1.0000 0.46580  0.87190  0.26540  Biso   1.000  H
  O54      1.0000 0.81520  0.32850  0.72060  Biso   1.000  O
  C319     1.0000 0.86670  0.37840  0.71978  Biso   1.000  C
  H213     1.0000 0.85410  0.37350  0.69910  Biso   1.000  H
  C320     1.0000 0.89200  0.40410  0.71992  Biso   1.000  C
  H214     1.0000 0.89640  0.41710  0.69940  Biso   1.000  H
  C321     1.0000 0.97210  0.42740  0.73840  Biso   1.000  C
  C322     1.0000 0.98132  0.39380  0.73230  Biso   1.000  C
  H215     1.0000 0.96630  0.37450  0.72870  Biso   1.000  H
  C323     1.0000 0.97390  0.42540  0.75960  Biso   1.000  C
  C324     1.0000 0.98130  0.39100  0.76340  Biso   1.000  C
  H216     1.0000 0.96580  0.37190  0.76540  Biso   1.000  H
  O55      1.0000 0.68480  0.17150  0.22060  Biso   1.000  O
  C325     1.0000 0.63330  0.12160  0.21978  Biso   1.000  C
  H217     1.0000 0.64590  0.12650  0.19910  Biso   1.000  H
  C326     1.0000 0.60800  0.09590  0.21992  Biso   1.000  C
  H218     1.0000 0.60360  0.08290  0.19940  Biso   1.000  H
  C327     1.0000 0.52790  0.07260  0.23840  Biso   1.000  C
  C328     1.0000 0.51868  0.10620  0.23230  Biso   1.000  C
  H219     1.0000 0.53370  0.12550  0.22870  Biso   1.000  H
  C329     1.0000 0.52610  0.07460  0.25960  Biso   1.000  C
  C330     1.0000 0.51870  0.10900  0.26340  Biso   1.000  C
  H220     1.0000 0.53420  0.12810  0.26540  Biso   1.000  H
  O56      1.0000 0.18480  0.67150  0.72060  Biso   1.000  O
  C331     1.0000 0.13330  0.62160  0.71978  Biso   1.000  C
  H221     1.0000 0.14590  0.62650  0.69910  Biso   1.000  H
  C332     1.0000 0.10800  0.59590  0.71992  Biso   1.000  C
  H222     1.0000 0.10360  0.58290  0.69940  Biso   1.000  H
  C333     1.0000 0.02790  0.57260  0.73840  Biso   1.000  C
  C334     1.0000 0.01868  0.60620  0.73230  Biso   1.000  C
  H223     1.0000 0.03370  0.62550  0.72870  Biso   1.000  H
  C335     1.0000 0.02610  0.57460  0.75960  Biso   1.000  C
  C336     1.0000 0.01870  0.60900  0.76340  Biso   1.000  C
  H224     1.0000 0.03420  0.62810  0.76540  Biso   1.000  H
  O57      1.0000 0.77940  0.68480  0.82850  Biso   1.000  O
  C337     1.0000 0.78022  0.63330  0.87840  Biso   1.000  C
  H225     1.0000 0.80090  0.64590  0.87350  Biso   1.000  H
  C338     1.0000 0.78008  0.60800  0.90410  Biso   1.000  C
  H226     1.0000 0.80060  0.60360  0.91710  Biso   1.000  H
  C339     1.0000 0.76160  0.52790  0.92740  Biso   1.000  C
  C340     1.0000 0.76770  0.51868  0.89380  Biso   1.000  C
  H227     1.0000 0.77130  0.53370  0.87450  Biso   1.000  H
  C341     1.0000 0.74040  0.52610  0.92540  Biso   1.000  C
  C342     1.0000 0.73660  0.51870  0.89100  Biso   1.000  C
  H228     1.0000 0.73460  0.53420  0.87190  Biso   1.000  H
  O58      1.0000 0.27940  0.18480  0.32850  Biso   1.000  O
  C343     1.0000 0.28022  0.13330  0.37840  Biso   1.000  C
  H229     1.0000 0.30090  0.14590  0.37350  Biso   1.000  H
  C344     1.0000 0.28008  0.10800  0.40410  Biso   1.000  C
  H230     1.0000 0.30060  0.10360  0.41710  Biso   1.000  H
  C345     1.0000 0.26160  0.02790  0.42740  Biso   1.000  C
  C346     1.0000 0.26770  0.01868  0.39380  Biso   1.000  C
  H231     1.0000 0.27130  0.03370  0.37450  Biso   1.000  H
  C347     1.0000 0.24040  0.02610  0.42540  Biso   1.000  C
  C348     1.0000 0.23660  0.01870  0.39100  Biso   1.000  C
  H232     1.0000 0.23460  0.03420  0.37190  Biso   1.000  H
  O59      1.0000 0.77940  0.31520  0.17150  Biso   1.000  O
  C349     1.0000 0.78022  0.36670  0.12160  Biso   1.000  C
  H233     1.0000 0.80090  0.35410  0.12650  Biso   1.000  H
  C350     1.0000 0.78008  0.39200  0.09590  Biso   1.000  C
  H234     1.0000 0.80060  0.39640  0.08290  Biso   1.000  H
  C351     1.0000 0.76160  0.47210  0.07260  Biso   1.000  C
  C352     1.0000 0.76770  0.48132  0.10620  Biso   1.000  C
  H235     1.0000 0.77130  0.46630  0.12550  Biso   1.000  H
  C353     1.0000 0.74040  0.47390  0.07460  Biso   1.000  C
  C354     1.0000 0.73660  0.48130  0.10900  Biso   1.000  C
  H236     1.0000 0.73460  0.46580  0.12810  Biso   1.000  H
  O60      1.0000 0.27940  0.81520  0.67150  Biso   1.000  O
  C355     1.0000 0.28022  0.86670  0.62160  Biso   1.000  C
  H237     1.0000 0.30090  0.85410  0.62650  Biso   1.000  H
  C356     1.0000 0.28008  0.89200  0.59590  Biso   1.000  C
  H238     1.0000 0.30060  0.89640  0.58290  Biso   1.000  H
  C357     1.0000 0.26160  0.97210  0.57260  Biso   1.000  C
  C358     1.0000 0.26770  0.98132  0.60620  Biso   1.000  C
  H239     1.0000 0.27130  0.96630  0.62550  Biso   1.000  H
  C359     1.0000 0.24040  0.97390  0.57460  Biso   1.000  C
  C360     1.0000 0.23660  0.98130  0.60900  Biso   1.000  C
  H240     1.0000 0.23460  0.96580  0.62810  Biso   1.000  H
  O61      1.0000 0.22060  0.31520  0.82850  Biso   1.000  O
  C361     1.0000 0.21978  0.36670  0.87840  Biso   1.000  C
  H241     1.0000 0.19910  0.35410  0.87350  Biso   1.000  H
  C362     1.0000 0.21992  0.39200  0.90410  Biso   1.000  C
  H242     1.0000 0.19940  0.39640  0.91710  Biso   1.000  H
  C363     1.0000 0.23840  0.47210  0.92740  Biso   1.000  C
  C364     1.0000 0.23230  0.48132  0.89380  Biso   1.000  C
  H243     1.0000 0.22870  0.46630  0.87450  Biso   1.000  H
  C365     1.0000 0.25960  0.47390  0.92540  Biso   1.000  C
  C366     1.0000 0.26340  0.48130  0.89100  Biso   1.000  C
  H244     1.0000 0.26540  0.46580  0.87190  Biso   1.000  H
  O62      1.0000 0.72060  0.81520  0.32850  Biso   1.000  O
  C367     1.0000 0.71978  0.86670  0.37840  Biso   1.000  C
  H245     1.0000 0.69910  0.85410  0.37350  Biso   1.000  H
  C368     1.0000 0.71992  0.89200  0.40410  Biso   1.000  C
  H246     1.0000 0.69940  0.89640  0.41710  Biso   1.000  H
  C369     1.0000 0.73840  0.97210  0.42740  Biso   1.000  C
  C370     1.0000 0.73230  0.98132  0.39380  Biso   1.000  C
  H247     1.0000 0.72870  0.96630  0.37450  Biso   1.000  H
  C371     1.0000 0.75960  0.97390  0.42540  Biso   1.000  C
  C372     1.0000 0.76340  0.98130  0.39100  Biso   1.000  C
  H248     1.0000 0.76540  0.96580  0.37190  Biso   1.000  H
  O63      1.0000 0.22060  0.68480  0.17150  Biso   1.000  O
  C373     1.0000 0.21978  0.63330  0.12160  Biso   1.000  C
  H249     1.0000 0.19910  0.64590  0.12650  Biso   1.000  H
  C374     1.0000 0.21992  0.60800  0.09590  Biso   1.000  C
  H250     1.0000 0.19940  0.60360  0.08290  Biso   1.000  H
  C375     1.0000 0.23840  0.52790  0.07260  Biso   1.000  C
  C376     1.0000 0.23230  0.51868  0.10620  Biso   1.000  C
  H251     1.0000 0.22870  0.53370  0.12550  Biso   1.000  H
  C377     1.0000 0.25960  0.52610  0.07460  Biso   1.000  C
  C378     1.0000 0.26340  0.51870  0.10900  Biso   1.000  C
  H252     1.0000 0.26540  0.53420  0.12810  Biso   1.000  H
  O64      1.0000 0.72060  0.18480  0.67150  Biso   1.000  O
  C379     1.0000 0.71978  0.13330  0.62160  Biso   1.000  C
  H253     1.0000 0.69910  0.14590  0.62650  Biso   1.000  H
  C380     1.0000 0.71992  0.10800  0.59590  Biso   1.000  C
  H254     1.0000 0.69940  0.10360  0.58290  Biso   1.000  H
  C381     1.0000 0.73840  0.02790  0.57260  Biso   1.000  C
  C382     1.0000 0.73230  0.01868  0.60620  Biso   1.000  C
  H255     1.0000 0.72870  0.03370  0.62550  Biso   1.000  H
  C383     1.0000 0.75960  0.02610  0.57460  Biso   1.000  C
  C384     1.0000 0.76340  0.01870  0.60900  Biso   1.000  C
  H256     1.0000 0.76540  0.03420  0.62810  Biso   1.000  H
  O65      1.0000 0.82850  0.77940  0.68480  Biso   1.000  O
  C385     1.0000 0.87840  0.78022  0.63330  Biso   1.000  C
  H257     1.0000 0.87350  0.80090  0.64590  Biso   1.000  H
  C386     1.0000 0.90410  0.78008  0.60800  Biso   1.000  C
  H258     1.0000 0.91710  0.80060  0.60360  Biso   1.000  H
  C387     1.0000 0.92740  0.76160  0.52790  Biso   1.000  C
  C388     1.0000 0.89380  0.76770  0.51868  Biso   1.000  C
  H259     1.0000 0.87450  0.77130  0.53370  Biso   1.000  H
  C389     1.0000 0.92540  0.74040  0.52610  Biso   1.000  C
  C390     1.0000 0.89100  0.73660  0.51870  Biso   1.000  C
  H260     1.0000 0.87190  0.73460  0.53420  Biso   1.000  H
  O66      1.0000 0.32850  0.27940  0.18480  Biso   1.000  O
  C391     1.0000 0.37840  0.28022  0.13330  Biso   1.000  C
  H261     1.0000 0.37350  0.30090  0.14590  Biso   1.000  H
  C392     1.0000 0.40410  0.28008  0.10800  Biso   1.000  C
  H262     1.0000 0.41710  0.30060  0.10360  Biso   1.000  H
  C393     1.0000 0.42740  0.26160  0.02790  Biso   1.000  C
  C394     1.0000 0.39380  0.26770  0.01868  Biso   1.000  C
  H263     1.0000 0.37450  0.27130  0.03370  Biso   1.000  H
  C395     1.0000 0.42540  0.24040  0.02610  Biso   1.000  C
  C396     1.0000 0.39100  0.23660  0.01870  Biso   1.000  C
  H264     1.0000 0.37190  0.23460  0.03420  Biso   1.000  H
  O67      1.0000 0.17150  0.77940  0.31520  Biso   1.000  O
  C397     1.0000 0.12160  0.78022  0.36670  Biso   1.000  C
  H265     1.0000 0.12650  0.80090  0.35410  Biso   1.000  H
  C398     1.0000 0.09590  0.78008  0.39200  Biso   1.000  C
  H266     1.0000 0.08290  0.80060  0.39640  Biso   1.000  H
  C399     1.0000 0.07260  0.76160  0.47210  Biso   1.000  C
  C400     1.0000 0.10620  0.76770  0.48132  Biso   1.000  C
  H267     1.0000 0.12550  0.77130  0.46630  Biso   1.000  H
  C401     1.0000 0.07460  0.74040  0.47390  Biso   1.000  C
  C402     1.0000 0.10900  0.73660  0.48130  Biso   1.000  C
  H268     1.0000 0.12810  0.73460  0.46580  Biso   1.000  H
  O68      1.0000 0.67150  0.27940  0.81520  Biso   1.000  O
  C403     1.0000 0.62160  0.28022  0.86670  Biso   1.000  C
  H269     1.0000 0.62650  0.30090  0.85410  Biso   1.000  H
  C404     1.0000 0.59590  0.28008  0.89200  Biso   1.000  C
  H270     1.0000 0.58290  0.30060  0.89640  Biso   1.000  H
  C405     1.0000 0.57260  0.26160  0.97210  Biso   1.000  C
  C406     1.0000 0.60620  0.26770  0.98132  Biso   1.000  C
  H271     1.0000 0.62550  0.27130  0.96630  Biso   1.000  H
  C407     1.0000 0.57460  0.24040  0.97390  Biso   1.000  C
  C408     1.0000 0.60900  0.23660  0.98130  Biso   1.000  C
  H272     1.0000 0.62810  0.23460  0.96580  Biso   1.000  H
  O69      1.0000 0.82850  0.22060  0.31520  Biso   1.000  O
  C409     1.0000 0.87840  0.21978  0.36670  Biso   1.000  C
  H273     1.0000 0.87350  0.19910  0.35410  Biso   1.000  H
  C410     1.0000 0.90410  0.21992  0.39200  Biso   1.000  C
  H274     1.0000 0.91710  0.19940  0.39640  Biso   1.000  H
  C411     1.0000 0.92740  0.23840  0.47210  Biso   1.000  C
  C412     1.0000 0.89380  0.23230  0.48132  Biso   1.000  C
  H275     1.0000 0.87450  0.22870  0.46630  Biso   1.000  H
  C413     1.0000 0.92540  0.25960  0.47390  Biso   1.000  C
  C414     1.0000 0.89100  0.26340  0.48130  Biso   1.000  C
  H276     1.0000 0.87190  0.26540  0.46580  Biso   1.000  H
  O70      1.0000 0.32850  0.72060  0.81520  Biso   1.000  O
  C415     1.0000 0.37840  0.71978  0.86670  Biso   1.000  C
  H277     1.0000 0.37350  0.69910  0.85410  Biso   1.000  H
  C416     1.0000 0.40410  0.71992  0.89200  Biso   1.000  C
  H278     1.0000 0.41710  0.69940  0.89640  Biso   1.000  H
  C417     1.0000 0.42740  0.73840  0.97210  Biso   1.000  C
  C418     1.0000 0.39380  0.73230  0.98132  Biso   1.000  C
  H279     1.0000 0.37450  0.72870  0.96630  Biso   1.000  H
  C419     1.0000 0.42540  0.75960  0.97390  Biso   1.000  C
  C420     1.0000 0.39100  0.76340  0.98130  Biso   1.000  C
  H280     1.0000 0.37190  0.76540  0.96580  Biso   1.000  H
  O71      1.0000 0.17150  0.22060  0.68480  Biso   1.000  O
  C421     1.0000 0.12160  0.21978  0.63330  Biso   1.000  C
  H281     1.0000 0.12650  0.19910  0.64590  Biso   1.000  H
  C422     1.0000 0.09590  0.21992  0.60800  Biso   1.000  C
  H282     1.0000 0.08290  0.19940  0.60360  Biso   1.000  H
  C423     1.0000 0.07260  0.23840  0.52790  Biso   1.000  C
  C424     1.0000 0.10620  0.23230  0.51868  Biso   1.000  C
  H283     1.0000 0.12550  0.22870  0.53370  Biso   1.000  H
  C425     1.0000 0.07460  0.25960  0.52610  Biso   1.000  C
  C426     1.0000 0.10900  0.26340  0.51870  Biso   1.000  C
  H284     1.0000 0.12810  0.26540  0.53420  Biso   1.000  H
  O72      1.0000 0.67150  0.72060  0.18480  Biso   1.000  O
  C427     1.0000 0.62160  0.71978  0.13330  Biso   1.000  C
  H285     1.0000 0.62650  0.69910  0.14590  Biso   1.000  H
  C428     1.0000 0.59590  0.71992  0.10800  Biso   1.000  C
  H286     1.0000 0.58290  0.69940  0.10360  Biso   1.000  H
  C429     1.0000 0.57260  0.73840  0.02790  Biso   1.000  C
  C430     1.0000 0.60620  0.73230  0.01868  Biso   1.000  C
  H287     1.0000 0.62550  0.72870  0.03370  Biso   1.000  H
  C431     1.0000 0.57460  0.75960  0.02610  Biso   1.000  C
  C432     1.0000 0.60900  0.76340  0.01870  Biso   1.000  C
  H288     1.0000 0.62810  0.76540  0.03420  Biso   1.000  H
  O73      1.0000 0.82850  0.68480  0.22060  Biso   1.000  O
  C433     1.0000 0.87840  0.63330  0.21978  Biso   1.000  C
  H289     1.0000 0.87350  0.64590  0.19910  Biso   1.000  H
  C434     1.0000 0.90410  0.60800  0.21992  Biso   1.000  C
  H290     1.0000 0.91710  0.60360  0.19940  Biso   1.000  H
  C435     1.0000 0.92740  0.52790  0.23840  Biso   1.000  C
  C436     1.0000 0.89380  0.51868  0.23230  Biso   1.000  C
  H291     1.0000 0.87450  0.53370  0.22870  Biso   1.000  H
  C437     1.0000 0.92540  0.52610  0.25960  Biso   1.000  C
  C438     1.0000 0.89100  0.51870  0.26340  Biso   1.000  C
  H292     1.0000 0.87190  0.53420  0.26540  Biso   1.000  H
  O74      1.0000 0.32850  0.18480  0.72060  Biso   1.000  O
  C439     1.0000 0.37840  0.13330  0.71978  Biso   1.000  C
  H293     1.0000 0.37350  0.14590  0.69910  Biso   1.000  H
  C440     1.0000 0.40410  0.10800  0.71992  Biso   1.000  C
  H294     1.0000 0.41710  0.10360  0.69940  Biso   1.000  H
  C441     1.0000 0.42740  0.02790  0.73840  Biso   1.000  C
  C442     1.0000 0.39380  0.01868  0.73230  Biso   1.000  C
  H295     1.0000 0.37450  0.03370  0.72870  Biso   1.000  H
  C443     1.0000 0.42540  0.02610  0.75960  Biso   1.000  C
  C444     1.0000 0.39100  0.01870  0.76340  Biso   1.000  C
  H296     1.0000 0.37190  0.03420  0.76540  Biso   1.000  H
  O75      1.0000 0.17150  0.31520  0.22060  Biso   1.000  O
  C445     1.0000 0.12160  0.36670  0.21978  Biso   1.000  C
  H297     1.0000 0.12650  0.35410  0.19910  Biso   1.000  H
  C446     1.0000 0.09590  0.39200  0.21992  Biso   1.000  C
  H298     1.0000 0.08290  0.39640  0.19940  Biso   1.000  H
  C447     1.0000 0.07260  0.47210  0.23840  Biso   1.000  C
  C448     1.0000 0.10620  0.48132  0.23230  Biso   1.000  C
  H299     1.0000 0.12550  0.46630  0.22870  Biso   1.000  H
  C449     1.0000 0.07460  0.47390  0.25960  Biso   1.000  C
  C450     1.0000 0.10900  0.48130  0.26340  Biso   1.000  C
  H300     1.0000 0.12810  0.46580  0.26540  Biso   1.000  H
  O76      1.0000 0.67150  0.81520  0.72060  Biso   1.000  O
  C451     1.0000 0.62160  0.86670  0.71978  Biso   1.000  C
  H301     1.0000 0.62650  0.85410  0.69910  Biso   1.000  H
  C452     1.0000 0.59590  0.89200  0.71992  Biso   1.000  C
  H302     1.0000 0.58290  0.89640  0.69940  Biso   1.000  H
  C453     1.0000 0.57260  0.97210  0.73840  Biso   1.000  C
  C454     1.0000 0.60620  0.98132  0.73230  Biso   1.000  C
  H303     1.0000 0.62550  0.96630  0.72870  Biso   1.000  H
  C455     1.0000 0.57460  0.97390  0.75960  Biso   1.000  C
  C456     1.0000 0.60900  0.98130  0.76340  Biso   1.000  C
  H304     1.0000 0.62810  0.96580  0.76540  Biso   1.000  H
  O77      1.0000 0.82850  0.31520  0.77940  Biso   1.000  O
  C457     1.0000 0.87840  0.36670  0.78022  Biso   1.000  C
  H305     1.0000 0.87350  0.35410  0.80090  Biso   1.000  H
  C458     1.0000 0.90410  0.39200  0.78008  Biso   1.000  C
  H306     1.0000 0.91710  0.39640  0.80060  Biso   1.000  H
  C459     1.0000 0.92740  0.47210  0.76160  Biso   1.000  C
  C460     1.0000 0.89380  0.48132  0.76770  Biso   1.000  C
  H307     1.0000 0.87450  0.46630  0.77130  Biso   1.000  H
  C461     1.0000 0.92540  0.47390  0.74040  Biso   1.000  C
  C462     1.0000 0.89100  0.48130  0.73660  Biso   1.000  C
  H308     1.0000 0.87190  0.46580  0.73460  Biso   1.000  H
  O78      1.0000 0.32850  0.81520  0.27940  Biso   1.000  O
  C463     1.0000 0.37840  0.86670  0.28022  Biso   1.000  C
  H309     1.0000 0.37350  0.85410  0.30090  Biso   1.000  H
  C464     1.0000 0.40410  0.89200  0.28008  Biso   1.000  C
  H310     1.0000 0.41710  0.89640  0.30060  Biso   1.000  H
  C465     1.0000 0.42740  0.97210  0.26160  Biso   1.000  C
  C466     1.0000 0.39380  0.98132  0.26770  Biso   1.000  C
  H311     1.0000 0.37450  0.96630  0.27130  Biso   1.000  H
  C467     1.0000 0.42540  0.97390  0.24040  Biso   1.000  C
  C468     1.0000 0.39100  0.98130  0.23660  Biso   1.000  C
  H312     1.0000 0.37190  0.96580  0.23460  Biso   1.000  H
  O79      1.0000 0.17150  0.68480  0.77940  Biso   1.000  O
  C469     1.0000 0.12160  0.63330  0.78022  Biso   1.000  C
  H313     1.0000 0.12650  0.64590  0.80090  Biso   1.000  H
  C470     1.0000 0.09590  0.60800  0.78008  Biso   1.000  C
  H314     1.0000 0.08290  0.60360  0.80060  Biso   1.000  H
  C471     1.0000 0.07260  0.52790  0.76160  Biso   1.000  C
  C472     1.0000 0.10620  0.51868  0.76770  Biso   1.000  C
  H315     1.0000 0.12550  0.53370  0.77130  Biso   1.000  H
  C473     1.0000 0.07460  0.52610  0.74040  Biso   1.000  C
  C474     1.0000 0.10900  0.51870  0.73660  Biso   1.000  C
  H316     1.0000 0.12810  0.53420  0.73460  Biso   1.000  H
  O80      1.0000 0.67150  0.18480  0.27940  Biso   1.000  O
  C475     1.0000 0.62160  0.13330  0.28022  Biso   1.000  C
  H317     1.0000 0.62650  0.14590  0.30090  Biso   1.000  H
  C476     1.0000 0.59590  0.10800  0.28008  Biso   1.000  C
  H318     1.0000 0.58290  0.10360  0.30060  Biso   1.000  H
  C477     1.0000 0.57260  0.02790  0.26160  Biso   1.000  C
  C478     1.0000 0.60620  0.01868  0.26770  Biso   1.000  C
  H319     1.0000 0.62550  0.03370  0.27130  Biso   1.000  H
  C479     1.0000 0.57460  0.02610  0.24040  Biso   1.000  C
  C480     1.0000 0.60900  0.01870  0.23660  Biso   1.000  C
  H320     1.0000 0.62810  0.03420  0.23460  Biso   1.000  H
  O81      1.0000 0.68480  0.77940  0.17150  Biso   1.000  O
  C481     1.0000 0.63330  0.78022  0.12160  Biso   1.000  C
  H321     1.0000 0.64590  0.80090  0.12650  Biso   1.000  H
  C482     1.0000 0.60800  0.78008  0.09590  Biso   1.000  C
  H322     1.0000 0.60360  0.80060  0.08290  Biso   1.000  H
  C483     1.0000 0.52790  0.76160  0.07260  Biso   1.000  C
  C484     1.0000 0.51868  0.76770  0.10620  Biso   1.000  C
  H323     1.0000 0.53370  0.77130  0.12550  Biso   1.000  H
  C485     1.0000 0.52610  0.74040  0.07460  Biso   1.000  C
  C486     1.0000 0.51870  0.73660  0.10900  Biso   1.000  C
  H324     1.0000 0.53420  0.73460  0.12810  Biso   1.000  H
  O82      1.0000 0.18480  0.27940  0.67150  Biso   1.000  O
  C487     1.0000 0.13330  0.28022  0.62160  Biso   1.000  C
  H325     1.0000 0.14590  0.30090  0.62650  Biso   1.000  H
  C488     1.0000 0.10800  0.28008  0.59590  Biso   1.000  C
  H326     1.0000 0.10360  0.30060  0.58290  Biso   1.000  H
  C489     1.0000 0.02790  0.26160  0.57260  Biso   1.000  C
  C490     1.0000 0.01868  0.26770  0.60620  Biso   1.000  C
  H327     1.0000 0.03370  0.27130  0.62550  Biso   1.000  H
  C491     1.0000 0.02610  0.24040  0.57460  Biso   1.000  C
  C492     1.0000 0.01870  0.23660  0.60900  Biso   1.000  C
  H328     1.0000 0.03420  0.23460  0.62810  Biso   1.000  H
  O83      1.0000 0.31520  0.77940  0.82850  Biso   1.000  O
  C493     1.0000 0.36670  0.78022  0.87840  Biso   1.000  C
  H329     1.0000 0.35410  0.80090  0.87350  Biso   1.000  H
  C494     1.0000 0.39200  0.78008  0.90410  Biso   1.000  C
  H330     1.0000 0.39640  0.80060  0.91710  Biso   1.000  H
  C495     1.0000 0.47210  0.76160  0.92740  Biso   1.000  C
  C496     1.0000 0.48132  0.76770  0.89380  Biso   1.000  C
  H331     1.0000 0.46630  0.77130  0.87450  Biso   1.000  H
  C497     1.0000 0.47390  0.74040  0.92540  Biso   1.000  C
  C498     1.0000 0.48130  0.73660  0.89100  Biso   1.000  C
  H332     1.0000 0.46580  0.73460  0.87190  Biso   1.000  H
  O84      1.0000 0.81520  0.27940  0.32850  Biso   1.000  O
  C499     1.0000 0.86670  0.28022  0.37840  Biso   1.000  C
  H333     1.0000 0.85410  0.30090  0.37350  Biso   1.000  H
  C500     1.0000 0.89200  0.28008  0.40410  Biso   1.000  C
  H334     1.0000 0.89640  0.30060  0.41710  Biso   1.000  H
  C501     1.0000 0.97210  0.26160  0.42740  Biso   1.000  C
  C502     1.0000 0.98132  0.26770  0.39380  Biso   1.000  C
  H335     1.0000 0.96630  0.27130  0.37450  Biso   1.000  H
  C503     1.0000 0.97390  0.24040  0.42540  Biso   1.000  C
  C504     1.0000 0.98130  0.23660  0.39100  Biso   1.000  C
  H336     1.0000 0.96580  0.23460  0.37190  Biso   1.000  H
  O85      1.0000 0.31520  0.22060  0.17150  Biso   1.000  O
  C505     1.0000 0.36670  0.21978  0.12160  Biso   1.000  C
  H337     1.0000 0.35410  0.19910  0.12650  Biso   1.000  H
  C506     1.0000 0.39200  0.21992  0.09590  Biso   1.000  C
  H338     1.0000 0.39640  0.19940  0.08290  Biso   1.000  H
  C507     1.0000 0.47210  0.23840  0.07260  Biso   1.000  C
  C508     1.0000 0.48132  0.23230  0.10620  Biso   1.000  C
  H339     1.0000 0.46630  0.22870  0.12550  Biso   1.000  H
  C509     1.0000 0.47390  0.25960  0.07460  Biso   1.000  C
  C510     1.0000 0.48130  0.26340  0.10900  Biso   1.000  C
  H340     1.0000 0.46580  0.26540  0.12810  Biso   1.000  H
  O86      1.0000 0.81520  0.72060  0.67150  Biso   1.000  O
  C511     1.0000 0.86670  0.71978  0.62160  Biso   1.000  C
  H341     1.0000 0.85410  0.69910  0.62650  Biso   1.000  H
  C512     1.0000 0.89200  0.71992  0.59590  Biso   1.000  C
  H342     1.0000 0.89640  0.69940  0.58290  Biso   1.000  H
  C513     1.0000 0.97210  0.73840  0.57260  Biso   1.000  C
  C514     1.0000 0.98132  0.73230  0.60620  Biso   1.000  C
  H343     1.0000 0.96630  0.72870  0.62550  Biso   1.000  H
  C515     1.0000 0.97390  0.75960  0.57460  Biso   1.000  C
  C516     1.0000 0.98130  0.76340  0.60900  Biso   1.000  C
  H344     1.0000 0.96580  0.76540  0.62810  Biso   1.000  H
  O87      1.0000 0.68480  0.22060  0.82850  Biso   1.000  O
  C517     1.0000 0.63330  0.21978  0.87840  Biso   1.000  C
  H345     1.0000 0.64590  0.19910  0.87350  Biso   1.000  H
  C518     1.0000 0.60800  0.21992  0.90410  Biso   1.000  C
  H346     1.0000 0.60360  0.19940  0.91710  Biso   1.000  H
  C519     1.0000 0.52790  0.23840  0.92740  Biso   1.000  C
  C520     1.0000 0.51868  0.23230  0.89380  Biso   1.000  C
  H347     1.0000 0.53370  0.22870  0.87450  Biso   1.000  H
  C521     1.0000 0.52610  0.25960  0.92540  Biso   1.000  C
  C522     1.0000 0.51870  0.26340  0.89100  Biso   1.000  C
  H348     1.0000 0.53420  0.26540  0.87190  Biso   1.000  H
  O88      1.0000 0.18480  0.72060  0.32850  Biso   1.000  O
  C523     1.0000 0.13330  0.71978  0.37840  Biso   1.000  C
  H349     1.0000 0.14590  0.69910  0.37350  Biso   1.000  H
  C524     1.0000 0.10800  0.71992  0.40410  Biso   1.000  C
  H350     1.0000 0.10360  0.69940  0.41710  Biso   1.000  H
  C525     1.0000 0.02790  0.73840  0.42740  Biso   1.000  C
  C526     1.0000 0.01868  0.73230  0.39380  Biso   1.000  C
  H351     1.0000 0.03370  0.72870  0.37450  Biso   1.000  H
  C527     1.0000 0.02610  0.75960  0.42540  Biso   1.000  C
  C528     1.0000 0.01870  0.76340  0.39100  Biso   1.000  C
  H352     1.0000 0.03420  0.76540  0.37190  Biso   1.000  H
  O89      1.0000 0.77940  0.82850  0.31520  Biso   1.000  O
  C529     1.0000 0.78022  0.87840  0.36670  Biso   1.000  C
  H353     1.0000 0.80090  0.87350  0.35410  Biso   1.000  H
  C530     1.0000 0.78008  0.90410  0.39200  Biso   1.000  C
  H354     1.0000 0.80060  0.91710  0.39640  Biso   1.000  H
  C531     1.0000 0.76160  0.92740  0.47210  Biso   1.000  C
  C532     1.0000 0.76770  0.89380  0.48132  Biso   1.000  C
  H355     1.0000 0.77130  0.87450  0.46630  Biso   1.000  H
  C533     1.0000 0.74040  0.92540  0.47390  Biso   1.000  C
  C534     1.0000 0.73660  0.89100  0.48130  Biso   1.000  C
  H356     1.0000 0.73460  0.87190  0.46580  Biso   1.000  H
  O90      1.0000 0.27940  0.32850  0.81520  Biso   1.000  O
  C535     1.0000 0.28022  0.37840  0.86670  Biso   1.000  C
  H357     1.0000 0.30090  0.37350  0.85410  Biso   1.000  H
  C536     1.0000 0.28008  0.40410  0.89200  Biso   1.000  C
  H358     1.0000 0.30060  0.41710  0.89640  Biso   1.000  H
  C537     1.0000 0.26160  0.42740  0.97210  Biso   1.000  C
  C538     1.0000 0.26770  0.39380  0.98132  Biso   1.000  C
  H359     1.0000 0.27130  0.37450  0.96630  Biso   1.000  H
  C539     1.0000 0.24040  0.42540  0.97390  Biso   1.000  C
  C540     1.0000 0.23660  0.39100  0.98130  Biso   1.000  C
  H360     1.0000 0.23460  0.37190  0.96580  Biso   1.000  H
  O91      1.0000 0.77940  0.17150  0.68480  Biso   1.000  O
  C541     1.0000 0.78022  0.12160  0.63330  Biso   1.000  C
  H361     1.0000 0.80090  0.12650  0.64590  Biso   1.000  H
  C542     1.0000 0.78008  0.09590  0.60800  Biso   1.000  C
  H362     1.0000 0.80060  0.08290  0.60360  Biso   1.000  H
  C543     1.0000 0.76160  0.07260  0.52790  Biso   1.000  C
  C544     1.0000 0.76770  0.10620  0.51868  Biso   1.000  C
  H363     1.0000 0.77130  0.12550  0.53370  Biso   1.000  H
  C545     1.0000 0.74040  0.07460  0.52610  Biso   1.000  C
  C546     1.0000 0.73660  0.10900  0.51870  Biso   1.000  C
  H364     1.0000 0.73460  0.12810  0.53420  Biso   1.000  H
  O92      1.0000 0.27940  0.67150  0.18480  Biso   1.000  O
  C547     1.0000 0.28022  0.62160  0.13330  Biso   1.000  C
  H365     1.0000 0.30090  0.62650  0.14590  Biso   1.000  H
  C548     1.0000 0.28008  0.59590  0.10800  Biso   1.000  C
  H366     1.0000 0.30060  0.58290  0.10360  Biso   1.000  H
  C549     1.0000 0.26160  0.57260  0.02790  Biso   1.000  C
  C550     1.0000 0.26770  0.60620  0.01868  Biso   1.000  C
  H367     1.0000 0.27130  0.62550  0.03370  Biso   1.000  H
  C551     1.0000 0.24040  0.57460  0.02610  Biso   1.000  C
  C552     1.0000 0.23660  0.60900  0.01870  Biso   1.000  C
  H368     1.0000 0.23460  0.62810  0.03420  Biso   1.000  H
  O93      1.0000 0.22060  0.82850  0.68480  Biso   1.000  O
  C553     1.0000 0.21978  0.87840  0.63330  Biso   1.000  C
  H369     1.0000 0.19910  0.87350  0.64590  Biso   1.000  H
  C554     1.0000 0.21992  0.90410  0.60800  Biso   1.000  C
  H370     1.0000 0.19940  0.91710  0.60360  Biso   1.000  H
  C555     1.0000 0.23840  0.92740  0.52790  Biso   1.000  C
  C556     1.0000 0.23230  0.89380  0.51868  Biso   1.000  C
  H371     1.0000 0.22870  0.87450  0.53370  Biso   1.000  H
  C557     1.0000 0.25960  0.92540  0.52610  Biso   1.000  C
  C558     1.0000 0.26340  0.89100  0.51870  Biso   1.000  C
  H372     1.0000 0.26540  0.87190  0.53420  Biso   1.000  H
  O94      1.0000 0.72060  0.32850  0.18480  Biso   1.000  O
  C559     1.0000 0.71978  0.37840  0.13330  Biso   1.000  C
  H373     1.0000 0.69910  0.37350  0.14590  Biso   1.000  H
  C560     1.0000 0.71992  0.40410  0.10800  Biso   1.000  C
  H374     1.0000 0.69940  0.41710  0.10360  Biso   1.000  H
  C561     1.0000 0.73840  0.42740  0.02790  Biso   1.000  C
  C562     1.0000 0.73230  0.39380  0.01868  Biso   1.000  C
  H375     1.0000 0.72870  0.37450  0.03370  Biso   1.000  H
  C563     1.0000 0.75960  0.42540  0.02610  Biso   1.000  C
  C564     1.0000 0.76340  0.39100  0.01870  Biso   1.000  C
  H376     1.0000 0.76540  0.37190  0.03420  Biso   1.000  H
  O95      1.0000 0.22060  0.17150  0.31520  Biso   1.000  O
  C565     1.0000 0.21978  0.12160  0.36670  Biso   1.000  C
  H377     1.0000 0.19910  0.12650  0.35410  Biso   1.000  H
  C566     1.0000 0.21992  0.09590  0.39200  Biso   1.000  C
  H378     1.0000 0.19940  0.08290  0.39640  Biso   1.000  H
  C567     1.0000 0.23840  0.07260  0.47210  Biso   1.000  C
  C568     1.0000 0.23230  0.10620  0.48132  Biso   1.000  C
  H379     1.0000 0.22870  0.12550  0.46630  Biso   1.000  H
  C569     1.0000 0.25960  0.07460  0.47390  Biso   1.000  C
  C570     1.0000 0.26340  0.10900  0.48130  Biso   1.000  C
  H380     1.0000 0.26540  0.12810  0.46580  Biso   1.000  H
  O96      1.0000 0.72060  0.67150  0.81520  Biso   1.000  O
  C571     1.0000 0.71978  0.62160  0.86670  Biso   1.000  C
  H381     1.0000 0.69910  0.62650  0.85410  Biso   1.000  H
  C572     1.0000 0.71992  0.59590  0.89200  Biso   1.000  C
  H382     1.0000 0.69940  0.58290  0.89640  Biso   1.000  H
  C573     1.0000 0.73840  0.57260  0.97210  Biso   1.000  C
  C574     1.0000 0.73230  0.60620  0.98132  Biso   1.000  C
  H383     1.0000 0.72870  0.62550  0.96630  Biso   1.000  H
  C575     1.0000 0.75960  0.57460  0.97390  Biso   1.000  C
  C576     1.0000 0.76340  0.60900  0.98130  Biso   1.000  C
  H384     1.0000 0.76540  0.62810  0.96580  Biso   1.000  H
  Zr1      1.0000 0.27174  0.20715  0.20715  Biso   1.000  Zr
  O97      1.0000 0.29890  0.23790  0.23790  Biso   1.000  O
  Zr2      1.0000 0.77174  0.70715  0.70715  Biso   1.000  Zr
  O98      1.0000 0.79890  0.73790  0.73790  Biso   1.000  O
  Zr3      1.0000 0.72826  0.79285  0.20715  Biso   1.000  Zr
  O99      1.0000 0.70110  0.76210  0.23790  Biso   1.000  O
  Zr4      1.0000 0.22826  0.29285  0.70715  Biso   1.000  Zr
  O100     1.0000 0.20110  0.26210  0.73790  Biso   1.000  O
  Zr5      1.0000 0.72826  0.20715  0.79285  Biso   1.000  Zr
  O101     1.0000 0.70110  0.23790  0.76210  Biso   1.000  O
  Zr6      1.0000 0.22826  0.70715  0.29285  Biso   1.000  Zr
  O102     1.0000 0.20110  0.73790  0.26210  Biso   1.000  O
  Zr7      1.0000 0.27174  0.79285  0.79285  Biso   1.000  Zr
  O103     1.0000 0.29890  0.76210  0.76210  Biso   1.000  O
  Zr8      1.0000 0.77174  0.29285  0.29285  Biso   1.000  Zr
  O104     1.0000 0.79890  0.26210  0.26210  Biso   1.000  O
  Zr9      1.0000 0.20715  0.27174  0.20715  Biso   1.000  Zr
  O105     1.0000 0.23790  0.29890  0.23790  Biso   1.000  O
  Zr10     1.0000 0.70715  0.77174  0.70715  Biso   1.000  Zr
  O106     1.0000 0.73790  0.79890  0.73790  Biso   1.000  O
  Zr11     1.0000 0.20715  0.72826  0.79285  Biso   1.000  Zr
  O107     1.0000 0.23790  0.70110  0.76210  Biso   1.000  O
  Zr12     1.0000 0.70715  0.22826  0.29285  Biso   1.000  Zr
  O108     1.0000 0.73790  0.20110  0.26210  Biso   1.000  O
  Zr13     1.0000 0.79285  0.72826  0.20715  Biso   1.000  Zr
  O109     1.0000 0.76210  0.70110  0.23790  Biso   1.000  O
  Zr14     1.0000 0.29285  0.22826  0.70715  Biso   1.000  Zr
  O110     1.0000 0.26210  0.20110  0.73790  Biso   1.000  O
  Zr15     1.0000 0.79285  0.27174  0.79285  Biso   1.000  Zr
  O111     1.0000 0.76210  0.29890  0.76210  Biso   1.000  O
  Zr16     1.0000 0.29285  0.77174  0.29285  Biso   1.000  Zr
  O112     1.0000 0.26210  0.79890  0.26210  Biso   1.000  O
  Zr17     1.0000 0.20715  0.20715  0.27174  Biso   1.000  Zr
  O113     1.0000 0.23790  0.23790  0.29890  Biso   1.000  O
  Zr18     1.0000 0.70715  0.70715  0.77174  Biso   1.000  Zr
  O114     1.0000 0.73790  0.73790  0.79890  Biso   1.000  O
  Zr19     1.0000 0.79285  0.20715  0.72826  Biso   1.000  Zr
  O115     1.0000 0.76210  0.23790  0.70110  Biso   1.000  O
  Zr20     1.0000 0.29285  0.70715  0.22826  Biso   1.000  Zr
  O116     1.0000 0.26210  0.73790  0.20110  Biso   1.000  O
  Zr21     1.0000 0.20715  0.79285  0.72826  Biso   1.000  Zr
  O117     1.0000 0.23790  0.76210  0.70110  Biso   1.000  O
  Zr22     1.0000 0.70715  0.29285  0.22826  Biso   1.000  Zr
  O118     1.0000 0.73790  0.26210  0.20110  Biso   1.000  O
  Zr23     1.0000 0.79285  0.79285  0.27174  Biso   1.000  Zr
  O119     1.0000 0.76210  0.76210  0.29890  Biso   1.000  O
  Zr24     1.0000 0.29285  0.29285  0.77174  Biso   1.000  Zr
  O120     1.0000 0.26210  0.26210  0.79890  Biso   1.000  O
  Zr25     1.0000 0.20715  0.27174  0.79285  Biso   1.000  Zr
  O121     1.0000 0.23790  0.29890  0.76210  Biso   1.000  O
  Zr26     1.0000 0.70715  0.77174  0.29285  Biso   1.000  Zr
  O122     1.0000 0.73790  0.79890  0.26210  Biso   1.000  O
  Zr27     1.0000 0.79285  0.72826  0.79285  Biso   1.000  Zr
  O123     1.0000 0.76210  0.70110  0.76210  Biso   1.000  O
  Zr28     1.0000 0.29285  0.22826  0.29285  Biso   1.000  Zr
  O124     1.0000 0.26210  0.20110  0.26210  Biso   1.000  O
  Zr29     1.0000 0.20715  0.72826  0.20715  Biso   1.000  Zr
  O125     1.0000 0.23790  0.70110  0.23790  Biso   1.000  O
  Zr30     1.0000 0.70715  0.22826  0.70715  Biso   1.000  Zr
  O126     1.0000 0.73790  0.20110  0.73790  Biso   1.000  O
  Zr31     1.0000 0.79285  0.27174  0.20715  Biso   1.000  Zr
  O127     1.0000 0.76210  0.29890  0.23790  Biso   1.000  O
  Zr32     1.0000 0.29285  0.77174  0.70715  Biso   1.000  Zr
  O128     1.0000 0.26210  0.79890  0.73790  Biso   1.000  O
  Zr33     1.0000 0.27174  0.20715  0.79285  Biso   1.000  Zr
  O129     1.0000 0.29890  0.23790  0.76210  Biso   1.000  O
  Zr34     1.0000 0.77174  0.70715  0.29285  Biso   1.000  Zr
  O130     1.0000 0.79890  0.73790  0.26210  Biso   1.000  O
  Zr35     1.0000 0.72826  0.20715  0.20715  Biso   1.000  Zr
  O131     1.0000 0.70110  0.23790  0.23790  Biso   1.000  O
  Zr36     1.0000 0.22826  0.70715  0.70715  Biso   1.000  Zr
  O132     1.0000 0.20110  0.73790  0.73790  Biso   1.000  O
  Zr37     1.0000 0.72826  0.79285  0.79285  Biso   1.000  Zr
  O133     1.0000 0.70110  0.76210  0.76210  Biso   1.000  O
  Zr38     1.0000 0.22826  0.29285  0.29285  Biso   1.000  Zr
  O134     1.0000 0.20110  0.26210  0.26210  Biso   1.000  O
  Zr39     1.0000 0.27174  0.79285  0.20715  Biso   1.000  Zr
  O135     1.0000 0.29890  0.76210  0.23790  Biso   1.000  O
  Zr40     1.0000 0.77174  0.29285  0.70715  Biso   1.000  Zr
  O136     1.0000 0.79890  0.26210  0.73790  Biso   1.000  O
  Zr41     1.0000 0.20715  0.20715  0.72826  Biso   1.000  Zr
  O137     1.0000 0.23790  0.23790  0.70110  Biso   1.000  O
  Zr42     1.0000 0.70715  0.70715  0.22826  Biso   1.000  Zr
  O138     1.0000 0.73790  0.73790  0.20110  Biso   1.000  O
  Zr43     1.0000 0.20715  0.79285  0.27174  Biso   1.000  Zr
  O139     1.0000 0.23790  0.76210  0.29890  Biso   1.000  O
  Zr44     1.0000 0.70715  0.29285  0.77174  Biso   1.000  Zr
  O140     1.0000 0.73790  0.26210  0.79890  Biso   1.000  O
  Zr45     1.0000 0.79285  0.20715  0.27174  Biso   1.000  Zr
  O141     1.0000 0.76210  0.23790  0.29890  Biso   1.000  O
  Zr46     1.0000 0.29285  0.70715  0.77174  Biso   1.000  Zr
  O142     1.0000 0.26210  0.73790  0.79890  Biso   1.000  O
  Zr47     1.0000 0.79285  0.79285  0.72826  Biso   1.000  Zr
  O143     1.0000 0.76210  0.76210  0.70110  Biso   1.000  O
  Zr48     1.0000 0.29285  0.29285  0.22826  Biso   1.000  Zr
  O144     1.0000 0.26210  0.26210  0.20110  Biso   1.000  O
  Zr49     1.0000 0.50000  0.00000  0.25000  Biso   1.000  Zr
  Zr50     1.0000 0.50000  0.00000  0.75000  Biso   1.000  Zr
  Zr51     1.0000 0.25000  0.50000  0.00000  Biso   1.000  Zr
  Zr52     1.0000 0.75000  0.50000  0.00000  Biso   1.000  Zr
  Zr53     1.0000 0.00000  0.25000  0.50000  Biso   1.000  Zr
  Zr54     1.0000 0.00000  0.75000  0.50000  Biso   1.000  Zr
  Zr55     1.0000 0.50000  0.25000  0.00000  Biso   1.000  Zr
  Zr56     1.0000 0.00000  0.50000  0.75000  Biso   1.000  Zr
  Zr57     1.0000 0.00000  0.50000  0.25000  Biso   1.000  Zr
  Zr58     1.0000 0.50000  0.75000  0.00000  Biso   1.000  Zr
  Zr59     1.0000 0.25000  0.00000  0.50000  Biso   1.000  Zr
  Zr60     1.0000 0.75000  0.00000  0.50000  Biso   1.000  Zr
  C577     1.0000 0.33290  0.16710  0.25000  Biso   1.000  C
  C578     1.0000 0.35964  0.14036  0.25000  Biso   1.000  C
  C579     1.0000 0.41090  0.08910  0.25000  Biso   1.000  C
  C580     1.0000 0.43610  0.06390  0.25000  Biso   1.000  C
  C581     1.0000 0.66710  0.83290  0.25000  Biso   1.000  C
  C582     1.0000 0.64036  0.85964  0.25000  Biso   1.000  C
  C583     1.0000 0.58910  0.91090  0.25000  Biso   1.000  C
  C584     1.0000 0.56390  0.93610  0.25000  Biso   1.000  C
  C585     1.0000 0.66710  0.16710  0.75000  Biso   1.000  C
  C586     1.0000 0.64036  0.14036  0.75000  Biso   1.000  C
  C587     1.0000 0.58910  0.08910  0.75000  Biso   1.000  C
  C588     1.0000 0.56390  0.06390  0.75000  Biso   1.000  C
  C589     1.0000 0.33290  0.83290  0.75000  Biso   1.000  C
  C590     1.0000 0.35964  0.85964  0.75000  Biso   1.000  C
  C591     1.0000 0.41090  0.91090  0.75000  Biso   1.000  C
  C592     1.0000 0.43610  0.93610  0.75000  Biso   1.000  C
  C593     1.0000 0.25000  0.33290  0.16710  Biso   1.000  C
  C594     1.0000 0.25000  0.35964  0.14036  Biso   1.000  C
  C595     1.0000 0.25000  0.41090  0.08910  Biso   1.000  C
  C596     1.0000 0.25000  0.43610  0.06390  Biso   1.000  C
  C597     1.0000 0.25000  0.66710  0.83290  Biso   1.000  C
  C598     1.0000 0.25000  0.64036  0.85964  Biso   1.000  C
  C599     1.0000 0.25000  0.58910  0.91090  Biso   1.000  C
  C600     1.0000 0.25000  0.56390  0.93610  Biso   1.000  C
  C601     1.0000 0.75000  0.66710  0.16710  Biso   1.000  C
  C602     1.0000 0.75000  0.64036  0.14036  Biso   1.000  C
  C603     1.0000 0.75000  0.58910  0.08910  Biso   1.000  C
  C604     1.0000 0.75000  0.56390  0.06390  Biso   1.000  C
  C605     1.0000 0.75000  0.33290  0.83290  Biso   1.000  C
  C606     1.0000 0.75000  0.35964  0.85964  Biso   1.000  C
  C607     1.0000 0.75000  0.41090  0.91090  Biso   1.000  C
  C608     1.0000 0.75000  0.43610  0.93610  Biso   1.000  C
  C609     1.0000 0.16710  0.25000  0.33290  Biso   1.000  C
  C610     1.0000 0.14036  0.25000  0.35964  Biso   1.000  C
  C611     1.0000 0.08910  0.25000  0.41090  Biso   1.000  C
  C612     1.0000 0.06390  0.25000  0.43610  Biso   1.000  C
  C613     1.0000 0.83290  0.25000  0.66710  Biso   1.000  C
  C614     1.0000 0.85964  0.25000  0.64036  Biso   1.000  C
  C615     1.0000 0.91090  0.25000  0.58910  Biso   1.000  C
  C616     1.0000 0.93610  0.25000  0.56390  Biso   1.000  C
  C617     1.0000 0.16710  0.75000  0.66710  Biso   1.000  C
  C618     1.0000 0.14036  0.75000  0.64036  Biso   1.000  C
  C619     1.0000 0.08910  0.75000  0.58910  Biso   1.000  C
  C620     1.0000 0.06390  0.75000  0.56390  Biso   1.000  C
  C621     1.0000 0.83290  0.75000  0.33290  Biso   1.000  C
  C622     1.0000 0.85964  0.75000  0.35964  Biso   1.000  C
  C623     1.0000 0.91090  0.75000  0.41090  Biso   1.000  C
  C624     1.0000 0.93610  0.75000  0.43610  Biso   1.000  C
  C625     1.0000 0.16710  0.33290  0.75000  Biso   1.000  C
  C626     1.0000 0.14036  0.35964  0.75000  Biso   1.000  C
  C627     1.0000 0.08910  0.41090  0.75000  Biso   1.000  C
  C628     1.0000 0.06390  0.43610  0.75000  Biso   1.000  C
  C629     1.0000 0.83290  0.66710  0.75000  Biso   1.000  C
  C630     1.0000 0.85964  0.64036  0.75000  Biso   1.000  C
  C631     1.0000 0.91090  0.58910  0.75000  Biso   1.000  C
  C632     1.0000 0.93610  0.56390  0.75000  Biso   1.000  C
  C633     1.0000 0.16710  0.66710  0.25000  Biso   1.000  C
  C634     1.0000 0.14036  0.64036  0.25000  Biso   1.000  C
  C635     1.0000 0.08910  0.58910  0.25000  Biso   1.000  C
  C636     1.0000 0.06390  0.56390  0.25000  Biso   1.000  C
  C637     1.0000 0.83290  0.33290  0.25000  Biso   1.000  C
  C638     1.0000 0.85964  0.35964  0.25000  Biso   1.000  C
  C639     1.0000 0.91090  0.41090  0.25000  Biso   1.000  C
  C640     1.0000 0.93610  0.43610  0.25000  Biso   1.000  C
  C641     1.0000 0.33290  0.25000  0.83290  Biso   1.000  C
  C642     1.0000 0.35964  0.25000  0.85964  Biso   1.000  C
  C643     1.0000 0.41090  0.25000  0.91090  Biso   1.000  C
  C644     1.0000 0.43610  0.25000  0.93610  Biso   1.000  C
  C645     1.0000 0.66710  0.25000  0.16710  Biso   1.000  C
  C646     1.0000 0.64036  0.25000  0.14036  Biso   1.000  C
  C647     1.0000 0.58910  0.25000  0.08910  Biso   1.000  C
  C648     1.0000 0.56390  0.25000  0.06390  Biso   1.000  C
  C649     1.0000 0.66710  0.75000  0.83290  Biso   1.000  C
  C650     1.0000 0.64036  0.75000  0.85964  Biso   1.000  C
  C651     1.0000 0.58910  0.75000  0.91090  Biso   1.000  C
  C652     1.0000 0.56390  0.75000  0.93610  Biso   1.000  C
  C653     1.0000 0.33290  0.75000  0.16710  Biso   1.000  C
  C654     1.0000 0.35964  0.75000  0.14036  Biso   1.000  C
  C655     1.0000 0.41090  0.75000  0.08910  Biso   1.000  C
  C656     1.0000 0.43610  0.75000  0.06390  Biso   1.000  C
  C657     1.0000 0.25000  0.16710  0.66710  Biso   1.000  C
  C658     1.0000 0.25000  0.14036  0.64036  Biso   1.000  C
  C659     1.0000 0.25000  0.08910  0.58910  Biso   1.000  C
  C660     1.0000 0.25000  0.06390  0.56390  Biso   1.000  C
  C661     1.0000 0.25000  0.83290  0.33290  Biso   1.000  C
  C662     1.0000 0.25000  0.85964  0.35964  Biso   1.000  C
  C663     1.0000 0.25000  0.91090  0.41090  Biso   1.000  C
  C664     1.0000 0.25000  0.93610  0.43610  Biso   1.000  C
  C665     1.0000 0.75000  0.16710  0.33290  Biso   1.000  C
  C666     1.0000 0.75000  0.14036  0.35964  Biso   1.000  C
  C667     1.0000 0.75000  0.08910  0.41090  Biso   1.000  C
  C668     1.0000 0.75000  0.06390  0.43610  Biso   1.000  C
  C669     1.0000 0.75000  0.83290  0.66710  Biso   1.000  C
  C670     1.0000 0.75000  0.85964  0.64036  Biso   1.000  C
  C671     1.0000 0.75000  0.91090  0.58910  Biso   1.000  C
  C672     1.0000 0.75000  0.93610  0.56390  Biso   1.000  C
  C673     1.0000 0.66710  0.83290  0.75000  Biso   1.000  C
  C674     1.0000 0.64036  0.85964  0.75000  Biso   1.000  C
  C675     1.0000 0.58910  0.91090  0.75000  Biso   1.000  C
  C676     1.0000 0.56390  0.93610  0.75000  Biso   1.000  C
  C677     1.0000 0.16710  0.33290  0.25000  Biso   1.000  C
  C678     1.0000 0.14036  0.35964  0.25000  Biso   1.000  C
  C679     1.0000 0.08910  0.41090  0.25000  Biso   1.000  C
  C680     1.0000 0.06390  0.43610  0.25000  Biso   1.000  C
  C681     1.0000 0.33290  0.16710  0.75000  Biso   1.000  C
  C682     1.0000 0.35964  0.14036  0.75000  Biso   1.000  C
  C683     1.0000 0.41090  0.08910  0.75000  Biso   1.000  C
  C684     1.0000 0.43610  0.06390  0.75000  Biso   1.000  C
  C685     1.0000 0.33290  0.83290  0.25000  Biso   1.000  C
  C686     1.0000 0.35964  0.85964  0.25000  Biso   1.000  C
  C687     1.0000 0.41090  0.91090  0.25000  Biso   1.000  C
  C688     1.0000 0.43610  0.93610  0.25000  Biso   1.000  C
  C689     1.0000 0.66710  0.16710  0.25000  Biso   1.000  C
  C690     1.0000 0.64036  0.14036  0.25000  Biso   1.000  C
  C691     1.0000 0.58910  0.08910  0.25000  Biso   1.000  C
  C692     1.0000 0.56390  0.06390  0.25000  Biso   1.000  C
  C693     1.0000 0.75000  0.66710  0.83290  Biso   1.000  C
  C694     1.0000 0.75000  0.64036  0.85964  Biso   1.000  C
  C695     1.0000 0.75000  0.58910  0.91090  Biso   1.000  C
  C696     1.0000 0.75000  0.56390  0.93610  Biso   1.000  C
  C697     1.0000 0.25000  0.16710  0.33290  Biso   1.000  C
  C698     1.0000 0.25000  0.14036  0.35964  Biso   1.000  C
  C699     1.0000 0.25000  0.08910  0.41090  Biso   1.000  C
  C700     1.0000 0.25000  0.06390  0.43610  Biso   1.000  C
  C701     1.0000 0.75000  0.33290  0.16710  Biso   1.000  C
  C702     1.0000 0.75000  0.35964  0.14036  Biso   1.000  C
  C703     1.0000 0.75000  0.41090  0.08910  Biso   1.000  C
  C704     1.0000 0.75000  0.43610  0.06390  Biso   1.000  C
  C705     1.0000 0.25000  0.33290  0.83290  Biso   1.000  C
  C706     1.0000 0.25000  0.35964  0.85964  Biso   1.000  C
  C707     1.0000 0.25000  0.41090  0.91090  Biso   1.000  C
  C708     1.0000 0.25000  0.43610  0.93610  Biso   1.000  C
  C709     1.0000 0.25000  0.66710  0.16710  Biso   1.000  C
  C710     1.0000 0.25000  0.64036  0.14036  Biso   1.000  C
  C711     1.0000 0.25000  0.58910  0.08910  Biso   1.000  C
  C712     1.0000 0.25000  0.56390  0.06390  Biso   1.000  C
  C713     1.0000 0.83290  0.75000  0.66710  Biso   1.000  C
  C714     1.0000 0.85964  0.75000  0.64036  Biso   1.000  C
  C715     1.0000 0.91090  0.75000  0.58910  Biso   1.000  C
  C716     1.0000 0.93610  0.75000  0.56390  Biso   1.000  C
  C717     1.0000 0.33290  0.25000  0.16710  Biso   1.000  C
  C718     1.0000 0.35964  0.25000  0.14036  Biso   1.000  C
  C719     1.0000 0.41090  0.25000  0.08910  Biso   1.000  C
  C720     1.0000 0.43610  0.25000  0.06390  Biso   1.000  C
  C721     1.0000 0.16710  0.75000  0.33290  Biso   1.000  C
  C722     1.0000 0.14036  0.75000  0.35964  Biso   1.000  C
  C723     1.0000 0.08910  0.75000  0.41090  Biso   1.000  C
  C724     1.0000 0.06390  0.75000  0.43610  Biso   1.000  C
  C725     1.0000 0.83290  0.25000  0.33290  Biso   1.000  C
  C726     1.0000 0.85964  0.25000  0.35964  Biso   1.000  C
  C727     1.0000 0.91090  0.25000  0.41090  Biso   1.000  C
  C728     1.0000 0.93610  0.25000  0.43610  Biso   1.000  C
  C729     1.0000 0.16710  0.25000  0.66710  Biso   1.000  C
  C730     1.0000 0.14036  0.25000  0.64036  Biso   1.000  C
  C731     1.0000 0.08910  0.25000  0.58910  Biso   1.000  C
  C732     1.0000 0.06390  0.25000  0.56390  Biso   1.000  C
  C733     1.0000 0.83290  0.66710  0.25000  Biso   1.000  C
  C734     1.0000 0.85964  0.64036  0.25000  Biso   1.000  C
  C735     1.0000 0.91090  0.58910  0.25000  Biso   1.000  C
  C736     1.0000 0.93610  0.56390  0.25000  Biso   1.000  C
  C737     1.0000 0.83290  0.33290  0.75000  Biso   1.000  C
  C738     1.0000 0.85964  0.35964  0.75000  Biso   1.000  C
  C739     1.0000 0.91090  0.41090  0.75000  Biso   1.000  C
  C740     1.0000 0.93610  0.43610  0.75000  Biso   1.000  C
  C741     1.0000 0.16710  0.66710  0.75000  Biso   1.000  C
  C742     1.0000 0.14036  0.64036  0.75000  Biso   1.000  C
  C743     1.0000 0.08910  0.58910  0.75000  Biso   1.000  C
  C744     1.0000 0.06390  0.56390  0.75000  Biso   1.000  C
  C745     1.0000 0.66710  0.75000  0.16710  Biso   1.000  C
  C746     1.0000 0.64036  0.75000  0.14036  Biso   1.000  C
  C747     1.0000 0.58910  0.75000  0.08910  Biso   1.000  C
  C748     1.0000 0.56390  0.75000  0.06390  Biso   1.000  C
  C749     1.0000 0.33290  0.75000  0.83290  Biso   1.000  C
  C750     1.0000 0.35964  0.75000  0.85964  Biso   1.000  C
  C751     1.0000 0.41090  0.75000  0.91090  Biso   1.000  C
  C752     1.0000 0.43610  0.75000  0.93610  Biso   1.000  C
  C753     1.0000 0.66710  0.25000  0.83290  Biso   1.000  C
  C754     1.0000 0.64036  0.25000  0.85964  Biso   1.000  C
  C755     1.0000 0.58910  0.25000  0.91090  Biso   1.000  C
  C756     1.0000 0.56390  0.25000  0.93610  Biso   1.000  C
  C757     1.0000 0.75000  0.83290  0.33290  Biso   1.000  C
  C758     1.0000 0.75000  0.85964  0.35964  Biso   1.000  C
  C759     1.0000 0.75000  0.91090  0.41090  Biso   1.000  C
  C760     1.0000 0.75000  0.93610  0.43610  Biso   1.000  C
  C761     1.0000 0.75000  0.16710  0.66710  Biso   1.000  C
  C762     1.0000 0.75000  0.14036  0.64036  Biso   1.000  C
  C763     1.0000 0.75000  0.08910  0.58910  Biso   1.000  C
  C764     1.0000 0.75000  0.06390  0.56390  Biso   1.000  C
  C765     1.0000 0.25000  0.83290  0.66710  Biso   1.000  C
  C766     1.0000 0.25000  0.85964  0.64036  Biso   1.000  C
  C767     1.0000 0.25000  0.91090  0.58910  Biso   1.000  C
  C768     1.0000 0.25000  0.93610  0.56390  Biso   1.000  C
  N1       1.0000 0.50000  0.04990  0.24260  Biso   1.000  N
  N2       1.0000 0.50000  0.04980  0.25690  Biso   1.000  N
  N3       1.0000 0.00000  0.54990  0.74260  Biso   1.000  N
  N4       1.0000 0.00000  0.54980  0.75690  Biso   1.000  N
  N5       1.0000 0.50000  0.95010  0.24260  Biso   1.000  N
  N6       1.0000 0.50000  0.95020  0.25690  Biso   1.000  N
  N7       1.0000 0.00000  0.45010  0.74260  Biso   1.000  N
  N8       1.0000 0.00000  0.45020  0.75690  Biso   1.000  N
  N9       1.0000 0.50000  0.04990  0.75740  Biso   1.000  N
  N10      1.0000 0.50000  0.04980  0.74310  Biso   1.000  N
  N11      1.0000 0.00000  0.54990  0.25740  Biso   1.000  N
  N12      1.0000 0.00000  0.54980  0.24310  Biso   1.000  N
  N13      1.0000 0.50000  0.95010  0.75740  Biso   1.000  N
  N14      1.0000 0.50000  0.95020  0.74310  Biso   1.000  N
  N15      1.0000 0.00000  0.45010  0.25740  Biso   1.000  N
  N16      1.0000 0.00000  0.45020  0.24310  Biso   1.000  N
  N17      1.0000 0.24260  0.50000  0.04990  Biso   1.000  N
  N18      1.0000 0.25690  0.50000  0.04980  Biso   1.000  N
  N19      1.0000 0.74260  0.00000  0.54990  Biso   1.000  N
  N20      1.0000 0.75690  0.00000  0.54980  Biso   1.000  N
  N21      1.0000 0.24260  0.50000  0.95010  Biso   1.000  N
  N22      1.0000 0.25690  0.50000  0.95020  Biso   1.000  N
  N23      1.0000 0.74260  0.00000  0.45010  Biso   1.000  N
  N24      1.0000 0.75690  0.00000  0.45020  Biso   1.000  N
  N25      1.0000 0.75740  0.50000  0.04990  Biso   1.000  N
  N26      1.0000 0.74310  0.50000  0.04980  Biso   1.000  N
  N27      1.0000 0.25740  0.00000  0.54990  Biso   1.000  N
  N28      1.0000 0.24310  0.00000  0.54980  Biso   1.000  N
  N29      1.0000 0.75740  0.50000  0.95010  Biso   1.000  N
  N30      1.0000 0.74310  0.50000  0.95020  Biso   1.000  N
  N31      1.0000 0.25740  0.00000  0.45010  Biso   1.000  N
  N32      1.0000 0.24310  0.00000  0.45020  Biso   1.000  N
  N33      1.0000 0.04990  0.24260  0.50000  Biso   1.000  N
  N34      1.0000 0.04980  0.25690  0.50000  Biso   1.000  N
  N35      1.0000 0.54990  0.74260  0.00000  Biso   1.000  N
  N36      1.0000 0.54980  0.75690  0.00000  Biso   1.000  N
  N37      1.0000 0.95010  0.24260  0.50000  Biso   1.000  N
  N38      1.0000 0.95020  0.25690  0.50000  Biso   1.000  N
  N39      1.0000 0.45010  0.74260  0.00000  Biso   1.000  N
  N40      1.0000 0.45020  0.75690  0.00000  Biso   1.000  N
  N41      1.0000 0.04990  0.75740  0.50000  Biso   1.000  N
  N42      1.0000 0.04980  0.74310  0.50000  Biso   1.000  N
  N43      1.0000 0.54990  0.25740  0.00000  Biso   1.000  N
  N44      1.0000 0.54980  0.24310  0.00000  Biso   1.000  N
  N45      1.0000 0.95010  0.75740  0.50000  Biso   1.000  N
  N46      1.0000 0.95020  0.74310  0.50000  Biso   1.000  N
  N47      1.0000 0.45010  0.25740  0.00000  Biso   1.000  N
  N48      1.0000 0.45020  0.24310  0.00000  Biso   1.000  N
  N49      1.0000 0.04990  0.50000  0.75740  Biso   1.000  N
  N50      1.0000 0.04980  0.50000  0.74310  Biso   1.000  N
  N51      1.0000 0.54990  0.00000  0.25740  Biso   1.000  N
  N52      1.0000 0.54980  0.00000  0.24310  Biso   1.000  N
  N53      1.0000 0.95010  0.50000  0.75740  Biso   1.000  N
  N54      1.0000 0.95020  0.50000  0.74310  Biso   1.000  N
  N55      1.0000 0.45010  0.00000  0.25740  Biso   1.000  N
  N56      1.0000 0.45020  0.00000  0.24310  Biso   1.000  N
  N57      1.0000 0.04990  0.50000  0.24260  Biso   1.000  N
  N58      1.0000 0.04980  0.50000  0.25690  Biso   1.000  N
  N59      1.0000 0.54990  0.00000  0.74260  Biso   1.000  N
  N60      1.0000 0.54980  0.00000  0.75690  Biso   1.000  N
  N61      1.0000 0.95010  0.50000  0.24260  Biso   1.000  N
  N62      1.0000 0.95020  0.50000  0.25690  Biso   1.000  N
  N63      1.0000 0.45010  0.00000  0.74260  Biso   1.000  N
  N64      1.0000 0.45020  0.00000  0.75690  Biso   1.000  N
  N65      1.0000 0.50000  0.24260  0.95010  Biso   1.000  N
  N66      1.0000 0.50000  0.25690  0.95020  Biso   1.000  N
  N67      1.0000 0.00000  0.74260  0.45010  Biso   1.000  N
  N68      1.0000 0.00000  0.75690  0.45020  Biso   1.000  N
  N69      1.0000 0.50000  0.24260  0.04990  Biso   1.000  N
  N70      1.0000 0.50000  0.25690  0.04980  Biso   1.000  N
  N71      1.0000 0.00000  0.74260  0.54990  Biso   1.000  N
  N72      1.0000 0.00000  0.75690  0.54980  Biso   1.000  N
  N73      1.0000 0.50000  0.75740  0.95010  Biso   1.000  N
  N74      1.0000 0.50000  0.74310  0.95020  Biso   1.000  N
  N75      1.0000 0.00000  0.25740  0.45010  Biso   1.000  N
  N76      1.0000 0.00000  0.24310  0.45020  Biso   1.000  N
  N77      1.0000 0.50000  0.75740  0.04990  Biso   1.000  N
  N78      1.0000 0.50000  0.74310  0.04980  Biso   1.000  N
  N79      1.0000 0.00000  0.25740  0.54990  Biso   1.000  N
  N80      1.0000 0.00000  0.24310  0.54980  Biso   1.000  N
  N81      1.0000 0.24260  0.04990  0.50000  Biso   1.000  N
  N82      1.0000 0.25690  0.04980  0.50000  Biso   1.000  N
  N83      1.0000 0.74260  0.54990  0.00000  Biso   1.000  N
  N84      1.0000 0.75690  0.54980  0.00000  Biso   1.000  N
  N85      1.0000 0.24260  0.95010  0.50000  Biso   1.000  N
  N86      1.0000 0.25690  0.95020  0.50000  Biso   1.000  N
  N87      1.0000 0.74260  0.45010  0.00000  Biso   1.000  N
  N88      1.0000 0.75690  0.45020  0.00000  Biso   1.000  N
  N89      1.0000 0.75740  0.04990  0.50000  Biso   1.000  N
  N90      1.0000 0.74310  0.04980  0.50000  Biso   1.000  N
  N91      1.0000 0.25740  0.54990  0.00000  Biso   1.000  N
  N92      1.0000 0.24310  0.54980  0.00000  Biso   1.000  N
  N93      1.0000 0.75740  0.95010  0.50000  Biso   1.000  N
  N94      1.0000 0.74310  0.95020  0.50000  Biso   1.000  N
  N95      1.0000 0.25740  0.45010  0.00000  Biso   1.000  N
  N96      1.0000 0.24310  0.45020  0.00000  Biso   1.000  N
  O145     1.0000 0.21653  0.21653  0.21653  Biso   1.000  O
  O146     1.0000 0.71653  0.71653  0.71653  Biso   1.000  O
  O147     1.0000 0.78347  0.78347  0.21653  Biso   1.000  O
  O148     1.0000 0.28347  0.28347  0.71653  Biso   1.000  O
  O149     1.0000 0.78347  0.21653  0.78347  Biso   1.000  O
  O150     1.0000 0.28347  0.71653  0.28347  Biso   1.000  O
  O151     1.0000 0.21653  0.78347  0.78347  Biso   1.000  O
  O152     1.0000 0.71653  0.28347  0.28347  Biso   1.000  O
  O153     1.0000 0.21653  0.21653  0.78347  Biso   1.000  O
  O154     1.0000 0.71653  0.71653  0.28347  Biso   1.000  O
  O155     1.0000 0.78347  0.78347  0.78347  Biso   1.000  O
  O156     1.0000 0.28347  0.28347  0.28347  Biso   1.000  O
  O157     1.0000 0.21653  0.78347  0.21653  Biso   1.000  O
  O158     1.0000 0.71653  0.28347  0.71653  Biso   1.000  O
  O159     1.0000 0.78347  0.21653  0.21653  Biso   1.000  O
  O160     1.0000 0.28347  0.71653  0.71653  Biso   1.000  O
