data_image0
_cell_length_a       24.755
_cell_length_b       24.755
_cell_length_c       24.755
_cell_angle_alpha    90
_cell_angle_beta     90
_cell_angle_gamma    90

_symmetry_space_group_name_H-M    "P 1"
_symmetry_int_tables_number       1

loop_
  _symmetry_equiv_pos_as_xyz
  'x, y, z'

loop_
  _atom_site_label
  _atom_site_occupancy
  _atom_site_fract_x
  _atom_site_fract_y
  _atom_site_fract_z
  _atom_site_thermal_displace_type
  _atom_site_B_iso_or_equiv
  _atom_site_type_symbol
  Co1      1.0000 0.41481  0.21026  0.20530  Biso   1.000  Co
  O1       1.0000 0.28650  0.19900  0.39240  Biso   1.000  O
  O2       1.0000 0.33140  0.23850  0.45810  Biso   1.000  O
  O3       1.0000 0.61910  0.20760  0.10510  Biso   1.000  O
  O4       1.0000 0.68154  0.20010  0.16670  Biso   1.000  O
  N1       1.0000 0.41756  0.20810  0.29055  Biso   1.000  N
  N2       1.0000 0.49784  0.20651  0.22170  Biso   1.000  N
  C1       1.0000 0.37460  0.20960  0.32350  Biso   1.000  C
  H1       1.0000 0.34040  0.21040  0.30790  Biso   1.000  H
  C2       1.0000 0.37790  0.21000  0.37860  Biso   1.000  C
  C3       1.0000 0.42930  0.20660  0.40130  Biso   1.000  C
  H2       1.0000 0.43360  0.20580  0.43860  Biso   1.000  H
  C4       1.0000 0.47430  0.20450  0.36740  Biso   1.000  C
  H3       1.0000 0.50880  0.20230  0.38210  Biso   1.000  H
  C5       1.0000 0.46760  0.20590  0.31220  Biso   1.000  C
  C6       1.0000 0.51280  0.20380  0.27330  Biso   1.000  C
  C7       1.0000 0.56590  0.20000  0.28840  Biso   1.000  C
  H4       1.0000 0.57520  0.19760  0.32470  Biso   1.000  H
  C8       1.0000 0.60470  0.19960  0.24970  Biso   1.000  C
  H5       1.0000 0.64090  0.19700  0.25950  Biso   1.000  H
  C9       1.0000 0.59090  0.20300  0.19640  Biso   1.000  C
  C10      1.0000 0.53600  0.20670  0.18400  Biso   1.000  C
  H6       1.0000 0.52580  0.20930  0.14790  Biso   1.000  H
  C11      1.0000 0.32870  0.21190  0.41320  Biso   1.000  C
  C12      1.0000 0.63340  0.20310  0.15270  Biso   1.000  C
  O5       1.0000 0.28530  0.21410  0.38660  Biso   1.000  O
  O6       1.0000 0.33490  0.20040  0.46300  Biso   1.000  O
  Co2      1.0000 0.08519  0.78974  0.70530  Biso   1.000  Co
  O7       1.0000 0.21350  0.80100  0.89240  Biso   1.000  O
  O8       1.0000 0.16860  0.76150  0.95810  Biso   1.000  O
  O9       1.0000 0.88090  0.79240  0.60510  Biso   1.000  O
  O10      1.0000 0.81846  0.79990  0.66670  Biso   1.000  O
  N3       1.0000 0.08244  0.79190  0.79055  Biso   1.000  N
  N4       1.0000 0.00216  0.79349  0.72170  Biso   1.000  N
  C13      1.0000 0.12540  0.79040  0.82350  Biso   1.000  C
  H7       1.0000 0.15960  0.78960  0.80790  Biso   1.000  H
  C14      1.0000 0.12210  0.79000  0.87860  Biso   1.000  C
  C15      1.0000 0.07070  0.79340  0.90130  Biso   1.000  C
  H8       1.0000 0.06640  0.79420  0.93860  Biso   1.000  H
  C16      1.0000 0.02570  0.79550  0.86740  Biso   1.000  C
  H9       1.0000 0.99120  0.79770  0.88210  Biso   1.000  H
  C17      1.0000 0.03240  0.79410  0.81220  Biso   1.000  C
  C18      1.0000 0.98720  0.79620  0.77330  Biso   1.000  C
  C19      1.0000 0.93410  0.80000  0.78840  Biso   1.000  C
  H10      1.0000 0.92480  0.80240  0.82470  Biso   1.000  H
  C20      1.0000 0.89530  0.80040  0.74970  Biso   1.000  C
  H11      1.0000 0.85910  0.80300  0.75950  Biso   1.000  H
  C21      1.0000 0.90910  0.79700  0.69640  Biso   1.000  C
  C22      1.0000 0.96400  0.79330  0.68400  Biso   1.000  C
  H12      1.0000 0.97420  0.79070  0.64790  Biso   1.000  H
  C23      1.0000 0.17130  0.78810  0.91320  Biso   1.000  C
  C24      1.0000 0.86660  0.79690  0.65270  Biso   1.000  C
  O11      1.0000 0.21470  0.78590  0.88660  Biso   1.000  O
  O12      1.0000 0.16510  0.79960  0.96300  Biso   1.000  O
  Co3      1.0000 0.58519  0.71026  0.29470  Biso   1.000  Co
  O13      1.0000 0.71350  0.69900  0.10760  Biso   1.000  O
  O14      1.0000 0.66860  0.73850  0.04190  Biso   1.000  O
  O15      1.0000 0.38090  0.70760  0.39490  Biso   1.000  O
  O16      1.0000 0.31846  0.70010  0.33330  Biso   1.000  O
  N5       1.0000 0.58244  0.70810  0.20945  Biso   1.000  N
  N6       1.0000 0.50216  0.70651  0.27830  Biso   1.000  N
  C25      1.0000 0.62540  0.70960  0.17650  Biso   1.000  C
  H13      1.0000 0.65960  0.71040  0.19210  Biso   1.000  H
  C26      1.0000 0.62210  0.71000  0.12140  Biso   1.000  C
  C27      1.0000 0.57070  0.70660  0.09870  Biso   1.000  C
  H14      1.0000 0.56640  0.70580  0.06140  Biso   1.000  H
  C28      1.0000 0.52570  0.70450  0.13260  Biso   1.000  C
  H15      1.0000 0.49120  0.70230  0.11790  Biso   1.000  H
  C29      1.0000 0.53240  0.70590  0.18780  Biso   1.000  C
  C30      1.0000 0.48720  0.70380  0.22670  Biso   1.000  C
  C31      1.0000 0.43410  0.70000  0.21160  Biso   1.000  C
  H16      1.0000 0.42480  0.69760  0.17530  Biso   1.000  H
  C32      1.0000 0.39530  0.69960  0.25030  Biso   1.000  C
  H17      1.0000 0.35910  0.69700  0.24050  Biso   1.000  H
  C33      1.0000 0.40910  0.70300  0.30360  Biso   1.000  C
  C34      1.0000 0.46400  0.70670  0.31600  Biso   1.000  C
  H18      1.0000 0.47420  0.70930  0.35210  Biso   1.000  H
  C35      1.0000 0.67130  0.71190  0.08680  Biso   1.000  C
  C36      1.0000 0.36660  0.70310  0.34730  Biso   1.000  C
  O17      1.0000 0.71470  0.71410  0.11340  Biso   1.000  O
  O18      1.0000 0.66510  0.70040  0.03700  Biso   1.000  O
  Co4      1.0000 0.91481  0.28974  0.79470  Biso   1.000  Co
  O19      1.0000 0.78650  0.30100  0.60760  Biso   1.000  O
  O20      1.0000 0.83140  0.26150  0.54190  Biso   1.000  O
  O21      1.0000 0.11910  0.29240  0.89490  Biso   1.000  O
  O22      1.0000 0.18154  0.29990  0.83330  Biso   1.000  O
  N7       1.0000 0.91756  0.29190  0.70945  Biso   1.000  N
  N8       1.0000 0.99784  0.29349  0.77830  Biso   1.000  N
  C37      1.0000 0.87460  0.29040  0.67650  Biso   1.000  C
  H19      1.0000 0.84040  0.28960  0.69210  Biso   1.000  H
  C38      1.0000 0.87790  0.29000  0.62140  Biso   1.000  C
  C39      1.0000 0.92930  0.29340  0.59870  Biso   1.000  C
  H20      1.0000 0.93360  0.29420  0.56140  Biso   1.000  H
  C40      1.0000 0.97430  0.29550  0.63260  Biso   1.000  C
  H21      1.0000 0.00880  0.29770  0.61790  Biso   1.000  H
  C41      1.0000 0.96760  0.29410  0.68780  Biso   1.000  C
  C42      1.0000 0.01280  0.29620  0.72670  Biso   1.000  C
  C43      1.0000 0.06590  0.30000  0.71160  Biso   1.000  C
  H22      1.0000 0.07520  0.30240  0.67530  Biso   1.000  H
  C44      1.0000 0.10470  0.30040  0.75030  Biso   1.000  C
  H23      1.0000 0.14090  0.30300  0.74050  Biso   1.000  H
  C45      1.0000 0.09090  0.29700  0.80360  Biso   1.000  C
  C46      1.0000 0.03600  0.29330  0.81600  Biso   1.000  C
  H24      1.0000 0.02580  0.29070  0.85210  Biso   1.000  H
  C47      1.0000 0.82870  0.28810  0.58680  Biso   1.000  C
  C48      1.0000 0.13340  0.29690  0.84730  Biso   1.000  C
  O23      1.0000 0.78530  0.28590  0.61340  Biso   1.000  O
  O24      1.0000 0.83490  0.29960  0.53700  Biso   1.000  O
  Co5      1.0000 0.20530  0.41481  0.21026  Biso   1.000  Co
  O25      1.0000 0.39240  0.28650  0.19900  Biso   1.000  O
  O26      1.0000 0.45810  0.33140  0.23850  Biso   1.000  O
  O27      1.0000 0.10510  0.61910  0.20760  Biso   1.000  O
  O28      1.0000 0.16670  0.68154  0.20010  Biso   1.000  O
  N9       1.0000 0.29055  0.41756  0.20810  Biso   1.000  N
  N10      1.0000 0.22170  0.49784  0.20651  Biso   1.000  N
  C49      1.0000 0.32350  0.37460  0.20960  Biso   1.000  C
  H25      1.0000 0.30790  0.34040  0.21040  Biso   1.000  H
  C50      1.0000 0.37860  0.37790  0.21000  Biso   1.000  C
  C51      1.0000 0.40130  0.42930  0.20660  Biso   1.000  C
  H26      1.0000 0.43860  0.43360  0.20580  Biso   1.000  H
  C52      1.0000 0.36740  0.47430  0.20450  Biso   1.000  C
  H27      1.0000 0.38210  0.50880  0.20230  Biso   1.000  H
  C53      1.0000 0.31220  0.46760  0.20590  Biso   1.000  C
  C54      1.0000 0.27330  0.51280  0.20380  Biso   1.000  C
  C55      1.0000 0.28840  0.56590  0.20000  Biso   1.000  C
  H28      1.0000 0.32470  0.57520  0.19760  Biso   1.000  H
  C56      1.0000 0.24970  0.60470  0.19960  Biso   1.000  C
  H29      1.0000 0.25950  0.64090  0.19700  Biso   1.000  H
  C57      1.0000 0.19640  0.59090  0.20300  Biso   1.000  C
  C58      1.0000 0.18400  0.53600  0.20670  Biso   1.000  C
  H30      1.0000 0.14790  0.52580  0.20930  Biso   1.000  H
  C59      1.0000 0.41320  0.32870  0.21190  Biso   1.000  C
  C60      1.0000 0.15270  0.63340  0.20310  Biso   1.000  C
  O29      1.0000 0.38660  0.28530  0.21410  Biso   1.000  O
  O30      1.0000 0.46300  0.33490  0.20040  Biso   1.000  O
  Co6      1.0000 0.70530  0.08519  0.78974  Biso   1.000  Co
  O31      1.0000 0.89240  0.21350  0.80100  Biso   1.000  O
  O32      1.0000 0.95810  0.16860  0.76150  Biso   1.000  O
  O33      1.0000 0.60510  0.88090  0.79240  Biso   1.000  O
  O34      1.0000 0.66670  0.81846  0.79990  Biso   1.000  O
  N11      1.0000 0.79055  0.08244  0.79190  Biso   1.000  N
  N12      1.0000 0.72170  0.00216  0.79349  Biso   1.000  N
  C61      1.0000 0.82350  0.12540  0.79040  Biso   1.000  C
  H31      1.0000 0.80790  0.15960  0.78960  Biso   1.000  H
  C62      1.0000 0.87860  0.12210  0.79000  Biso   1.000  C
  C63      1.0000 0.90130  0.07070  0.79340  Biso   1.000  C
  H32      1.0000 0.93860  0.06640  0.79420  Biso   1.000  H
  C64      1.0000 0.86740  0.02570  0.79550  Biso   1.000  C
  H33      1.0000 0.88210  0.99120  0.79770  Biso   1.000  H
  C65      1.0000 0.81220  0.03240  0.79410  Biso   1.000  C
  C66      1.0000 0.77330  0.98720  0.79620  Biso   1.000  C
  C67      1.0000 0.78840  0.93410  0.80000  Biso   1.000  C
  H34      1.0000 0.82470  0.92480  0.80240  Biso   1.000  H
  C68      1.0000 0.74970  0.89530  0.80040  Biso   1.000  C
  H35      1.0000 0.75950  0.85910  0.80300  Biso   1.000  H
  C69      1.0000 0.69640  0.90910  0.79700  Biso   1.000  C
  C70      1.0000 0.68400  0.96400  0.79330  Biso   1.000  C
  H36      1.0000 0.64790  0.97420  0.79070  Biso   1.000  H
  C71      1.0000 0.91320  0.17130  0.78810  Biso   1.000  C
  C72      1.0000 0.65270  0.86660  0.79690  Biso   1.000  C
  O35      1.0000 0.88660  0.21470  0.78590  Biso   1.000  O
  O36      1.0000 0.96300  0.16510  0.79960  Biso   1.000  O
  Co7      1.0000 0.29470  0.58519  0.71026  Biso   1.000  Co
  O37      1.0000 0.10760  0.71350  0.69900  Biso   1.000  O
  O38      1.0000 0.04190  0.66860  0.73850  Biso   1.000  O
  O39      1.0000 0.39490  0.38090  0.70760  Biso   1.000  O
  O40      1.0000 0.33330  0.31846  0.70010  Biso   1.000  O
  N13      1.0000 0.20945  0.58244  0.70810  Biso   1.000  N
  N14      1.0000 0.27830  0.50216  0.70651  Biso   1.000  N
  C73      1.0000 0.17650  0.62540  0.70960  Biso   1.000  C
  H37      1.0000 0.19210  0.65960  0.71040  Biso   1.000  H
  C74      1.0000 0.12140  0.62210  0.71000  Biso   1.000  C
  C75      1.0000 0.09870  0.57070  0.70660  Biso   1.000  C
  H38      1.0000 0.06140  0.56640  0.70580  Biso   1.000  H
  C76      1.0000 0.13260  0.52570  0.70450  Biso   1.000  C
  H39      1.0000 0.11790  0.49120  0.70230  Biso   1.000  H
  C77      1.0000 0.18780  0.53240  0.70590  Biso   1.000  C
  C78      1.0000 0.22670  0.48720  0.70380  Biso   1.000  C
  C79      1.0000 0.21160  0.43410  0.70000  Biso   1.000  C
  H40      1.0000 0.17530  0.42480  0.69760  Biso   1.000  H
  C80      1.0000 0.25030  0.39530  0.69960  Biso   1.000  C
  H41      1.0000 0.24050  0.35910  0.69700  Biso   1.000  H
  C81      1.0000 0.30360  0.40910  0.70300  Biso   1.000  C
  C82      1.0000 0.31600  0.46400  0.70670  Biso   1.000  C
  H42      1.0000 0.35210  0.47420  0.70930  Biso   1.000  H
  C83      1.0000 0.08680  0.67130  0.71190  Biso   1.000  C
  C84      1.0000 0.34730  0.36660  0.70310  Biso   1.000  C
  O41      1.0000 0.11340  0.71470  0.71410  Biso   1.000  O
  O42      1.0000 0.03700  0.66510  0.70040  Biso   1.000  O
  Co8      1.0000 0.79470  0.91481  0.28974  Biso   1.000  Co
  O43      1.0000 0.60760  0.78650  0.30100  Biso   1.000  O
  O44      1.0000 0.54190  0.83140  0.26150  Biso   1.000  O
  O45      1.0000 0.89490  0.11910  0.29240  Biso   1.000  O
  O46      1.0000 0.83330  0.18154  0.29990  Biso   1.000  O
  N15      1.0000 0.70945  0.91756  0.29190  Biso   1.000  N
  N16      1.0000 0.77830  0.99784  0.29349  Biso   1.000  N
  C85      1.0000 0.67650  0.87460  0.29040  Biso   1.000  C
  H43      1.0000 0.69210  0.84040  0.28960  Biso   1.000  H
  C86      1.0000 0.62140  0.87790  0.29000  Biso   1.000  C
  C87      1.0000 0.59870  0.92930  0.29340  Biso   1.000  C
  H44      1.0000 0.56140  0.93360  0.29420  Biso   1.000  H
  C88      1.0000 0.63260  0.97430  0.29550  Biso   1.000  C
  H45      1.0000 0.61790  0.00880  0.29770  Biso   1.000  H
  C89      1.0000 0.68780  0.96760  0.29410  Biso   1.000  C
  C90      1.0000 0.72670  0.01280  0.29620  Biso   1.000  C
  C91      1.0000 0.71160  0.06590  0.30000  Biso   1.000  C
  H46      1.0000 0.67530  0.07520  0.30240  Biso   1.000  H
  C92      1.0000 0.75030  0.10470  0.30040  Biso   1.000  C
  H47      1.0000 0.74050  0.14090  0.30300  Biso   1.000  H
  C93      1.0000 0.80360  0.09090  0.29700  Biso   1.000  C
  C94      1.0000 0.81600  0.03600  0.29330  Biso   1.000  C
  H48      1.0000 0.85210  0.02580  0.29070  Biso   1.000  H
  C95      1.0000 0.58680  0.82870  0.28810  Biso   1.000  C
  C96      1.0000 0.84730  0.13340  0.29690  Biso   1.000  C
  O47      1.0000 0.61340  0.78530  0.28590  Biso   1.000  O
  O48      1.0000 0.53700  0.83490  0.29960  Biso   1.000  O
  Co9      1.0000 0.21026  0.20530  0.41481  Biso   1.000  Co
  O49      1.0000 0.19900  0.39240  0.28650  Biso   1.000  O
  O50      1.0000 0.23850  0.45810  0.33140  Biso   1.000  O
  O51      1.0000 0.20760  0.10510  0.61910  Biso   1.000  O
  O52      1.0000 0.20010  0.16670  0.68154  Biso   1.000  O
  N17      1.0000 0.20810  0.29055  0.41756  Biso   1.000  N
  N18      1.0000 0.20651  0.22170  0.49784  Biso   1.000  N
  C97      1.0000 0.20960  0.32350  0.37460  Biso   1.000  C
  H49      1.0000 0.21040  0.30790  0.34040  Biso   1.000  H
  C98      1.0000 0.21000  0.37860  0.37790  Biso   1.000  C
  C99      1.0000 0.20660  0.40130  0.42930  Biso   1.000  C
  H50      1.0000 0.20580  0.43860  0.43360  Biso   1.000  H
  C100     1.0000 0.20450  0.36740  0.47430  Biso   1.000  C
  H51      1.0000 0.20230  0.38210  0.50880  Biso   1.000  H
  C101     1.0000 0.20590  0.31220  0.46760  Biso   1.000  C
  C102     1.0000 0.20380  0.27330  0.51280  Biso   1.000  C
  C103     1.0000 0.20000  0.28840  0.56590  Biso   1.000  C
  H52      1.0000 0.19760  0.32470  0.57520  Biso   1.000  H
  C104     1.0000 0.19960  0.24970  0.60470  Biso   1.000  C
  H53      1.0000 0.19700  0.25950  0.64090  Biso   1.000  H
  C105     1.0000 0.20300  0.19640  0.59090  Biso   1.000  C
  C106     1.0000 0.20670  0.18400  0.53600  Biso   1.000  C
  H54      1.0000 0.20930  0.14790  0.52580  Biso   1.000  H
  C107     1.0000 0.21190  0.41320  0.32870  Biso   1.000  C
  C108     1.0000 0.20310  0.15270  0.63340  Biso   1.000  C
  O53      1.0000 0.21410  0.38660  0.28530  Biso   1.000  O
  O54      1.0000 0.20040  0.46300  0.33490  Biso   1.000  O
  Co10     1.0000 0.78974  0.70530  0.08519  Biso   1.000  Co
  O55      1.0000 0.80100  0.89240  0.21350  Biso   1.000  O
  O56      1.0000 0.76150  0.95810  0.16860  Biso   1.000  O
  O57      1.0000 0.79240  0.60510  0.88090  Biso   1.000  O
  O58      1.0000 0.79990  0.66670  0.81846  Biso   1.000  O
  N19      1.0000 0.79190  0.79055  0.08244  Biso   1.000  N
  N20      1.0000 0.79349  0.72170  0.00216  Biso   1.000  N
  C109     1.0000 0.79040  0.82350  0.12540  Biso   1.000  C
  H55      1.0000 0.78960  0.80790  0.15960  Biso   1.000  H
  C110     1.0000 0.79000  0.87860  0.12210  Biso   1.000  C
  C111     1.0000 0.79340  0.90130  0.07070  Biso   1.000  C
  H56      1.0000 0.79420  0.93860  0.06640  Biso   1.000  H
  C112     1.0000 0.79550  0.86740  0.02570  Biso   1.000  C
  H57      1.0000 0.79770  0.88210  0.99120  Biso   1.000  H
  C113     1.0000 0.79410  0.81220  0.03240  Biso   1.000  C
  C114     1.0000 0.79620  0.77330  0.98720  Biso   1.000  C
  C115     1.0000 0.80000  0.78840  0.93410  Biso   1.000  C
  H58      1.0000 0.80240  0.82470  0.92480  Biso   1.000  H
  C116     1.0000 0.80040  0.74970  0.89530  Biso   1.000  C
  H59      1.0000 0.80300  0.75950  0.85910  Biso   1.000  H
  C117     1.0000 0.79700  0.69640  0.90910  Biso   1.000  C
  C118     1.0000 0.79330  0.68400  0.96400  Biso   1.000  C
  H60      1.0000 0.79070  0.64790  0.97420  Biso   1.000  H
  C119     1.0000 0.78810  0.91320  0.17130  Biso   1.000  C
  C120     1.0000 0.79690  0.65270  0.86660  Biso   1.000  C
  O59      1.0000 0.78590  0.88660  0.21470  Biso   1.000  O
  O60      1.0000 0.79960  0.96300  0.16510  Biso   1.000  O
  Co11     1.0000 0.71026  0.29470  0.58519  Biso   1.000  Co
  O61      1.0000 0.69900  0.10760  0.71350  Biso   1.000  O
  O62      1.0000 0.73850  0.04190  0.66860  Biso   1.000  O
  O63      1.0000 0.70760  0.39490  0.38090  Biso   1.000  O
  O64      1.0000 0.70010  0.33330  0.31846  Biso   1.000  O
  N21      1.0000 0.70810  0.20945  0.58244  Biso   1.000  N
  N22      1.0000 0.70651  0.27830  0.50216  Biso   1.000  N
  C121     1.0000 0.70960  0.17650  0.62540  Biso   1.000  C
  H61      1.0000 0.71040  0.19210  0.65960  Biso   1.000  H
  C122     1.0000 0.71000  0.12140  0.62210  Biso   1.000  C
  C123     1.0000 0.70660  0.09870  0.57070  Biso   1.000  C
  H62      1.0000 0.70580  0.06140  0.56640  Biso   1.000  H
  C124     1.0000 0.70450  0.13260  0.52570  Biso   1.000  C
  H63      1.0000 0.70230  0.11790  0.49120  Biso   1.000  H
  C125     1.0000 0.70590  0.18780  0.53240  Biso   1.000  C
  C126     1.0000 0.70380  0.22670  0.48720  Biso   1.000  C
  C127     1.0000 0.70000  0.21160  0.43410  Biso   1.000  C
  H64      1.0000 0.69760  0.17530  0.42480  Biso   1.000  H
  C128     1.0000 0.69960  0.25030  0.39530  Biso   1.000  C
  H65      1.0000 0.69700  0.24050  0.35910  Biso   1.000  H
  C129     1.0000 0.70300  0.30360  0.40910  Biso   1.000  C
  C130     1.0000 0.70670  0.31600  0.46400  Biso   1.000  C
  H66      1.0000 0.70930  0.35210  0.47420  Biso   1.000  H
  C131     1.0000 0.71190  0.08680  0.67130  Biso   1.000  C
  C132     1.0000 0.70310  0.34730  0.36660  Biso   1.000  C
  O65      1.0000 0.71410  0.11340  0.71470  Biso   1.000  O
  O66      1.0000 0.70040  0.03700  0.66510  Biso   1.000  O
  Co12     1.0000 0.28974  0.79470  0.91481  Biso   1.000  Co
  O67      1.0000 0.30100  0.60760  0.78650  Biso   1.000  O
  O68      1.0000 0.26150  0.54190  0.83140  Biso   1.000  O
  O69      1.0000 0.29240  0.89490  0.11910  Biso   1.000  O
  O70      1.0000 0.29990  0.83330  0.18154  Biso   1.000  O
  N23      1.0000 0.29190  0.70945  0.91756  Biso   1.000  N
  N24      1.0000 0.29349  0.77830  0.99784  Biso   1.000  N
  C133     1.0000 0.29040  0.67650  0.87460  Biso   1.000  C
  H67      1.0000 0.28960  0.69210  0.84040  Biso   1.000  H
  C134     1.0000 0.29000  0.62140  0.87790  Biso   1.000  C
  C135     1.0000 0.29340  0.59870  0.92930  Biso   1.000  C
  H68      1.0000 0.29420  0.56140  0.93360  Biso   1.000  H
  C136     1.0000 0.29550  0.63260  0.97430  Biso   1.000  C
  H69      1.0000 0.29770  0.61790  0.00880  Biso   1.000  H
  C137     1.0000 0.29410  0.68780  0.96760  Biso   1.000  C
  C138     1.0000 0.29620  0.72670  0.01280  Biso   1.000  C
  C139     1.0000 0.30000  0.71160  0.06590  Biso   1.000  C
  H70      1.0000 0.30240  0.67530  0.07520  Biso   1.000  H
  C140     1.0000 0.30040  0.75030  0.10470  Biso   1.000  C
  H71      1.0000 0.30300  0.74050  0.14090  Biso   1.000  H
  C141     1.0000 0.29700  0.80360  0.09090  Biso   1.000  C
  C142     1.0000 0.29330  0.81600  0.03600  Biso   1.000  C
  H72      1.0000 0.29070  0.85210  0.02580  Biso   1.000  H
  C143     1.0000 0.28810  0.58680  0.82870  Biso   1.000  C
  C144     1.0000 0.29690  0.84730  0.13340  Biso   1.000  C
  O71      1.0000 0.28590  0.61340  0.78530  Biso   1.000  O
  O72      1.0000 0.29960  0.53700  0.83490  Biso   1.000  O
  Co13     1.0000 0.58519  0.78974  0.79470  Biso   1.000  Co
  O73      1.0000 0.71350  0.80100  0.60760  Biso   1.000  O
  O74      1.0000 0.66860  0.76150  0.54190  Biso   1.000  O
  O75      1.0000 0.38090  0.79240  0.89490  Biso   1.000  O
  O76      1.0000 0.31846  0.79990  0.83330  Biso   1.000  O
  N25      1.0000 0.58244  0.79190  0.70945  Biso   1.000  N
  N26      1.0000 0.50216  0.79349  0.77830  Biso   1.000  N
  C145     1.0000 0.62540  0.79040  0.67650  Biso   1.000  C
  H73      1.0000 0.65960  0.78960  0.69210  Biso   1.000  H
  C146     1.0000 0.62210  0.79000  0.62140  Biso   1.000  C
  C147     1.0000 0.57070  0.79340  0.59870  Biso   1.000  C
  H74      1.0000 0.56640  0.79420  0.56140  Biso   1.000  H
  C148     1.0000 0.52570  0.79550  0.63260  Biso   1.000  C
  H75      1.0000 0.49120  0.79770  0.61790  Biso   1.000  H
  C149     1.0000 0.53240  0.79410  0.68780  Biso   1.000  C
  C150     1.0000 0.48720  0.79620  0.72670  Biso   1.000  C
  C151     1.0000 0.43410  0.80000  0.71160  Biso   1.000  C
  H76      1.0000 0.42480  0.80240  0.67530  Biso   1.000  H
  C152     1.0000 0.39530  0.80040  0.75030  Biso   1.000  C
  H77      1.0000 0.35910  0.80300  0.74050  Biso   1.000  H
  C153     1.0000 0.40910  0.79700  0.80360  Biso   1.000  C
  C154     1.0000 0.46400  0.79330  0.81600  Biso   1.000  C
  H78      1.0000 0.47420  0.79070  0.85210  Biso   1.000  H
  C155     1.0000 0.67130  0.78810  0.58680  Biso   1.000  C
  C156     1.0000 0.36660  0.79690  0.84730  Biso   1.000  C
  O77      1.0000 0.71470  0.78590  0.61340  Biso   1.000  O
  O78      1.0000 0.66510  0.79960  0.53700  Biso   1.000  O
  Co14     1.0000 0.91481  0.21026  0.29470  Biso   1.000  Co
  O79      1.0000 0.78650  0.19900  0.10760  Biso   1.000  O
  O80      1.0000 0.83140  0.23850  0.04190  Biso   1.000  O
  O81      1.0000 0.11910  0.20760  0.39490  Biso   1.000  O
  O82      1.0000 0.18154  0.20010  0.33330  Biso   1.000  O
  N27      1.0000 0.91756  0.20810  0.20945  Biso   1.000  N
  N28      1.0000 0.99784  0.20651  0.27830  Biso   1.000  N
  C157     1.0000 0.87460  0.20960  0.17650  Biso   1.000  C
  H79      1.0000 0.84040  0.21040  0.19210  Biso   1.000  H
  C158     1.0000 0.87790  0.21000  0.12140  Biso   1.000  C
  C159     1.0000 0.92930  0.20660  0.09870  Biso   1.000  C
  H80      1.0000 0.93360  0.20580  0.06140  Biso   1.000  H
  C160     1.0000 0.97430  0.20450  0.13260  Biso   1.000  C
  H81      1.0000 0.00880  0.20230  0.11790  Biso   1.000  H
  C161     1.0000 0.96760  0.20590  0.18780  Biso   1.000  C
  C162     1.0000 0.01280  0.20380  0.22670  Biso   1.000  C
  C163     1.0000 0.06590  0.20000  0.21160  Biso   1.000  C
  H82      1.0000 0.07520  0.19760  0.17530  Biso   1.000  H
  C164     1.0000 0.10470  0.19960  0.25030  Biso   1.000  C
  H83      1.0000 0.14090  0.19700  0.24050  Biso   1.000  H
  C165     1.0000 0.09090  0.20300  0.30360  Biso   1.000  C
  C166     1.0000 0.03600  0.20670  0.31600  Biso   1.000  C
  H84      1.0000 0.02580  0.20930  0.35210  Biso   1.000  H
  C167     1.0000 0.82870  0.21190  0.08680  Biso   1.000  C
  C168     1.0000 0.13340  0.20310  0.34730  Biso   1.000  C
  O83      1.0000 0.78530  0.21410  0.11340  Biso   1.000  O
  O84      1.0000 0.83490  0.20040  0.03700  Biso   1.000  O
  Co15     1.0000 0.41481  0.28974  0.70530  Biso   1.000  Co
  O85      1.0000 0.28650  0.30100  0.89240  Biso   1.000  O
  O86      1.0000 0.33140  0.26150  0.95810  Biso   1.000  O
  O87      1.0000 0.61910  0.29240  0.60510  Biso   1.000  O
  O88      1.0000 0.68154  0.29990  0.66670  Biso   1.000  O
  N29      1.0000 0.41756  0.29190  0.79055  Biso   1.000  N
  N30      1.0000 0.49784  0.29349  0.72170  Biso   1.000  N
  C169     1.0000 0.37460  0.29040  0.82350  Biso   1.000  C
  H85      1.0000 0.34040  0.28960  0.80790  Biso   1.000  H
  C170     1.0000 0.37790  0.29000  0.87860  Biso   1.000  C
  C171     1.0000 0.42930  0.29340  0.90130  Biso   1.000  C
  H86      1.0000 0.43360  0.29420  0.93860  Biso   1.000  H
  C172     1.0000 0.47430  0.29550  0.86740  Biso   1.000  C
  H87      1.0000 0.50880  0.29770  0.88210  Biso   1.000  H
  C173     1.0000 0.46760  0.29410  0.81220  Biso   1.000  C
  C174     1.0000 0.51280  0.29620  0.77330  Biso   1.000  C
  C175     1.0000 0.56590  0.30000  0.78840  Biso   1.000  C
  H88      1.0000 0.57520  0.30240  0.82470  Biso   1.000  H
  C176     1.0000 0.60470  0.30040  0.74970  Biso   1.000  C
  H89      1.0000 0.64090  0.30300  0.75950  Biso   1.000  H
  C177     1.0000 0.59090  0.29700  0.69640  Biso   1.000  C
  C178     1.0000 0.53600  0.29330  0.68400  Biso   1.000  C
  H90      1.0000 0.52580  0.29070  0.64790  Biso   1.000  H
  C179     1.0000 0.32870  0.28810  0.91320  Biso   1.000  C
  C180     1.0000 0.63340  0.29690  0.65270  Biso   1.000  C
  O89      1.0000 0.28530  0.28590  0.88660  Biso   1.000  O
  O90      1.0000 0.33490  0.29960  0.96300  Biso   1.000  O
  Co16     1.0000 0.08519  0.71026  0.20530  Biso   1.000  Co
  O91      1.0000 0.21350  0.69900  0.39240  Biso   1.000  O
  O92      1.0000 0.16860  0.73850  0.45810  Biso   1.000  O
  O93      1.0000 0.88090  0.70760  0.10510  Biso   1.000  O
  O94      1.0000 0.81846  0.70010  0.16670  Biso   1.000  O
  N31      1.0000 0.08244  0.70810  0.29055  Biso   1.000  N
  N32      1.0000 0.00216  0.70651  0.22170  Biso   1.000  N
  C181     1.0000 0.12540  0.70960  0.32350  Biso   1.000  C
  H91      1.0000 0.15960  0.71040  0.30790  Biso   1.000  H
  C182     1.0000 0.12210  0.71000  0.37860  Biso   1.000  C
  C183     1.0000 0.07070  0.70660  0.40130  Biso   1.000  C
  H92      1.0000 0.06640  0.70580  0.43860  Biso   1.000  H
  C184     1.0000 0.02570  0.70450  0.36740  Biso   1.000  C
  H93      1.0000 0.99120  0.70230  0.38210  Biso   1.000  H
  C185     1.0000 0.03240  0.70590  0.31220  Biso   1.000  C
  C186     1.0000 0.98720  0.70380  0.27330  Biso   1.000  C
  C187     1.0000 0.93410  0.70000  0.28840  Biso   1.000  C
  H94      1.0000 0.92480  0.69760  0.32470  Biso   1.000  H
  C188     1.0000 0.89530  0.69960  0.24970  Biso   1.000  C
  H95      1.0000 0.85910  0.69700  0.25950  Biso   1.000  H
  C189     1.0000 0.90910  0.70300  0.19640  Biso   1.000  C
  C190     1.0000 0.96400  0.70670  0.18400  Biso   1.000  C
  H96      1.0000 0.97420  0.70930  0.14790  Biso   1.000  H
  C191     1.0000 0.17130  0.71190  0.41320  Biso   1.000  C
  C192     1.0000 0.86660  0.70310  0.15270  Biso   1.000  C
  O95      1.0000 0.21470  0.71410  0.38660  Biso   1.000  O
  O96      1.0000 0.16510  0.70040  0.46300  Biso   1.000  O
  Co17     1.0000 0.79470  0.58519  0.78974  Biso   1.000  Co
  O97      1.0000 0.60760  0.71350  0.80100  Biso   1.000  O
  O98      1.0000 0.54190  0.66860  0.76150  Biso   1.000  O
  O99      1.0000 0.89490  0.38090  0.79240  Biso   1.000  O
  O100     1.0000 0.83330  0.31846  0.79990  Biso   1.000  O
  N33      1.0000 0.70945  0.58244  0.79190  Biso   1.000  N
  N34      1.0000 0.77830  0.50216  0.79349  Biso   1.000  N
  C193     1.0000 0.67650  0.62540  0.79040  Biso   1.000  C
  H97      1.0000 0.69210  0.65960  0.78960  Biso   1.000  H
  C194     1.0000 0.62140  0.62210  0.79000  Biso   1.000  C
  C195     1.0000 0.59870  0.57070  0.79340  Biso   1.000  C
  H98      1.0000 0.56140  0.56640  0.79420  Biso   1.000  H
  C196     1.0000 0.63260  0.52570  0.79550  Biso   1.000  C
  H99      1.0000 0.61790  0.49120  0.79770  Biso   1.000  H
  C197     1.0000 0.68780  0.53240  0.79410  Biso   1.000  C
  C198     1.0000 0.72670  0.48720  0.79620  Biso   1.000  C
  C199     1.0000 0.71160  0.43410  0.80000  Biso   1.000  C
  H100     1.0000 0.67530  0.42480  0.80240  Biso   1.000  H
  C200     1.0000 0.75030  0.39530  0.80040  Biso   1.000  C
  H101     1.0000 0.74050  0.35910  0.80300  Biso   1.000  H
  C201     1.0000 0.80360  0.40910  0.79700  Biso   1.000  C
  C202     1.0000 0.81600  0.46400  0.79330  Biso   1.000  C
  H102     1.0000 0.85210  0.47420  0.79070  Biso   1.000  H
  C203     1.0000 0.58680  0.67130  0.78810  Biso   1.000  C
  C204     1.0000 0.84730  0.36660  0.79690  Biso   1.000  C
  O101     1.0000 0.61340  0.71470  0.78590  Biso   1.000  O
  O102     1.0000 0.53700  0.66510  0.79960  Biso   1.000  O
  Co18     1.0000 0.29470  0.91481  0.21026  Biso   1.000  Co
  O103     1.0000 0.10760  0.78650  0.19900  Biso   1.000  O
  O104     1.0000 0.04190  0.83140  0.23850  Biso   1.000  O
  O105     1.0000 0.39490  0.11910  0.20760  Biso   1.000  O
  O106     1.0000 0.33330  0.18154  0.20010  Biso   1.000  O
  N35      1.0000 0.20945  0.91756  0.20810  Biso   1.000  N
  N36      1.0000 0.27830  0.99784  0.20651  Biso   1.000  N
  C205     1.0000 0.17650  0.87460  0.20960  Biso   1.000  C
  H103     1.0000 0.19210  0.84040  0.21040  Biso   1.000  H
  C206     1.0000 0.12140  0.87790  0.21000  Biso   1.000  C
  C207     1.0000 0.09870  0.92930  0.20660  Biso   1.000  C
  H104     1.0000 0.06140  0.93360  0.20580  Biso   1.000  H
  C208     1.0000 0.13260  0.97430  0.20450  Biso   1.000  C
  H105     1.0000 0.11790  0.00880  0.20230  Biso   1.000  H
  C209     1.0000 0.18780  0.96760  0.20590  Biso   1.000  C
  C210     1.0000 0.22670  0.01280  0.20380  Biso   1.000  C
  C211     1.0000 0.21160  0.06590  0.20000  Biso   1.000  C
  H106     1.0000 0.17530  0.07520  0.19760  Biso   1.000  H
  C212     1.0000 0.25030  0.10470  0.19960  Biso   1.000  C
  H107     1.0000 0.24050  0.14090  0.19700  Biso   1.000  H
  C213     1.0000 0.30360  0.09090  0.20300  Biso   1.000  C
  C214     1.0000 0.31600  0.03600  0.20670  Biso   1.000  C
  H108     1.0000 0.35210  0.02580  0.20930  Biso   1.000  H
  C215     1.0000 0.08680  0.82870  0.21190  Biso   1.000  C
  C216     1.0000 0.34730  0.13340  0.20310  Biso   1.000  C
  O107     1.0000 0.11340  0.78530  0.21410  Biso   1.000  O
  O108     1.0000 0.03700  0.83490  0.20040  Biso   1.000  O
  Co19     1.0000 0.70530  0.41481  0.28974  Biso   1.000  Co
  O109     1.0000 0.89240  0.28650  0.30100  Biso   1.000  O
  O110     1.0000 0.95810  0.33140  0.26150  Biso   1.000  O
  O111     1.0000 0.60510  0.61910  0.29240  Biso   1.000  O
  O112     1.0000 0.66670  0.68154  0.29990  Biso   1.000  O
  N37      1.0000 0.79055  0.41756  0.29190  Biso   1.000  N
  N38      1.0000 0.72170  0.49784  0.29349  Biso   1.000  N
  C217     1.0000 0.82350  0.37460  0.29040  Biso   1.000  C
  H109     1.0000 0.80790  0.34040  0.28960  Biso   1.000  H
  C218     1.0000 0.87860  0.37790  0.29000  Biso   1.000  C
  C219     1.0000 0.90130  0.42930  0.29340  Biso   1.000  C
  H110     1.0000 0.93860  0.43360  0.29420  Biso   1.000  H
  C220     1.0000 0.86740  0.47430  0.29550  Biso   1.000  C
  H111     1.0000 0.88210  0.50880  0.29770  Biso   1.000  H
  C221     1.0000 0.81220  0.46760  0.29410  Biso   1.000  C
  C222     1.0000 0.77330  0.51280  0.29620  Biso   1.000  C
  C223     1.0000 0.78840  0.56590  0.30000  Biso   1.000  C
  H112     1.0000 0.82470  0.57520  0.30240  Biso   1.000  H
  C224     1.0000 0.74970  0.60470  0.30040  Biso   1.000  C
  H113     1.0000 0.75950  0.64090  0.30300  Biso   1.000  H
  C225     1.0000 0.69640  0.59090  0.29700  Biso   1.000  C
  C226     1.0000 0.68400  0.53600  0.29330  Biso   1.000  C
  H114     1.0000 0.64790  0.52580  0.29070  Biso   1.000  H
  C227     1.0000 0.91320  0.32870  0.28810  Biso   1.000  C
  C228     1.0000 0.65270  0.63340  0.29690  Biso   1.000  C
  O113     1.0000 0.88660  0.28530  0.28590  Biso   1.000  O
  O114     1.0000 0.96300  0.33490  0.29960  Biso   1.000  O
  Co20     1.0000 0.20530  0.08519  0.71026  Biso   1.000  Co
  O115     1.0000 0.39240  0.21350  0.69900  Biso   1.000  O
  O116     1.0000 0.45810  0.16860  0.73850  Biso   1.000  O
  O117     1.0000 0.10510  0.88090  0.70760  Biso   1.000  O
  O118     1.0000 0.16670  0.81846  0.70010  Biso   1.000  O
  N39      1.0000 0.29055  0.08244  0.70810  Biso   1.000  N
  N40      1.0000 0.22170  0.00216  0.70651  Biso   1.000  N
  C229     1.0000 0.32350  0.12540  0.70960  Biso   1.000  C
  H115     1.0000 0.30790  0.15960  0.71040  Biso   1.000  H
  C230     1.0000 0.37860  0.12210  0.71000  Biso   1.000  C
  C231     1.0000 0.40130  0.07070  0.70660  Biso   1.000  C
  H116     1.0000 0.43860  0.06640  0.70580  Biso   1.000  H
  C232     1.0000 0.36740  0.02570  0.70450  Biso   1.000  C
  H117     1.0000 0.38210  0.99120  0.70230  Biso   1.000  H
  C233     1.0000 0.31220  0.03240  0.70590  Biso   1.000  C
  C234     1.0000 0.27330  0.98720  0.70380  Biso   1.000  C
  C235     1.0000 0.28840  0.93410  0.70000  Biso   1.000  C
  H118     1.0000 0.32470  0.92480  0.69760  Biso   1.000  H
  C236     1.0000 0.24970  0.89530  0.69960  Biso   1.000  C
  H119     1.0000 0.25950  0.85910  0.69700  Biso   1.000  H
  C237     1.0000 0.19640  0.90910  0.70300  Biso   1.000  C
  C238     1.0000 0.18400  0.96400  0.70670  Biso   1.000  C
  H120     1.0000 0.14790  0.97420  0.70930  Biso   1.000  H
  C239     1.0000 0.41320  0.17130  0.71190  Biso   1.000  C
  C240     1.0000 0.15270  0.86660  0.70310  Biso   1.000  C
  O119     1.0000 0.38660  0.21470  0.71410  Biso   1.000  O
  O120     1.0000 0.46300  0.16510  0.70040  Biso   1.000  O
  Co21     1.0000 0.78974  0.79470  0.58519  Biso   1.000  Co
  O121     1.0000 0.80100  0.60760  0.71350  Biso   1.000  O
  O122     1.0000 0.76150  0.54190  0.66860  Biso   1.000  O
  O123     1.0000 0.79240  0.89490  0.38090  Biso   1.000  O
  O124     1.0000 0.79990  0.83330  0.31846  Biso   1.000  O
  N41      1.0000 0.79190  0.70945  0.58244  Biso   1.000  N
  N42      1.0000 0.79349  0.77830  0.50216  Biso   1.000  N
  C241     1.0000 0.79040  0.67650  0.62540  Biso   1.000  C
  H121     1.0000 0.78960  0.69210  0.65960  Biso   1.000  H
  C242     1.0000 0.79000  0.62140  0.62210  Biso   1.000  C
  C243     1.0000 0.79340  0.59870  0.57070  Biso   1.000  C
  H122     1.0000 0.79420  0.56140  0.56640  Biso   1.000  H
  C244     1.0000 0.79550  0.63260  0.52570  Biso   1.000  C
  H123     1.0000 0.79770  0.61790  0.49120  Biso   1.000  H
  C245     1.0000 0.79410  0.68780  0.53240  Biso   1.000  C
  C246     1.0000 0.79620  0.72670  0.48720  Biso   1.000  C
  C247     1.0000 0.80000  0.71160  0.43410  Biso   1.000  C
  H124     1.0000 0.80240  0.67530  0.42480  Biso   1.000  H
  C248     1.0000 0.80040  0.75030  0.39530  Biso   1.000  C
  H125     1.0000 0.80300  0.74050  0.35910  Biso   1.000  H
  C249     1.0000 0.79700  0.80360  0.40910  Biso   1.000  C
  C250     1.0000 0.79330  0.81600  0.46400  Biso   1.000  C
  H126     1.0000 0.79070  0.85210  0.47420  Biso   1.000  H
  C251     1.0000 0.78810  0.58680  0.67130  Biso   1.000  C
  C252     1.0000 0.79690  0.84730  0.36660  Biso   1.000  C
  O125     1.0000 0.78590  0.61340  0.71470  Biso   1.000  O
  O126     1.0000 0.79960  0.53700  0.66510  Biso   1.000  O
  Co22     1.0000 0.21026  0.29470  0.91481  Biso   1.000  Co
  O127     1.0000 0.19900  0.10760  0.78650  Biso   1.000  O
  O128     1.0000 0.23850  0.04190  0.83140  Biso   1.000  O
  O129     1.0000 0.20760  0.39490  0.11910  Biso   1.000  O
  O130     1.0000 0.20010  0.33330  0.18154  Biso   1.000  O
  N43      1.0000 0.20810  0.20945  0.91756  Biso   1.000  N
  N44      1.0000 0.20651  0.27830  0.99784  Biso   1.000  N
  C253     1.0000 0.20960  0.17650  0.87460  Biso   1.000  C
  H127     1.0000 0.21040  0.19210  0.84040  Biso   1.000  H
  C254     1.0000 0.21000  0.12140  0.87790  Biso   1.000  C
  C255     1.0000 0.20660  0.09870  0.92930  Biso   1.000  C
  H128     1.0000 0.20580  0.06140  0.93360  Biso   1.000  H
  C256     1.0000 0.20450  0.13260  0.97430  Biso   1.000  C
  H129     1.0000 0.20230  0.11790  0.00880  Biso   1.000  H
  C257     1.0000 0.20590  0.18780  0.96760  Biso   1.000  C
  C258     1.0000 0.20380  0.22670  0.01280  Biso   1.000  C
  C259     1.0000 0.20000  0.21160  0.06590  Biso   1.000  C
  H130     1.0000 0.19760  0.17530  0.07520  Biso   1.000  H
  C260     1.0000 0.19960  0.25030  0.10470  Biso   1.000  C
  H131     1.0000 0.19700  0.24050  0.14090  Biso   1.000  H
  C261     1.0000 0.20300  0.30360  0.09090  Biso   1.000  C
  C262     1.0000 0.20670  0.31600  0.03600  Biso   1.000  C
  H132     1.0000 0.20930  0.35210  0.02580  Biso   1.000  H
  C263     1.0000 0.21190  0.08680  0.82870  Biso   1.000  C
  C264     1.0000 0.20310  0.34730  0.13340  Biso   1.000  C
  O131     1.0000 0.21410  0.11340  0.78530  Biso   1.000  O
  O132     1.0000 0.20040  0.03700  0.83490  Biso   1.000  O
  Co23     1.0000 0.28974  0.70530  0.41481  Biso   1.000  Co
  O133     1.0000 0.30100  0.89240  0.28650  Biso   1.000  O
  O134     1.0000 0.26150  0.95810  0.33140  Biso   1.000  O
  O135     1.0000 0.29240  0.60510  0.61910  Biso   1.000  O
  O136     1.0000 0.29990  0.66670  0.68154  Biso   1.000  O
  N45      1.0000 0.29190  0.79055  0.41756  Biso   1.000  N
  N46      1.0000 0.29349  0.72170  0.49784  Biso   1.000  N
  C265     1.0000 0.29040  0.82350  0.37460  Biso   1.000  C
  H133     1.0000 0.28960  0.80790  0.34040  Biso   1.000  H
  C266     1.0000 0.29000  0.87860  0.37790  Biso   1.000  C
  C267     1.0000 0.29340  0.90130  0.42930  Biso   1.000  C
  H134     1.0000 0.29420  0.93860  0.43360  Biso   1.000  H
  C268     1.0000 0.29550  0.86740  0.47430  Biso   1.000  C
  H135     1.0000 0.29770  0.88210  0.50880  Biso   1.000  H
  C269     1.0000 0.29410  0.81220  0.46760  Biso   1.000  C
  C270     1.0000 0.29620  0.77330  0.51280  Biso   1.000  C
  C271     1.0000 0.30000  0.78840  0.56590  Biso   1.000  C
  H136     1.0000 0.30240  0.82470  0.57520  Biso   1.000  H
  C272     1.0000 0.30040  0.74970  0.60470  Biso   1.000  C
  H137     1.0000 0.30300  0.75950  0.64090  Biso   1.000  H
  C273     1.0000 0.29700  0.69640  0.59090  Biso   1.000  C
  C274     1.0000 0.29330  0.68400  0.53600  Biso   1.000  C
  H138     1.0000 0.29070  0.64790  0.52580  Biso   1.000  H
  C275     1.0000 0.28810  0.91320  0.32870  Biso   1.000  C
  C276     1.0000 0.29690  0.65270  0.63340  Biso   1.000  C
  O137     1.0000 0.28590  0.88660  0.28530  Biso   1.000  O
  O138     1.0000 0.29960  0.96300  0.33490  Biso   1.000  O
  Co24     1.0000 0.71026  0.20530  0.08519  Biso   1.000  Co
  O139     1.0000 0.69900  0.39240  0.21350  Biso   1.000  O
  O140     1.0000 0.73850  0.45810  0.16860  Biso   1.000  O
  O141     1.0000 0.70760  0.10510  0.88090  Biso   1.000  O
  O142     1.0000 0.70010  0.16670  0.81846  Biso   1.000  O
  N47      1.0000 0.70810  0.29055  0.08244  Biso   1.000  N
  N48      1.0000 0.70651  0.22170  0.00216  Biso   1.000  N
  C277     1.0000 0.70960  0.32350  0.12540  Biso   1.000  C
  H139     1.0000 0.71040  0.30790  0.15960  Biso   1.000  H
  C278     1.0000 0.71000  0.37860  0.12210  Biso   1.000  C
  C279     1.0000 0.70660  0.40130  0.07070  Biso   1.000  C
  H140     1.0000 0.70580  0.43860  0.06640  Biso   1.000  H
  C280     1.0000 0.70450  0.36740  0.02570  Biso   1.000  C
  H141     1.0000 0.70230  0.38210  0.99120  Biso   1.000  H
  C281     1.0000 0.70590  0.31220  0.03240  Biso   1.000  C
  C282     1.0000 0.70380  0.27330  0.98720  Biso   1.000  C
  C283     1.0000 0.70000  0.28840  0.93410  Biso   1.000  C
  H142     1.0000 0.69760  0.32470  0.92480  Biso   1.000  H
  C284     1.0000 0.69960  0.24970  0.89530  Biso   1.000  C
  H143     1.0000 0.69700  0.25950  0.85910  Biso   1.000  H
  C285     1.0000 0.70300  0.19640  0.90910  Biso   1.000  C
  C286     1.0000 0.70670  0.18400  0.96400  Biso   1.000  C
  H144     1.0000 0.70930  0.14790  0.97420  Biso   1.000  H
  C287     1.0000 0.71190  0.41320  0.17130  Biso   1.000  C
  C288     1.0000 0.70310  0.15270  0.86660  Biso   1.000  C
  O143     1.0000 0.71410  0.38660  0.21470  Biso   1.000  O
  O144     1.0000 0.70040  0.46300  0.16510  Biso   1.000  O
