data_image0
_cell_length_a       32.9116
_cell_length_b       34.7726
_cell_length_c       11.5106
_cell_angle_alpha    90
_cell_angle_beta     109.958
_cell_angle_gamma    90

_symmetry_space_group_name_H-M    "P 1"
_symmetry_int_tables_number       1

loop_
  _symmetry_equiv_pos_as_xyz
  'x, y, z'

loop_
  _atom_site_label
  _atom_site_occupancy
  _atom_site_fract_x
  _atom_site_fract_y
  _atom_site_fract_z
  _atom_site_thermal_displace_type
  _atom_site_B_iso_or_equiv
  _atom_site_type_symbol
  Zn1      1.0000 0.96396  0.73842  0.70641  Biso   1.000  Zn
  O1       1.0000 0.73952  0.54135  0.66902  Biso   1.000  O
  O2       1.0000 0.77674  0.54223  0.86859  Biso   1.000  O
  O3       1.0000 0.17596  0.54184  0.64657  Biso   1.000  O
  O4       1.0000 0.76558  0.95856  0.64115  Biso   1.000  O
  O5       1.0000 0.19310  0.93139  0.83912  Biso   1.000  O
  O6       1.0000 0.76361  0.93166  0.81197  Biso   1.000  O
  O7       1.0000 0.18782  0.54113  0.84682  Biso   1.000  O
  O8       1.0000 0.14907  0.95835  0.67022  Biso   1.000  O
  N1       1.0000 0.96040  0.79698  0.67160  Biso   1.000  N
  N2       1.0000 0.89796  0.73834  0.67080  Biso   1.000  N
  N3       1.0000 0.02178  0.73753  0.67390  Biso   1.000  N
  N4       1.0000 0.96146  0.67933  0.69110  Biso   1.000  N
  C1       1.0000 0.77034  0.55412  0.75950  Biso   1.000  C
  C2       1.0000 0.80002  0.58370  0.73780  Biso   1.000  C
  C3       1.0000 0.16718  0.55336  0.73860  Biso   1.000  C
  C4       1.0000 0.77512  0.93115  0.71810  Biso   1.000  C
  C5       1.0000 0.15939  0.93055  0.74560  Biso   1.000  C
  C6       1.0000 0.13205  0.58232  0.72230  Biso   1.000  C
  C7       1.0000 0.80116  0.89817  0.69890  Biso   1.000  C
  C8       1.0000 0.99559  0.82007  0.68540  Biso   1.000  C
  C9       1.0000 0.12941  0.89681  0.72430  Biso   1.000  C
  C10      1.0000 0.88704  0.66873  0.68720  Biso   1.000  C
  C11      1.0000 0.92778  0.82058  0.67650  Biso   1.000  C
  C12      1.0000 0.03443  0.66767  0.68490  Biso   1.000  C
  C13      1.0000 0.87250  0.70687  0.66620  Biso   1.000  C
  C14      1.0000 0.04495  0.70564  0.66560  Biso   1.000  C
  C15      1.0000 0.88601  0.80852  0.66610  Biso   1.000  C
  C16      1.0000 0.06821  0.63761  0.69650  Biso   1.000  C
  C17      1.0000 0.85611  0.63920  0.70220  Biso   1.000  C
  C18      1.0000 0.79699  0.59455  0.62070  Biso   1.000  C
  H1       1.0000 0.77570  0.58330  0.55120  Biso   1.000  H
  C19      1.0000 0.92889  0.65624  0.70080  Biso   1.000  C
  C20      1.0000 0.99564  0.65569  0.69880  Biso   1.000  C
  C21      1.0000 0.09204  0.89631  0.62320  Biso   1.000  C
  H2       1.0000 0.08650  0.91630  0.56370  Biso   1.000  H
  C22      1.0000 0.03549  0.80737  0.68040  Biso   1.000  C
  C23      1.0000 0.06937  0.83712  0.69290  Biso   1.000  C
  C24      1.0000 0.81281  0.86861  0.78440  Biso   1.000  C
  H3       1.0000 0.80280  0.86860  0.85250  Biso   1.000  H
  C25      1.0000 0.87202  0.76996  0.65710  Biso   1.000  C
  C26      1.0000 0.94333  0.61679  0.71670  Biso   1.000  C
  H4       1.0000 0.92700  0.59520  0.72580  Biso   1.000  H
  C27      1.0000 0.81516  0.89751  0.59760  Biso   1.000  C
  H5       1.0000 0.80650  0.91730  0.53710  Biso   1.000  H
  C28      1.0000 0.82511  0.62209  0.60380  Biso   1.000  C
  H6       1.0000 0.82280  0.62930  0.52210  Biso   1.000  H
  C29      1.0000 0.04590  0.76879  0.66620  Biso   1.000  C
  C30      1.0000 0.08406  0.71752  0.64330  Biso   1.000  C
  H7       1.0000 0.10520  0.70110  0.63040  Biso   1.000  H
  C31      1.0000 0.85473  0.83875  0.67250  Biso   1.000  C
  C32      1.0000 0.83918  0.83897  0.77090  Biso   1.000  C
  H8       1.0000 0.84670  0.81860  0.82950  Biso   1.000  H
  C33      1.0000 0.94331  0.85996  0.69640  Biso   1.000  C
  H9       1.0000 0.92720  0.88190  0.70340  Biso   1.000  H
  C34      1.0000 0.98442  0.61634  0.71630  Biso   1.000  C
  H10      1.0000 0.00250  0.59440  0.72570  Biso   1.000  H
  C35      1.0000 0.08445  0.75624  0.64440  Biso   1.000  C
  H11      1.0000 0.10610  0.77230  0.63300  Biso   1.000  H
  C36      1.0000 0.13800  0.86643  0.80770  Biso   1.000  C
  H12      1.0000 0.16430  0.86600  0.87610  Biso   1.000  H
  C37      1.0000 0.98486  0.85938  0.70300  Biso   1.000  C
  H13      1.0000 0.00370  0.88090  0.71670  Biso   1.000  H
  C38      1.0000 0.82813  0.75779  0.63810  Biso   1.000  C
  H14      1.0000 0.80370  0.77400  0.62400  Biso   1.000  H
  C39      1.0000 0.84174  0.86800  0.58490  Biso   1.000  C
  H15      1.0000 0.85120  0.86780  0.51560  Biso   1.000  H
  C40      1.0000 0.06237  0.86673  0.60770  Biso   1.000  C
  H16      1.0000 0.03670  0.86680  0.53730  Biso   1.000  H
  C41      1.0000 0.11113  0.59876  0.61060  Biso   1.000  C
  H17      1.0000 0.11800  0.59110  0.54030  Biso   1.000  H
  C42      1.0000 0.82999  0.60153  0.83670  Biso   1.000  C
  H18      1.0000 0.83170  0.59500  0.91830  Biso   1.000  H
  C43      1.0000 0.10841  0.83672  0.79150  Biso   1.000  C
  H19      1.0000 0.11480  0.81590  0.84830  Biso   1.000  H
  C44      1.0000 0.85778  0.62898  0.81880  Biso   1.000  C
  H20      1.0000 0.87830  0.64090  0.88850  Biso   1.000  H
  C45      1.0000 0.82850  0.71903  0.64440  Biso   1.000  C
  H21      1.0000 0.80440  0.70280  0.63610  Biso   1.000  H
  O9       1.0000 0.99627  0.74210  0.89700  Biso   1.000  O
  C46      1.0000 0.07959  0.62670  0.59840  Biso   1.000  C
  H22      1.0000 0.06580  0.63840  0.52020  Biso   1.000  H
  C47      1.0000 0.11984  0.59192  0.82180  Biso   1.000  C
  H23      1.0000 0.13280  0.57950  0.89920  Biso   1.000  H
  C48      1.0000 0.08840  0.61997  0.80820  Biso   1.000  C
  H24      1.0000 0.08070  0.62710  0.87770  Biso   1.000  H
  Na1      1.0000 0.74817  0.92220  0.98761  Biso   1.000  Na
  O10      1.0000 0.97740  0.74170  0.89780  Biso   1.000  O
  Zn2      1.0000 0.46396  0.23842  0.70641  Biso   1.000  Zn
  O11      1.0000 0.23952  0.04135  0.66902  Biso   1.000  O
  O12      1.0000 0.27674  0.04223  0.86859  Biso   1.000  O
  O13      1.0000 0.67596  0.04184  0.64657  Biso   1.000  O
  O14      1.0000 0.26558  0.45856  0.64115  Biso   1.000  O
  O15      1.0000 0.69310  0.43139  0.83912  Biso   1.000  O
  O16      1.0000 0.26361  0.43166  0.81197  Biso   1.000  O
  O17      1.0000 0.68782  0.04113  0.84682  Biso   1.000  O
  O18      1.0000 0.64907  0.45835  0.67022  Biso   1.000  O
  N5       1.0000 0.46040  0.29698  0.67160  Biso   1.000  N
  N6       1.0000 0.39796  0.23834  0.67080  Biso   1.000  N
  N7       1.0000 0.52178  0.23753  0.67390  Biso   1.000  N
  N8       1.0000 0.46146  0.17933  0.69110  Biso   1.000  N
  C49      1.0000 0.27034  0.05412  0.75950  Biso   1.000  C
  C50      1.0000 0.30002  0.08370  0.73780  Biso   1.000  C
  C51      1.0000 0.66718  0.05336  0.73860  Biso   1.000  C
  C52      1.0000 0.27512  0.43115  0.71810  Biso   1.000  C
  C53      1.0000 0.65939  0.43055  0.74560  Biso   1.000  C
  C54      1.0000 0.63205  0.08232  0.72230  Biso   1.000  C
  C55      1.0000 0.30116  0.39817  0.69890  Biso   1.000  C
  C56      1.0000 0.49559  0.32007  0.68540  Biso   1.000  C
  C57      1.0000 0.62941  0.39681  0.72430  Biso   1.000  C
  C58      1.0000 0.38704  0.16873  0.68720  Biso   1.000  C
  C59      1.0000 0.42778  0.32058  0.67650  Biso   1.000  C
  C60      1.0000 0.53443  0.16767  0.68490  Biso   1.000  C
  C61      1.0000 0.37250  0.20687  0.66620  Biso   1.000  C
  C62      1.0000 0.54495  0.20564  0.66560  Biso   1.000  C
  C63      1.0000 0.38601  0.30852  0.66610  Biso   1.000  C
  C64      1.0000 0.56821  0.13761  0.69650  Biso   1.000  C
  C65      1.0000 0.35611  0.13920  0.70220  Biso   1.000  C
  C66      1.0000 0.29699  0.09455  0.62070  Biso   1.000  C
  H25      1.0000 0.27570  0.08330  0.55120  Biso   1.000  H
  C67      1.0000 0.42889  0.15624  0.70080  Biso   1.000  C
  C68      1.0000 0.49564  0.15569  0.69880  Biso   1.000  C
  C69      1.0000 0.59204  0.39631  0.62320  Biso   1.000  C
  H26      1.0000 0.58650  0.41630  0.56370  Biso   1.000  H
  C70      1.0000 0.53549  0.30737  0.68040  Biso   1.000  C
  C71      1.0000 0.56937  0.33712  0.69290  Biso   1.000  C
  C72      1.0000 0.31281  0.36861  0.78440  Biso   1.000  C
  H27      1.0000 0.30280  0.36860  0.85250  Biso   1.000  H
  C73      1.0000 0.37202  0.26996  0.65710  Biso   1.000  C
  C74      1.0000 0.44333  0.11679  0.71670  Biso   1.000  C
  H28      1.0000 0.42700  0.09520  0.72580  Biso   1.000  H
  C75      1.0000 0.31516  0.39751  0.59760  Biso   1.000  C
  H29      1.0000 0.30650  0.41730  0.53710  Biso   1.000  H
  C76      1.0000 0.32511  0.12209  0.60380  Biso   1.000  C
  H30      1.0000 0.32280  0.12930  0.52210  Biso   1.000  H
  C77      1.0000 0.54590  0.26879  0.66620  Biso   1.000  C
  C78      1.0000 0.58406  0.21752  0.64330  Biso   1.000  C
  H31      1.0000 0.60520  0.20110  0.63040  Biso   1.000  H
  C79      1.0000 0.35473  0.33875  0.67250  Biso   1.000  C
  C80      1.0000 0.33918  0.33897  0.77090  Biso   1.000  C
  H32      1.0000 0.34670  0.31860  0.82950  Biso   1.000  H
  C81      1.0000 0.44331  0.35996  0.69640  Biso   1.000  C
  H33      1.0000 0.42720  0.38190  0.70340  Biso   1.000  H
  C82      1.0000 0.48442  0.11634  0.71630  Biso   1.000  C
  H34      1.0000 0.50250  0.09440  0.72570  Biso   1.000  H
  C83      1.0000 0.58445  0.25624  0.64440  Biso   1.000  C
  H35      1.0000 0.60610  0.27230  0.63300  Biso   1.000  H
  C84      1.0000 0.63800  0.36643  0.80770  Biso   1.000  C
  H36      1.0000 0.66430  0.36600  0.87610  Biso   1.000  H
  C85      1.0000 0.48486  0.35938  0.70300  Biso   1.000  C
  H37      1.0000 0.50370  0.38090  0.71670  Biso   1.000  H
  C86      1.0000 0.32813  0.25779  0.63810  Biso   1.000  C
  H38      1.0000 0.30370  0.27400  0.62400  Biso   1.000  H
  C87      1.0000 0.34174  0.36800  0.58490  Biso   1.000  C
  H39      1.0000 0.35120  0.36780  0.51560  Biso   1.000  H
  C88      1.0000 0.56237  0.36673  0.60770  Biso   1.000  C
  H40      1.0000 0.53670  0.36680  0.53730  Biso   1.000  H
  C89      1.0000 0.61113  0.09876  0.61060  Biso   1.000  C
  H41      1.0000 0.61800  0.09110  0.54030  Biso   1.000  H
  C90      1.0000 0.32999  0.10153  0.83670  Biso   1.000  C
  H42      1.0000 0.33170  0.09500  0.91830  Biso   1.000  H
  C91      1.0000 0.60841  0.33672  0.79150  Biso   1.000  C
  H43      1.0000 0.61480  0.31590  0.84830  Biso   1.000  H
  C92      1.0000 0.35778  0.12898  0.81880  Biso   1.000  C
  H44      1.0000 0.37830  0.14090  0.88850  Biso   1.000  H
  C93      1.0000 0.32850  0.21903  0.64440  Biso   1.000  C
  H45      1.0000 0.30440  0.20280  0.63610  Biso   1.000  H
  O19      1.0000 0.49627  0.24210  0.89700  Biso   1.000  O
  C94      1.0000 0.57959  0.12670  0.59840  Biso   1.000  C
  H46      1.0000 0.56580  0.13840  0.52020  Biso   1.000  H
  C95      1.0000 0.61984  0.09192  0.82180  Biso   1.000  C
  H47      1.0000 0.63280  0.07950  0.89920  Biso   1.000  H
  C96      1.0000 0.58840  0.11997  0.80820  Biso   1.000  C
  H48      1.0000 0.58070  0.12710  0.87770  Biso   1.000  H
  Na2      1.0000 0.24817  0.42220  0.98761  Biso   1.000  Na
  O20      1.0000 0.47740  0.24170  0.89780  Biso   1.000  O
  Zn3      1.0000 0.03604  0.73842  0.29359  Biso   1.000  Zn
  O21      1.0000 0.26048  0.54135  0.33098  Biso   1.000  O
  O22      1.0000 0.22326  0.54223  0.13141  Biso   1.000  O
  O23      1.0000 0.82404  0.54184  0.35343  Biso   1.000  O
  O24      1.0000 0.23442  0.95856  0.35885  Biso   1.000  O
  O25      1.0000 0.80690  0.93139  0.16088  Biso   1.000  O
  O26      1.0000 0.23639  0.93166  0.18803  Biso   1.000  O
  O27      1.0000 0.81218  0.54113  0.15318  Biso   1.000  O
  O28      1.0000 0.85093  0.95835  0.32978  Biso   1.000  O
  N9       1.0000 0.03960  0.79698  0.32840  Biso   1.000  N
  N10      1.0000 0.10204  0.73834  0.32920  Biso   1.000  N
  N11      1.0000 0.97822  0.73753  0.32610  Biso   1.000  N
  N12      1.0000 0.03854  0.67933  0.30890  Biso   1.000  N
  C97      1.0000 0.22966  0.55412  0.24050  Biso   1.000  C
  C98      1.0000 0.19998  0.58370  0.26220  Biso   1.000  C
  C99      1.0000 0.83282  0.55336  0.26140  Biso   1.000  C
  C100     1.0000 0.22488  0.93115  0.28190  Biso   1.000  C
  C101     1.0000 0.84061  0.93055  0.25440  Biso   1.000  C
  C102     1.0000 0.86795  0.58232  0.27770  Biso   1.000  C
  C103     1.0000 0.19884  0.89817  0.30110  Biso   1.000  C
  C104     1.0000 0.00441  0.82007  0.31460  Biso   1.000  C
  C105     1.0000 0.87059  0.89681  0.27570  Biso   1.000  C
  C106     1.0000 0.11296  0.66873  0.31280  Biso   1.000  C
  C107     1.0000 0.07222  0.82058  0.32350  Biso   1.000  C
  C108     1.0000 0.96557  0.66767  0.31510  Biso   1.000  C
  C109     1.0000 0.12750  0.70687  0.33380  Biso   1.000  C
  C110     1.0000 0.95505  0.70564  0.33440  Biso   1.000  C
  C111     1.0000 0.11399  0.80852  0.33390  Biso   1.000  C
  C112     1.0000 0.93179  0.63761  0.30350  Biso   1.000  C
  C113     1.0000 0.14389  0.63920  0.29780  Biso   1.000  C
  C114     1.0000 0.20301  0.59455  0.37930  Biso   1.000  C
  H49      1.0000 0.22430  0.58330  0.44880  Biso   1.000  H
  C115     1.0000 0.07111  0.65624  0.29920  Biso   1.000  C
  C116     1.0000 0.00436  0.65569  0.30120  Biso   1.000  C
  C117     1.0000 0.90796  0.89631  0.37680  Biso   1.000  C
  H50      1.0000 0.91350  0.91630  0.43630  Biso   1.000  H
  C118     1.0000 0.96451  0.80737  0.31960  Biso   1.000  C
  C119     1.0000 0.93063  0.83712  0.30710  Biso   1.000  C
  C120     1.0000 0.18719  0.86861  0.21560  Biso   1.000  C
  H51      1.0000 0.19720  0.86860  0.14750  Biso   1.000  H
  C121     1.0000 0.12798  0.76996  0.34290  Biso   1.000  C
  C122     1.0000 0.05667  0.61679  0.28330  Biso   1.000  C
  H52      1.0000 0.07300  0.59520  0.27420  Biso   1.000  H
  C123     1.0000 0.18484  0.89751  0.40240  Biso   1.000  C
  H53      1.0000 0.19350  0.91730  0.46290  Biso   1.000  H
  C124     1.0000 0.17489  0.62209  0.39620  Biso   1.000  C
  H54      1.0000 0.17720  0.62930  0.47790  Biso   1.000  H
  C125     1.0000 0.95410  0.76879  0.33380  Biso   1.000  C
  C126     1.0000 0.91594  0.71752  0.35670  Biso   1.000  C
  H55      1.0000 0.89480  0.70110  0.36960  Biso   1.000  H
  C127     1.0000 0.14527  0.83875  0.32750  Biso   1.000  C
  C128     1.0000 0.16082  0.83897  0.22910  Biso   1.000  C
  H56      1.0000 0.15330  0.81860  0.17050  Biso   1.000  H
  C129     1.0000 0.05669  0.85996  0.30360  Biso   1.000  C
  H57      1.0000 0.07280  0.88190  0.29660  Biso   1.000  H
  C130     1.0000 0.01558  0.61634  0.28370  Biso   1.000  C
  H58      1.0000 0.99750  0.59440  0.27430  Biso   1.000  H
  C131     1.0000 0.91555  0.75624  0.35560  Biso   1.000  C
  H59      1.0000 0.89390  0.77230  0.36700  Biso   1.000  H
  C132     1.0000 0.86200  0.86643  0.19230  Biso   1.000  C
  H60      1.0000 0.83570  0.86600  0.12390  Biso   1.000  H
  C133     1.0000 0.01514  0.85938  0.29700  Biso   1.000  C
  H61      1.0000 0.99630  0.88090  0.28330  Biso   1.000  H
  C134     1.0000 0.17187  0.75779  0.36190  Biso   1.000  C
  H62      1.0000 0.19630  0.77400  0.37600  Biso   1.000  H
  C135     1.0000 0.15826  0.86800  0.41510  Biso   1.000  C
  H63      1.0000 0.14880  0.86780  0.48440  Biso   1.000  H
  C136     1.0000 0.93763  0.86673  0.39230  Biso   1.000  C
  H64      1.0000 0.96330  0.86680  0.46270  Biso   1.000  H
  C137     1.0000 0.88887  0.59876  0.38940  Biso   1.000  C
  H65      1.0000 0.88200  0.59110  0.45970  Biso   1.000  H
  C138     1.0000 0.17001  0.60153  0.16330  Biso   1.000  C
  H66      1.0000 0.16830  0.59500  0.08170  Biso   1.000  H
  C139     1.0000 0.89159  0.83672  0.20850  Biso   1.000  C
  H67      1.0000 0.88520  0.81590  0.15170  Biso   1.000  H
  C140     1.0000 0.14222  0.62898  0.18120  Biso   1.000  C
  H68      1.0000 0.12170  0.64090  0.11150  Biso   1.000  H
  C141     1.0000 0.17150  0.71903  0.35560  Biso   1.000  C
  H69      1.0000 0.19560  0.70280  0.36390  Biso   1.000  H
  O29      1.0000 0.00373  0.74210  0.10300  Biso   1.000  O
  C142     1.0000 0.92041  0.62670  0.40160  Biso   1.000  C
  H70      1.0000 0.93420  0.63840  0.47980  Biso   1.000  H
  C143     1.0000 0.88016  0.59192  0.17820  Biso   1.000  C
  H71      1.0000 0.86720  0.57950  0.10080  Biso   1.000  H
  C144     1.0000 0.91160  0.61997  0.19180  Biso   1.000  C
  H72      1.0000 0.91930  0.62710  0.12230  Biso   1.000  H
  Na3      1.0000 0.25183  0.92220  0.01239  Biso   1.000  Na
  O30      1.0000 0.02260  0.74170  0.10220  Biso   1.000  O
  Zn4      1.0000 0.53604  0.23842  0.29359  Biso   1.000  Zn
  O31      1.0000 0.76048  0.04135  0.33098  Biso   1.000  O
  O32      1.0000 0.72326  0.04223  0.13141  Biso   1.000  O
  O33      1.0000 0.32404  0.04184  0.35343  Biso   1.000  O
  O34      1.0000 0.73442  0.45856  0.35885  Biso   1.000  O
  O35      1.0000 0.30690  0.43139  0.16088  Biso   1.000  O
  O36      1.0000 0.73639  0.43166  0.18803  Biso   1.000  O
  O37      1.0000 0.31218  0.04113  0.15318  Biso   1.000  O
  O38      1.0000 0.35093  0.45835  0.32978  Biso   1.000  O
  N13      1.0000 0.53960  0.29698  0.32840  Biso   1.000  N
  N14      1.0000 0.60204  0.23834  0.32920  Biso   1.000  N
  N15      1.0000 0.47822  0.23753  0.32610  Biso   1.000  N
  N16      1.0000 0.53854  0.17933  0.30890  Biso   1.000  N
  C145     1.0000 0.72966  0.05412  0.24050  Biso   1.000  C
  C146     1.0000 0.69998  0.08370  0.26220  Biso   1.000  C
  C147     1.0000 0.33282  0.05336  0.26140  Biso   1.000  C
  C148     1.0000 0.72488  0.43115  0.28190  Biso   1.000  C
  C149     1.0000 0.34061  0.43055  0.25440  Biso   1.000  C
  C150     1.0000 0.36795  0.08232  0.27770  Biso   1.000  C
  C151     1.0000 0.69884  0.39817  0.30110  Biso   1.000  C
  C152     1.0000 0.50441  0.32007  0.31460  Biso   1.000  C
  C153     1.0000 0.37059  0.39681  0.27570  Biso   1.000  C
  C154     1.0000 0.61296  0.16873  0.31280  Biso   1.000  C
  C155     1.0000 0.57222  0.32058  0.32350  Biso   1.000  C
  C156     1.0000 0.46557  0.16767  0.31510  Biso   1.000  C
  C157     1.0000 0.62750  0.20687  0.33380  Biso   1.000  C
  C158     1.0000 0.45505  0.20564  0.33440  Biso   1.000  C
  C159     1.0000 0.61399  0.30852  0.33390  Biso   1.000  C
  C160     1.0000 0.43179  0.13761  0.30350  Biso   1.000  C
  C161     1.0000 0.64389  0.13920  0.29780  Biso   1.000  C
  C162     1.0000 0.70301  0.09455  0.37930  Biso   1.000  C
  H73      1.0000 0.72430  0.08330  0.44880  Biso   1.000  H
  C163     1.0000 0.57111  0.15624  0.29920  Biso   1.000  C
  C164     1.0000 0.50436  0.15569  0.30120  Biso   1.000  C
  C165     1.0000 0.40796  0.39631  0.37680  Biso   1.000  C
  H74      1.0000 0.41350  0.41630  0.43630  Biso   1.000  H
  C166     1.0000 0.46451  0.30737  0.31960  Biso   1.000  C
  C167     1.0000 0.43063  0.33712  0.30710  Biso   1.000  C
  C168     1.0000 0.68719  0.36861  0.21560  Biso   1.000  C
  H75      1.0000 0.69720  0.36860  0.14750  Biso   1.000  H
  C169     1.0000 0.62798  0.26996  0.34290  Biso   1.000  C
  C170     1.0000 0.55667  0.11679  0.28330  Biso   1.000  C
  H76      1.0000 0.57300  0.09520  0.27420  Biso   1.000  H
  C171     1.0000 0.68484  0.39751  0.40240  Biso   1.000  C
  H77      1.0000 0.69350  0.41730  0.46290  Biso   1.000  H
  C172     1.0000 0.67489  0.12209  0.39620  Biso   1.000  C
  H78      1.0000 0.67720  0.12930  0.47790  Biso   1.000  H
  C173     1.0000 0.45410  0.26879  0.33380  Biso   1.000  C
  C174     1.0000 0.41594  0.21752  0.35670  Biso   1.000  C
  H79      1.0000 0.39480  0.20110  0.36960  Biso   1.000  H
  C175     1.0000 0.64527  0.33875  0.32750  Biso   1.000  C
  C176     1.0000 0.66082  0.33897  0.22910  Biso   1.000  C
  H80      1.0000 0.65330  0.31860  0.17050  Biso   1.000  H
  C177     1.0000 0.55669  0.35996  0.30360  Biso   1.000  C
  H81      1.0000 0.57280  0.38190  0.29660  Biso   1.000  H
  C178     1.0000 0.51558  0.11634  0.28370  Biso   1.000  C
  H82      1.0000 0.49750  0.09440  0.27430  Biso   1.000  H
  C179     1.0000 0.41555  0.25624  0.35560  Biso   1.000  C
  H83      1.0000 0.39390  0.27230  0.36700  Biso   1.000  H
  C180     1.0000 0.36200  0.36643  0.19230  Biso   1.000  C
  H84      1.0000 0.33570  0.36600  0.12390  Biso   1.000  H
  C181     1.0000 0.51514  0.35938  0.29700  Biso   1.000  C
  H85      1.0000 0.49630  0.38090  0.28330  Biso   1.000  H
  C182     1.0000 0.67187  0.25779  0.36190  Biso   1.000  C
  H86      1.0000 0.69630  0.27400  0.37600  Biso   1.000  H
  C183     1.0000 0.65826  0.36800  0.41510  Biso   1.000  C
  H87      1.0000 0.64880  0.36780  0.48440  Biso   1.000  H
  C184     1.0000 0.43763  0.36673  0.39230  Biso   1.000  C
  H88      1.0000 0.46330  0.36680  0.46270  Biso   1.000  H
  C185     1.0000 0.38887  0.09876  0.38940  Biso   1.000  C
  H89      1.0000 0.38200  0.09110  0.45970  Biso   1.000  H
  C186     1.0000 0.67001  0.10153  0.16330  Biso   1.000  C
  H90      1.0000 0.66830  0.09500  0.08170  Biso   1.000  H
  C187     1.0000 0.39159  0.33672  0.20850  Biso   1.000  C
  H91      1.0000 0.38520  0.31590  0.15170  Biso   1.000  H
  C188     1.0000 0.64222  0.12898  0.18120  Biso   1.000  C
  H92      1.0000 0.62170  0.14090  0.11150  Biso   1.000  H
  C189     1.0000 0.67150  0.21903  0.35560  Biso   1.000  C
  H93      1.0000 0.69560  0.20280  0.36390  Biso   1.000  H
  O39      1.0000 0.50373  0.24210  0.10300  Biso   1.000  O
  C190     1.0000 0.42041  0.12670  0.40160  Biso   1.000  C
  H94      1.0000 0.43420  0.13840  0.47980  Biso   1.000  H
  C191     1.0000 0.38016  0.09192  0.17820  Biso   1.000  C
  H95      1.0000 0.36720  0.07950  0.10080  Biso   1.000  H
  C192     1.0000 0.41160  0.11997  0.19180  Biso   1.000  C
  H96      1.0000 0.41930  0.12710  0.12230  Biso   1.000  H
  Na4      1.0000 0.75183  0.42220  0.01239  Biso   1.000  Na
  O40      1.0000 0.52260  0.24170  0.10220  Biso   1.000  O
  Zn5      1.0000 0.03604  0.26158  0.29359  Biso   1.000  Zn
  O41      1.0000 0.26048  0.45865  0.33098  Biso   1.000  O
  O42      1.0000 0.22326  0.45777  0.13141  Biso   1.000  O
  O43      1.0000 0.82404  0.45816  0.35343  Biso   1.000  O
  O44      1.0000 0.23442  0.04144  0.35885  Biso   1.000  O
  O45      1.0000 0.80690  0.06861  0.16088  Biso   1.000  O
  O46      1.0000 0.23639  0.06834  0.18803  Biso   1.000  O
  O47      1.0000 0.81218  0.45887  0.15318  Biso   1.000  O
  O48      1.0000 0.85093  0.04165  0.32978  Biso   1.000  O
  N17      1.0000 0.03960  0.20302  0.32840  Biso   1.000  N
  N18      1.0000 0.10204  0.26166  0.32920  Biso   1.000  N
  N19      1.0000 0.97822  0.26247  0.32610  Biso   1.000  N
  N20      1.0000 0.03854  0.32067  0.30890  Biso   1.000  N
  C193     1.0000 0.22966  0.44588  0.24050  Biso   1.000  C
  C194     1.0000 0.19998  0.41630  0.26220  Biso   1.000  C
  C195     1.0000 0.83282  0.44664  0.26140  Biso   1.000  C
  C196     1.0000 0.22488  0.06885  0.28190  Biso   1.000  C
  C197     1.0000 0.84061  0.06945  0.25440  Biso   1.000  C
  C198     1.0000 0.86795  0.41768  0.27770  Biso   1.000  C
  C199     1.0000 0.19884  0.10183  0.30110  Biso   1.000  C
  C200     1.0000 0.00441  0.17993  0.31460  Biso   1.000  C
  C201     1.0000 0.87059  0.10319  0.27570  Biso   1.000  C
  C202     1.0000 0.11296  0.33127  0.31280  Biso   1.000  C
  C203     1.0000 0.07222  0.17942  0.32350  Biso   1.000  C
  C204     1.0000 0.96557  0.33233  0.31510  Biso   1.000  C
  C205     1.0000 0.12750  0.29313  0.33380  Biso   1.000  C
  C206     1.0000 0.95505  0.29436  0.33440  Biso   1.000  C
  C207     1.0000 0.11399  0.19148  0.33390  Biso   1.000  C
  C208     1.0000 0.93179  0.36239  0.30350  Biso   1.000  C
  C209     1.0000 0.14389  0.36080  0.29780  Biso   1.000  C
  C210     1.0000 0.20301  0.40545  0.37930  Biso   1.000  C
  H97      1.0000 0.22430  0.41670  0.44880  Biso   1.000  H
  C211     1.0000 0.07111  0.34376  0.29920  Biso   1.000  C
  C212     1.0000 0.00436  0.34431  0.30120  Biso   1.000  C
  C213     1.0000 0.90796  0.10369  0.37680  Biso   1.000  C
  H98      1.0000 0.91350  0.08370  0.43630  Biso   1.000  H
  C214     1.0000 0.96451  0.19263  0.31960  Biso   1.000  C
  C215     1.0000 0.93063  0.16288  0.30710  Biso   1.000  C
  C216     1.0000 0.18719  0.13139  0.21560  Biso   1.000  C
  H99      1.0000 0.19720  0.13140  0.14750  Biso   1.000  H
  C217     1.0000 0.12798  0.23004  0.34290  Biso   1.000  C
  C218     1.0000 0.05667  0.38321  0.28330  Biso   1.000  C
  H100     1.0000 0.07300  0.40480  0.27420  Biso   1.000  H
  C219     1.0000 0.18484  0.10249  0.40240  Biso   1.000  C
  H101     1.0000 0.19350  0.08270  0.46290  Biso   1.000  H
  C220     1.0000 0.17489  0.37791  0.39620  Biso   1.000  C
  H102     1.0000 0.17720  0.37070  0.47790  Biso   1.000  H
  C221     1.0000 0.95410  0.23121  0.33380  Biso   1.000  C
  C222     1.0000 0.91594  0.28248  0.35670  Biso   1.000  C
  H103     1.0000 0.89480  0.29890  0.36960  Biso   1.000  H
  C223     1.0000 0.14527  0.16125  0.32750  Biso   1.000  C
  C224     1.0000 0.16082  0.16103  0.22910  Biso   1.000  C
  H104     1.0000 0.15330  0.18140  0.17050  Biso   1.000  H
  C225     1.0000 0.05669  0.14004  0.30360  Biso   1.000  C
  H105     1.0000 0.07280  0.11810  0.29660  Biso   1.000  H
  C226     1.0000 0.01558  0.38366  0.28370  Biso   1.000  C
  H106     1.0000 0.99750  0.40560  0.27430  Biso   1.000  H
  C227     1.0000 0.91555  0.24376  0.35560  Biso   1.000  C
  H107     1.0000 0.89390  0.22770  0.36700  Biso   1.000  H
  C228     1.0000 0.86200  0.13357  0.19230  Biso   1.000  C
  H108     1.0000 0.83570  0.13400  0.12390  Biso   1.000  H
  C229     1.0000 0.01514  0.14062  0.29700  Biso   1.000  C
  H109     1.0000 0.99630  0.11910  0.28330  Biso   1.000  H
  C230     1.0000 0.17187  0.24221  0.36190  Biso   1.000  C
  H110     1.0000 0.19630  0.22600  0.37600  Biso   1.000  H
  C231     1.0000 0.15826  0.13200  0.41510  Biso   1.000  C
  H111     1.0000 0.14880  0.13220  0.48440  Biso   1.000  H
  C232     1.0000 0.93763  0.13327  0.39230  Biso   1.000  C
  H112     1.0000 0.96330  0.13320  0.46270  Biso   1.000  H
  C233     1.0000 0.88887  0.40124  0.38940  Biso   1.000  C
  H113     1.0000 0.88200  0.40890  0.45970  Biso   1.000  H
  C234     1.0000 0.17001  0.39847  0.16330  Biso   1.000  C
  H114     1.0000 0.16830  0.40500  0.08170  Biso   1.000  H
  C235     1.0000 0.89159  0.16328  0.20850  Biso   1.000  C
  H115     1.0000 0.88520  0.18410  0.15170  Biso   1.000  H
  C236     1.0000 0.14222  0.37102  0.18120  Biso   1.000  C
  H116     1.0000 0.12170  0.35910  0.11150  Biso   1.000  H
  C237     1.0000 0.17150  0.28097  0.35560  Biso   1.000  C
  H117     1.0000 0.19560  0.29720  0.36390  Biso   1.000  H
  O49      1.0000 0.00373  0.25790  0.10300  Biso   1.000  O
  C238     1.0000 0.92041  0.37330  0.40160  Biso   1.000  C
  H118     1.0000 0.93420  0.36160  0.47980  Biso   1.000  H
  C239     1.0000 0.88016  0.40808  0.17820  Biso   1.000  C
  H119     1.0000 0.86720  0.42050  0.10080  Biso   1.000  H
  C240     1.0000 0.91160  0.38003  0.19180  Biso   1.000  C
  H120     1.0000 0.91930  0.37290  0.12230  Biso   1.000  H
  Na5      1.0000 0.25183  0.07780  0.01239  Biso   1.000  Na
  O50      1.0000 0.02260  0.25830  0.10220  Biso   1.000  O
  Zn6      1.0000 0.53604  0.76158  0.29359  Biso   1.000  Zn
  O51      1.0000 0.76048  0.95865  0.33098  Biso   1.000  O
  O52      1.0000 0.72326  0.95777  0.13141  Biso   1.000  O
  O53      1.0000 0.32404  0.95816  0.35343  Biso   1.000  O
  O54      1.0000 0.73442  0.54144  0.35885  Biso   1.000  O
  O55      1.0000 0.30690  0.56861  0.16088  Biso   1.000  O
  O56      1.0000 0.73639  0.56834  0.18803  Biso   1.000  O
  O57      1.0000 0.31218  0.95887  0.15318  Biso   1.000  O
  O58      1.0000 0.35093  0.54165  0.32978  Biso   1.000  O
  N21      1.0000 0.53960  0.70302  0.32840  Biso   1.000  N
  N22      1.0000 0.60204  0.76166  0.32920  Biso   1.000  N
  N23      1.0000 0.47822  0.76247  0.32610  Biso   1.000  N
  N24      1.0000 0.53854  0.82067  0.30890  Biso   1.000  N
  C241     1.0000 0.72966  0.94588  0.24050  Biso   1.000  C
  C242     1.0000 0.69998  0.91630  0.26220  Biso   1.000  C
  C243     1.0000 0.33282  0.94664  0.26140  Biso   1.000  C
  C244     1.0000 0.72488  0.56885  0.28190  Biso   1.000  C
  C245     1.0000 0.34061  0.56945  0.25440  Biso   1.000  C
  C246     1.0000 0.36795  0.91768  0.27770  Biso   1.000  C
  C247     1.0000 0.69884  0.60183  0.30110  Biso   1.000  C
  C248     1.0000 0.50441  0.67993  0.31460  Biso   1.000  C
  C249     1.0000 0.37059  0.60319  0.27570  Biso   1.000  C
  C250     1.0000 0.61296  0.83127  0.31280  Biso   1.000  C
  C251     1.0000 0.57222  0.67942  0.32350  Biso   1.000  C
  C252     1.0000 0.46557  0.83233  0.31510  Biso   1.000  C
  C253     1.0000 0.62750  0.79313  0.33380  Biso   1.000  C
  C254     1.0000 0.45505  0.79436  0.33440  Biso   1.000  C
  C255     1.0000 0.61399  0.69148  0.33390  Biso   1.000  C
  C256     1.0000 0.43179  0.86239  0.30350  Biso   1.000  C
  C257     1.0000 0.64389  0.86080  0.29780  Biso   1.000  C
  C258     1.0000 0.70301  0.90545  0.37930  Biso   1.000  C
  H121     1.0000 0.72430  0.91670  0.44880  Biso   1.000  H
  C259     1.0000 0.57111  0.84376  0.29920  Biso   1.000  C
  C260     1.0000 0.50436  0.84431  0.30120  Biso   1.000  C
  C261     1.0000 0.40796  0.60369  0.37680  Biso   1.000  C
  H122     1.0000 0.41350  0.58370  0.43630  Biso   1.000  H
  C262     1.0000 0.46451  0.69263  0.31960  Biso   1.000  C
  C263     1.0000 0.43063  0.66288  0.30710  Biso   1.000  C
  C264     1.0000 0.68719  0.63139  0.21560  Biso   1.000  C
  H123     1.0000 0.69720  0.63140  0.14750  Biso   1.000  H
  C265     1.0000 0.62798  0.73004  0.34290  Biso   1.000  C
  C266     1.0000 0.55667  0.88321  0.28330  Biso   1.000  C
  H124     1.0000 0.57300  0.90480  0.27420  Biso   1.000  H
  C267     1.0000 0.68484  0.60249  0.40240  Biso   1.000  C
  H125     1.0000 0.69350  0.58270  0.46290  Biso   1.000  H
  C268     1.0000 0.67489  0.87791  0.39620  Biso   1.000  C
  H126     1.0000 0.67720  0.87070  0.47790  Biso   1.000  H
  C269     1.0000 0.45410  0.73121  0.33380  Biso   1.000  C
  C270     1.0000 0.41594  0.78248  0.35670  Biso   1.000  C
  H127     1.0000 0.39480  0.79890  0.36960  Biso   1.000  H
  C271     1.0000 0.64527  0.66125  0.32750  Biso   1.000  C
  C272     1.0000 0.66082  0.66103  0.22910  Biso   1.000  C
  H128     1.0000 0.65330  0.68140  0.17050  Biso   1.000  H
  C273     1.0000 0.55669  0.64004  0.30360  Biso   1.000  C
  H129     1.0000 0.57280  0.61810  0.29660  Biso   1.000  H
  C274     1.0000 0.51558  0.88366  0.28370  Biso   1.000  C
  H130     1.0000 0.49750  0.90560  0.27430  Biso   1.000  H
  C275     1.0000 0.41555  0.74376  0.35560  Biso   1.000  C
  H131     1.0000 0.39390  0.72770  0.36700  Biso   1.000  H
  C276     1.0000 0.36200  0.63357  0.19230  Biso   1.000  C
  H132     1.0000 0.33570  0.63400  0.12390  Biso   1.000  H
  C277     1.0000 0.51514  0.64062  0.29700  Biso   1.000  C
  H133     1.0000 0.49630  0.61910  0.28330  Biso   1.000  H
  C278     1.0000 0.67187  0.74221  0.36190  Biso   1.000  C
  H134     1.0000 0.69630  0.72600  0.37600  Biso   1.000  H
  C279     1.0000 0.65826  0.63200  0.41510  Biso   1.000  C
  H135     1.0000 0.64880  0.63220  0.48440  Biso   1.000  H
  C280     1.0000 0.43763  0.63327  0.39230  Biso   1.000  C
  H136     1.0000 0.46330  0.63320  0.46270  Biso   1.000  H
  C281     1.0000 0.38887  0.90124  0.38940  Biso   1.000  C
  H137     1.0000 0.38200  0.90890  0.45970  Biso   1.000  H
  C282     1.0000 0.67001  0.89847  0.16330  Biso   1.000  C
  H138     1.0000 0.66830  0.90500  0.08170  Biso   1.000  H
  C283     1.0000 0.39159  0.66328  0.20850  Biso   1.000  C
  H139     1.0000 0.38520  0.68410  0.15170  Biso   1.000  H
  C284     1.0000 0.64222  0.87102  0.18120  Biso   1.000  C
  H140     1.0000 0.62170  0.85910  0.11150  Biso   1.000  H
  C285     1.0000 0.67150  0.78097  0.35560  Biso   1.000  C
  H141     1.0000 0.69560  0.79720  0.36390  Biso   1.000  H
  O59      1.0000 0.50373  0.75790  0.10300  Biso   1.000  O
  C286     1.0000 0.42041  0.87330  0.40160  Biso   1.000  C
  H142     1.0000 0.43420  0.86160  0.47980  Biso   1.000  H
  C287     1.0000 0.38016  0.90808  0.17820  Biso   1.000  C
  H143     1.0000 0.36720  0.92050  0.10080  Biso   1.000  H
  C288     1.0000 0.41160  0.88003  0.19180  Biso   1.000  C
  H144     1.0000 0.41930  0.87290  0.12230  Biso   1.000  H
  Na6      1.0000 0.75183  0.57780  0.01239  Biso   1.000  Na
  O60      1.0000 0.52260  0.75830  0.10220  Biso   1.000  O
  Zn7      1.0000 0.96396  0.26158  0.70641  Biso   1.000  Zn
  O61      1.0000 0.73952  0.45865  0.66902  Biso   1.000  O
  O62      1.0000 0.77674  0.45777  0.86859  Biso   1.000  O
  O63      1.0000 0.17596  0.45816  0.64657  Biso   1.000  O
  O64      1.0000 0.76558  0.04144  0.64115  Biso   1.000  O
  O65      1.0000 0.19310  0.06861  0.83912  Biso   1.000  O
  O66      1.0000 0.76361  0.06834  0.81197  Biso   1.000  O
  O67      1.0000 0.18782  0.45887  0.84682  Biso   1.000  O
  O68      1.0000 0.14907  0.04165  0.67022  Biso   1.000  O
  N25      1.0000 0.96040  0.20302  0.67160  Biso   1.000  N
  N26      1.0000 0.89796  0.26166  0.67080  Biso   1.000  N
  N27      1.0000 0.02178  0.26247  0.67390  Biso   1.000  N
  N28      1.0000 0.96146  0.32067  0.69110  Biso   1.000  N
  C289     1.0000 0.77034  0.44588  0.75950  Biso   1.000  C
  C290     1.0000 0.80002  0.41630  0.73780  Biso   1.000  C
  C291     1.0000 0.16718  0.44664  0.73860  Biso   1.000  C
  C292     1.0000 0.77512  0.06885  0.71810  Biso   1.000  C
  C293     1.0000 0.15939  0.06945  0.74560  Biso   1.000  C
  C294     1.0000 0.13205  0.41768  0.72230  Biso   1.000  C
  C295     1.0000 0.80116  0.10183  0.69890  Biso   1.000  C
  C296     1.0000 0.99559  0.17993  0.68540  Biso   1.000  C
  C297     1.0000 0.12941  0.10319  0.72430  Biso   1.000  C
  C298     1.0000 0.88704  0.33127  0.68720  Biso   1.000  C
  C299     1.0000 0.92778  0.17942  0.67650  Biso   1.000  C
  C300     1.0000 0.03443  0.33233  0.68490  Biso   1.000  C
  C301     1.0000 0.87250  0.29313  0.66620  Biso   1.000  C
  C302     1.0000 0.04495  0.29436  0.66560  Biso   1.000  C
  C303     1.0000 0.88601  0.19148  0.66610  Biso   1.000  C
  C304     1.0000 0.06821  0.36239  0.69650  Biso   1.000  C
  C305     1.0000 0.85611  0.36080  0.70220  Biso   1.000  C
  C306     1.0000 0.79699  0.40545  0.62070  Biso   1.000  C
  H145     1.0000 0.77570  0.41670  0.55120  Biso   1.000  H
  C307     1.0000 0.92889  0.34376  0.70080  Biso   1.000  C
  C308     1.0000 0.99564  0.34431  0.69880  Biso   1.000  C
  C309     1.0000 0.09204  0.10369  0.62320  Biso   1.000  C
  H146     1.0000 0.08650  0.08370  0.56370  Biso   1.000  H
  C310     1.0000 0.03549  0.19263  0.68040  Biso   1.000  C
  C311     1.0000 0.06937  0.16288  0.69290  Biso   1.000  C
  C312     1.0000 0.81281  0.13139  0.78440  Biso   1.000  C
  H147     1.0000 0.80280  0.13140  0.85250  Biso   1.000  H
  C313     1.0000 0.87202  0.23004  0.65710  Biso   1.000  C
  C314     1.0000 0.94333  0.38321  0.71670  Biso   1.000  C
  H148     1.0000 0.92700  0.40480  0.72580  Biso   1.000  H
  C315     1.0000 0.81516  0.10249  0.59760  Biso   1.000  C
  H149     1.0000 0.80650  0.08270  0.53710  Biso   1.000  H
  C316     1.0000 0.82511  0.37791  0.60380  Biso   1.000  C
  H150     1.0000 0.82280  0.37070  0.52210  Biso   1.000  H
  C317     1.0000 0.04590  0.23121  0.66620  Biso   1.000  C
  C318     1.0000 0.08406  0.28248  0.64330  Biso   1.000  C
  H151     1.0000 0.10520  0.29890  0.63040  Biso   1.000  H
  C319     1.0000 0.85473  0.16125  0.67250  Biso   1.000  C
  C320     1.0000 0.83918  0.16103  0.77090  Biso   1.000  C
  H152     1.0000 0.84670  0.18140  0.82950  Biso   1.000  H
  C321     1.0000 0.94331  0.14004  0.69640  Biso   1.000  C
  H153     1.0000 0.92720  0.11810  0.70340  Biso   1.000  H
  C322     1.0000 0.98442  0.38366  0.71630  Biso   1.000  C
  H154     1.0000 0.00250  0.40560  0.72570  Biso   1.000  H
  C323     1.0000 0.08445  0.24376  0.64440  Biso   1.000  C
  H155     1.0000 0.10610  0.22770  0.63300  Biso   1.000  H
  C324     1.0000 0.13800  0.13357  0.80770  Biso   1.000  C
  H156     1.0000 0.16430  0.13400  0.87610  Biso   1.000  H
  C325     1.0000 0.98486  0.14062  0.70300  Biso   1.000  C
  H157     1.0000 0.00370  0.11910  0.71670  Biso   1.000  H
  C326     1.0000 0.82813  0.24221  0.63810  Biso   1.000  C
  H158     1.0000 0.80370  0.22600  0.62400  Biso   1.000  H
  C327     1.0000 0.84174  0.13200  0.58490  Biso   1.000  C
  H159     1.0000 0.85120  0.13220  0.51560  Biso   1.000  H
  C328     1.0000 0.06237  0.13327  0.60770  Biso   1.000  C
  H160     1.0000 0.03670  0.13320  0.53730  Biso   1.000  H
  C329     1.0000 0.11113  0.40124  0.61060  Biso   1.000  C
  H161     1.0000 0.11800  0.40890  0.54030  Biso   1.000  H
  C330     1.0000 0.82999  0.39847  0.83670  Biso   1.000  C
  H162     1.0000 0.83170  0.40500  0.91830  Biso   1.000  H
  C331     1.0000 0.10841  0.16328  0.79150  Biso   1.000  C
  H163     1.0000 0.11480  0.18410  0.84830  Biso   1.000  H
  C332     1.0000 0.85778  0.37102  0.81880  Biso   1.000  C
  H164     1.0000 0.87830  0.35910  0.88850  Biso   1.000  H
  C333     1.0000 0.82850  0.28097  0.64440  Biso   1.000  C
  H165     1.0000 0.80440  0.29720  0.63610  Biso   1.000  H
  O69      1.0000 0.99627  0.25790  0.89700  Biso   1.000  O
  C334     1.0000 0.07959  0.37330  0.59840  Biso   1.000  C
  H166     1.0000 0.06580  0.36160  0.52020  Biso   1.000  H
  C335     1.0000 0.11984  0.40808  0.82180  Biso   1.000  C
  H167     1.0000 0.13280  0.42050  0.89920  Biso   1.000  H
  C336     1.0000 0.08840  0.38003  0.80820  Biso   1.000  C
  H168     1.0000 0.08070  0.37290  0.87770  Biso   1.000  H
  Na7      1.0000 0.74817  0.07780  0.98761  Biso   1.000  Na
  O70      1.0000 0.97740  0.25830  0.89780  Biso   1.000  O
  Zn8      1.0000 0.46396  0.76158  0.70641  Biso   1.000  Zn
  O71      1.0000 0.23952  0.95865  0.66902  Biso   1.000  O
  O72      1.0000 0.27674  0.95777  0.86859  Biso   1.000  O
  O73      1.0000 0.67596  0.95816  0.64657  Biso   1.000  O
  O74      1.0000 0.26558  0.54144  0.64115  Biso   1.000  O
  O75      1.0000 0.69310  0.56861  0.83912  Biso   1.000  O
  O76      1.0000 0.26361  0.56834  0.81197  Biso   1.000  O
  O77      1.0000 0.68782  0.95887  0.84682  Biso   1.000  O
  O78      1.0000 0.64907  0.54165  0.67022  Biso   1.000  O
  N29      1.0000 0.46040  0.70302  0.67160  Biso   1.000  N
  N30      1.0000 0.39796  0.76166  0.67080  Biso   1.000  N
  N31      1.0000 0.52178  0.76247  0.67390  Biso   1.000  N
  N32      1.0000 0.46146  0.82067  0.69110  Biso   1.000  N
  C337     1.0000 0.27034  0.94588  0.75950  Biso   1.000  C
  C338     1.0000 0.30002  0.91630  0.73780  Biso   1.000  C
  C339     1.0000 0.66718  0.94664  0.73860  Biso   1.000  C
  C340     1.0000 0.27512  0.56885  0.71810  Biso   1.000  C
  C341     1.0000 0.65939  0.56945  0.74560  Biso   1.000  C
  C342     1.0000 0.63205  0.91768  0.72230  Biso   1.000  C
  C343     1.0000 0.30116  0.60183  0.69890  Biso   1.000  C
  C344     1.0000 0.49559  0.67993  0.68540  Biso   1.000  C
  C345     1.0000 0.62941  0.60319  0.72430  Biso   1.000  C
  C346     1.0000 0.38704  0.83127  0.68720  Biso   1.000  C
  C347     1.0000 0.42778  0.67942  0.67650  Biso   1.000  C
  C348     1.0000 0.53443  0.83233  0.68490  Biso   1.000  C
  C349     1.0000 0.37250  0.79313  0.66620  Biso   1.000  C
  C350     1.0000 0.54495  0.79436  0.66560  Biso   1.000  C
  C351     1.0000 0.38601  0.69148  0.66610  Biso   1.000  C
  C352     1.0000 0.56821  0.86239  0.69650  Biso   1.000  C
  C353     1.0000 0.35611  0.86080  0.70220  Biso   1.000  C
  C354     1.0000 0.29699  0.90545  0.62070  Biso   1.000  C
  H169     1.0000 0.27570  0.91670  0.55120  Biso   1.000  H
  C355     1.0000 0.42889  0.84376  0.70080  Biso   1.000  C
  C356     1.0000 0.49564  0.84431  0.69880  Biso   1.000  C
  C357     1.0000 0.59204  0.60369  0.62320  Biso   1.000  C
  H170     1.0000 0.58650  0.58370  0.56370  Biso   1.000  H
  C358     1.0000 0.53549  0.69263  0.68040  Biso   1.000  C
  C359     1.0000 0.56937  0.66288  0.69290  Biso   1.000  C
  C360     1.0000 0.31281  0.63139  0.78440  Biso   1.000  C
  H171     1.0000 0.30280  0.63140  0.85250  Biso   1.000  H
  C361     1.0000 0.37202  0.73004  0.65710  Biso   1.000  C
  C362     1.0000 0.44333  0.88321  0.71670  Biso   1.000  C
  H172     1.0000 0.42700  0.90480  0.72580  Biso   1.000  H
  C363     1.0000 0.31516  0.60249  0.59760  Biso   1.000  C
  H173     1.0000 0.30650  0.58270  0.53710  Biso   1.000  H
  C364     1.0000 0.32511  0.87791  0.60380  Biso   1.000  C
  H174     1.0000 0.32280  0.87070  0.52210  Biso   1.000  H
  C365     1.0000 0.54590  0.73121  0.66620  Biso   1.000  C
  C366     1.0000 0.58406  0.78248  0.64330  Biso   1.000  C
  H175     1.0000 0.60520  0.79890  0.63040  Biso   1.000  H
  C367     1.0000 0.35473  0.66125  0.67250  Biso   1.000  C
  C368     1.0000 0.33918  0.66103  0.77090  Biso   1.000  C
  H176     1.0000 0.34670  0.68140  0.82950  Biso   1.000  H
  C369     1.0000 0.44331  0.64004  0.69640  Biso   1.000  C
  H177     1.0000 0.42720  0.61810  0.70340  Biso   1.000  H
  C370     1.0000 0.48442  0.88366  0.71630  Biso   1.000  C
  H178     1.0000 0.50250  0.90560  0.72570  Biso   1.000  H
  C371     1.0000 0.58445  0.74376  0.64440  Biso   1.000  C
  H179     1.0000 0.60610  0.72770  0.63300  Biso   1.000  H
  C372     1.0000 0.63800  0.63357  0.80770  Biso   1.000  C
  H180     1.0000 0.66430  0.63400  0.87610  Biso   1.000  H
  C373     1.0000 0.48486  0.64062  0.70300  Biso   1.000  C
  H181     1.0000 0.50370  0.61910  0.71670  Biso   1.000  H
  C374     1.0000 0.32813  0.74221  0.63810  Biso   1.000  C
  H182     1.0000 0.30370  0.72600  0.62400  Biso   1.000  H
  C375     1.0000 0.34174  0.63200  0.58490  Biso   1.000  C
  H183     1.0000 0.35120  0.63220  0.51560  Biso   1.000  H
  C376     1.0000 0.56237  0.63327  0.60770  Biso   1.000  C
  H184     1.0000 0.53670  0.63320  0.53730  Biso   1.000  H
  C377     1.0000 0.61113  0.90124  0.61060  Biso   1.000  C
  H185     1.0000 0.61800  0.90890  0.54030  Biso   1.000  H
  C378     1.0000 0.32999  0.89847  0.83670  Biso   1.000  C
  H186     1.0000 0.33170  0.90500  0.91830  Biso   1.000  H
  C379     1.0000 0.60841  0.66328  0.79150  Biso   1.000  C
  H187     1.0000 0.61480  0.68410  0.84830  Biso   1.000  H
  C380     1.0000 0.35778  0.87102  0.81880  Biso   1.000  C
  H188     1.0000 0.37830  0.85910  0.88850  Biso   1.000  H
  C381     1.0000 0.32850  0.78097  0.64440  Biso   1.000  C
  H189     1.0000 0.30440  0.79720  0.63610  Biso   1.000  H
  O79      1.0000 0.49627  0.75790  0.89700  Biso   1.000  O
  C382     1.0000 0.57959  0.87330  0.59840  Biso   1.000  C
  H190     1.0000 0.56580  0.86160  0.52020  Biso   1.000  H
  C383     1.0000 0.61984  0.90808  0.82180  Biso   1.000  C
  H191     1.0000 0.63280  0.92050  0.89920  Biso   1.000  H
  C384     1.0000 0.58840  0.88003  0.80820  Biso   1.000  C
  H192     1.0000 0.58070  0.87290  0.87770  Biso   1.000  H
  Na8      1.0000 0.24817  0.57780  0.98761  Biso   1.000  Na
  O80      1.0000 0.47740  0.75830  0.89780  Biso   1.000  O
  Gd1      1.0000 0.20768  0.00000  0.79316  Biso   1.000  Gd
  Gd2      1.0000 0.26305  0.00000  0.23244  Biso   1.000  Gd
  O81      1.0000 0.22880  0.00000  0.01220  Biso   1.000  O
  O82      1.0000 0.18470  0.00000  0.12040  Biso   1.000  O
  O83      1.0000 0.15816  0.00000  0.91190  Biso   1.000  O
  N33      1.0000 0.18855  0.00000  0.01550  Biso   1.000  N
  Na9      1.0000 0.76576  0.00000  0.49117  Biso   1.000  Na
  Gd3      1.0000 0.70768  0.50000  0.79316  Biso   1.000  Gd
  Gd4      1.0000 0.76305  0.50000  0.23244  Biso   1.000  Gd
  O84      1.0000 0.72880  0.50000  0.01220  Biso   1.000  O
  O85      1.0000 0.68470  0.50000  0.12040  Biso   1.000  O
  O86      1.0000 0.65816  0.50000  0.91190  Biso   1.000  O
  N34      1.0000 0.68855  0.50000  0.01550  Biso   1.000  N
  Na10     1.0000 0.26576  0.50000  0.49117  Biso   1.000  Na
  Gd5      1.0000 0.79232  0.00000  0.20684  Biso   1.000  Gd
  Gd6      1.0000 0.73695  0.00000  0.76756  Biso   1.000  Gd
  O87      1.0000 0.77120  0.00000  0.98780  Biso   1.000  O
  O88      1.0000 0.81530  0.00000  0.87960  Biso   1.000  O
  O89      1.0000 0.84184  0.00000  0.08810  Biso   1.000  O
  N35      1.0000 0.81145  0.00000  0.98450  Biso   1.000  N
  Na11     1.0000 0.23424  0.00000  0.50883  Biso   1.000  Na
  Gd7      1.0000 0.29232  0.50000  0.20684  Biso   1.000  Gd
  Gd8      1.0000 0.23695  0.50000  0.76756  Biso   1.000  Gd
  O90      1.0000 0.27120  0.50000  0.98780  Biso   1.000  O
  O91      1.0000 0.31530  0.50000  0.87960  Biso   1.000  O
  O92      1.0000 0.34184  0.50000  0.08810  Biso   1.000  O
  N36      1.0000 0.31145  0.50000  0.98450  Biso   1.000  N
  Na12     1.0000 0.73424  0.50000  0.50883  Biso   1.000  Na
  C385     1.0000 0.00000  0.73714  0.00000  Biso   1.000  C
  C386     1.0000 0.50000  0.23714  0.00000  Biso   1.000  C
  C387     1.0000 0.00000  0.26286  0.00000  Biso   1.000  C
  C388     1.0000 0.50000  0.76286  0.00000  Biso   1.000  C
  Na13     1.0000 0.82442  0.50000  0.00719  Biso   1.000  Na
  Na14     1.0000 0.32442  0.00000  0.00719  Biso   1.000  Na
  Na15     1.0000 0.17558  0.50000  0.99281  Biso   1.000  Na
  Na16     1.0000 0.67558  0.00000  0.99281  Biso   1.000  Na
