data_image0
_cell_length_a       20.6958
_cell_length_b       27.2441
_cell_length_c       31.2425
_cell_angle_alpha    90
_cell_angle_beta     90
_cell_angle_gamma    90

_symmetry_space_group_name_H-M    "P 1"
_symmetry_int_tables_number       1

loop_
  _symmetry_equiv_pos_as_xyz
  'x, y, z'

loop_
  _atom_site_label
  _atom_site_occupancy
  _atom_site_fract_x
  _atom_site_fract_y
  _atom_site_fract_z
  _atom_site_thermal_displace_type
  _atom_site_B_iso_or_equiv
  _atom_site_type_symbol
  N1       1.0000 0.07090  0.05267  0.25280  Biso   1.000  N
  C1       1.0000 0.11840  0.04800  0.28184  Biso   1.000  C
  C2       1.0000 0.07320  0.09090  0.22650  Biso   1.000  C
  H1       1.0000 0.11770  0.02140  0.30050  Biso   1.000  H
  C3       1.0000 0.16800  0.08150  0.28490  Biso   1.000  C
  C4       1.0000 0.12320  0.12320  0.22790  Biso   1.000  C
  H2       1.0000 0.04020  0.09570  0.20670  Biso   1.000  H
  H3       1.0000 0.19980  0.07770  0.30560  Biso   1.000  H
  C5       1.0000 0.17030  0.11950  0.25790  Biso   1.000  C
  H4       1.0000 0.12520  0.14840  0.20790  Biso   1.000  H
  C6       1.0000 0.22340  0.15710  0.25800  Biso   1.000  C
  O1       1.0000 0.22310  0.19177  0.23649  Biso   1.000  O
  O2       1.0000 0.26830  0.14497  0.28714  Biso   1.000  O
  C7       1.0000 0.31840  0.18060  0.29430  Biso   1.000  C
  H5       1.0000 0.34060  0.17330  0.32090  Biso   1.000  H
  H6       1.0000 0.29940  0.21300  0.29670  Biso   1.000  H
  C8       1.0000 0.36640  0.18010  0.25760  Biso   1.000  C
  C9       1.0000 0.39270  0.22320  0.24350  Biso   1.000  C
  C10      1.0000 0.38870  0.13860  0.24020  Biso   1.000  C
  C11      1.0000 0.43720  0.22480  0.21240  Biso   1.000  C
  H7       1.0000 0.37930  0.25250  0.25600  Biso   1.000  H
  H8       1.0000 0.37190  0.10890  0.24980  Biso   1.000  H
  C12      1.0000 0.43340  0.13770  0.21040  Biso   1.000  C
  C13      1.0000 0.46340  0.27380  0.19690  Biso   1.000  C
  C14      1.0000 0.45890  0.18180  0.19390  Biso   1.000  C
  C15      1.0000 0.45240  0.08670  0.18980  Biso   1.000  C
  O3       1.0000 0.42090  0.29068  0.16215  Biso   1.000  O
  H9       1.0000 0.46360  0.29750  0.22010  Biso   1.000  H
  H10      1.0000 0.50730  0.27000  0.18640  Biso   1.000  H
  H11      1.0000 0.48880  0.18190  0.17180  Biso   1.000  H
  O4       1.0000 0.50410  0.09650  0.15640  Biso   1.000  O
  H12      1.0000 0.46880  0.06460  0.21160  Biso   1.000  H
  H13      1.0000 0.41490  0.07160  0.17650  Biso   1.000  H
  C16      1.0000 0.42910  0.33470  0.14660  Biso   1.000  C
  C17      1.0000 0.54780  0.06310  0.15640  Biso   1.000  C
  O5       1.0000 0.46790  0.36169  0.16054  Biso   1.000  O
  C18      1.0000 0.38390  0.34520  0.11250  Biso   1.000  C
  O6       1.0000 0.57460  0.04780  0.18940  Biso   1.000  O
  C19      1.0000 0.58200  0.07730  0.11440  Biso   1.000  C
  C20      1.0000 0.40210  0.37600  0.08710  Biso   1.000  C
  C21      1.0000 0.32390  0.32090  0.11410  Biso   1.000  C
  C22      1.0000 0.59930  0.12500  0.09950  Biso   1.000  C
  C23      1.0000 0.59300  0.04290  0.08040  Biso   1.000  C
  C24      1.0000 0.36550  0.38940  0.05520  Biso   1.000  C
  H14      1.0000 0.44270  0.39010  0.09040  Biso   1.000  H
  H15      1.0000 0.31210  0.29860  0.13530  Biso   1.000  H
  C25      1.0000 0.28450  0.33440  0.07990  Biso   1.000  C
  C26      1.0000 0.64820  0.12870  0.06740  Biso   1.000  C
  H16      1.0000 0.57940  0.15300  0.11040  Biso   1.000  H
  H17      1.0000 0.56690  0.01520  0.07930  Biso   1.000  H
  C27      1.0000 0.64150  0.04840  0.04800  Biso   1.000  C
  N2       1.0000 0.30100  0.37020  0.04622  Biso   1.000  N
  H18      1.0000 0.38180  0.41310  0.03670  Biso   1.000  H
  H19      1.0000 0.24420  0.31950  0.07810  Biso   1.000  H
  N3       1.0000 0.67190  0.09550  0.04580  Biso   1.000  N
  H20      1.0000 0.66410  0.16000  0.06220  Biso   1.000  H
  H21      1.0000 0.65260  0.02290  0.02960  Biso   1.000  H
  C28      1.0000 0.31990  0.40160  0.07060  Biso   1.000  C
  H22      1.0000 0.30480  0.43340  0.06610  Biso   1.000  H
  C29      1.0000 0.36160  0.39450  0.10410  Biso   1.000  C
  H23      1.0000 0.37520  0.42070  0.12100  Biso   1.000  H
  C30      1.0000 0.36520  0.31160  0.08100  Biso   1.000  C
  H24      1.0000 0.37870  0.27920  0.08380  Biso   1.000  H
  C31      1.0000 0.32910  0.32370  0.04700  Biso   1.000  C
  H25      1.0000 0.32280  0.30170  0.02470  Biso   1.000  H
  C32      1.0000 0.60750  0.11750  0.05450  Biso   1.000  C
  H26      1.0000 0.59070  0.13970  0.03480  Biso   1.000  H
  C33      1.0000 0.57150  0.10640  0.09030  Biso   1.000  C
  H27      1.0000 0.53460  0.12520  0.09490  Biso   1.000  H
  C34      1.0000 0.64610  0.05770  0.11630  Biso   1.000  C
  H28      1.0000 0.65970  0.04140  0.14090  Biso   1.000  H
  C35      1.0000 0.68830  0.06270  0.08200  Biso   1.000  C
  H29      1.0000 0.72710  0.04540  0.08180  Biso   1.000  H
  N4       1.0000 0.57090  0.55267  0.75280  Biso   1.000  N
  C36      1.0000 0.61840  0.54800  0.78184  Biso   1.000  C
  C37      1.0000 0.57320  0.59090  0.72650  Biso   1.000  C
  H30      1.0000 0.61770  0.52140  0.80050  Biso   1.000  H
  C38      1.0000 0.66800  0.58150  0.78490  Biso   1.000  C
  C39      1.0000 0.62320  0.62320  0.72790  Biso   1.000  C
  H31      1.0000 0.54020  0.59570  0.70670  Biso   1.000  H
  H32      1.0000 0.69980  0.57770  0.80560  Biso   1.000  H
  C40      1.0000 0.67030  0.61950  0.75790  Biso   1.000  C
  H33      1.0000 0.62520  0.64840  0.70790  Biso   1.000  H
  C41      1.0000 0.72340  0.65710  0.75800  Biso   1.000  C
  O7       1.0000 0.72310  0.69177  0.73649  Biso   1.000  O
  O8       1.0000 0.76830  0.64497  0.78714  Biso   1.000  O
  C42      1.0000 0.81840  0.68060  0.79430  Biso   1.000  C
  H34      1.0000 0.84060  0.67330  0.82090  Biso   1.000  H
  H35      1.0000 0.79940  0.71300  0.79670  Biso   1.000  H
  C43      1.0000 0.86640  0.68010  0.75760  Biso   1.000  C
  C44      1.0000 0.89270  0.72320  0.74350  Biso   1.000  C
  C45      1.0000 0.88870  0.63860  0.74020  Biso   1.000  C
  C46      1.0000 0.93720  0.72480  0.71240  Biso   1.000  C
  H36      1.0000 0.87930  0.75250  0.75600  Biso   1.000  H
  H37      1.0000 0.87190  0.60890  0.74980  Biso   1.000  H
  C47      1.0000 0.93340  0.63770  0.71040  Biso   1.000  C
  C48      1.0000 0.96340  0.77380  0.69690  Biso   1.000  C
  C49      1.0000 0.95890  0.68180  0.69390  Biso   1.000  C
  C50      1.0000 0.95240  0.58670  0.68980  Biso   1.000  C
  O9       1.0000 0.92090  0.79068  0.66215  Biso   1.000  O
  H38      1.0000 0.96360  0.79750  0.72010  Biso   1.000  H
  H39      1.0000 0.00730  0.77000  0.68640  Biso   1.000  H
  H40      1.0000 0.98880  0.68190  0.67180  Biso   1.000  H
  O10      1.0000 0.00410  0.59650  0.65640  Biso   1.000  O
  H41      1.0000 0.96880  0.56460  0.71160  Biso   1.000  H
  H42      1.0000 0.91490  0.57160  0.67650  Biso   1.000  H
  C51      1.0000 0.92910  0.83470  0.64660  Biso   1.000  C
  C52      1.0000 0.04780  0.56310  0.65640  Biso   1.000  C
  O11      1.0000 0.96790  0.86169  0.66054  Biso   1.000  O
  C53      1.0000 0.88390  0.84520  0.61250  Biso   1.000  C
  O12      1.0000 0.07460  0.54780  0.68940  Biso   1.000  O
  C54      1.0000 0.08200  0.57730  0.61440  Biso   1.000  C
  C55      1.0000 0.90210  0.87600  0.58710  Biso   1.000  C
  C56      1.0000 0.82390  0.82090  0.61410  Biso   1.000  C
  C57      1.0000 0.09930  0.62500  0.59950  Biso   1.000  C
  C58      1.0000 0.09300  0.54290  0.58040  Biso   1.000  C
  C59      1.0000 0.86550  0.88940  0.55520  Biso   1.000  C
  H43      1.0000 0.94270  0.89010  0.59040  Biso   1.000  H
  H44      1.0000 0.81210  0.79860  0.63530  Biso   1.000  H
  C60      1.0000 0.78450  0.83440  0.57990  Biso   1.000  C
  C61      1.0000 0.14820  0.62870  0.56740  Biso   1.000  C
  H45      1.0000 0.07940  0.65300  0.61040  Biso   1.000  H
  H46      1.0000 0.06690  0.51520  0.57930  Biso   1.000  H
  C62      1.0000 0.14150  0.54840  0.54800  Biso   1.000  C
  N5       1.0000 0.80100  0.87020  0.54622  Biso   1.000  N
  H47      1.0000 0.88180  0.91310  0.53670  Biso   1.000  H
  H48      1.0000 0.74420  0.81950  0.57810  Biso   1.000  H
  N6       1.0000 0.17190  0.59550  0.54580  Biso   1.000  N
  H49      1.0000 0.16410  0.66000  0.56220  Biso   1.000  H
  H50      1.0000 0.15260  0.52290  0.52960  Biso   1.000  H
  C63      1.0000 0.81990  0.90160  0.57060  Biso   1.000  C
  H51      1.0000 0.80480  0.93340  0.56610  Biso   1.000  H
  C64      1.0000 0.86160  0.89450  0.60410  Biso   1.000  C
  H52      1.0000 0.87520  0.92070  0.62100  Biso   1.000  H
  C65      1.0000 0.86520  0.81160  0.58100  Biso   1.000  C
  H53      1.0000 0.87870  0.77920  0.58380  Biso   1.000  H
  C66      1.0000 0.82910  0.82370  0.54700  Biso   1.000  C
  H54      1.0000 0.82280  0.80170  0.52470  Biso   1.000  H
  C67      1.0000 0.10750  0.61750  0.55450  Biso   1.000  C
  H55      1.0000 0.09070  0.63970  0.53480  Biso   1.000  H
  C68      1.0000 0.07150  0.60640  0.59030  Biso   1.000  C
  H56      1.0000 0.03460  0.62520  0.59490  Biso   1.000  H
  C69      1.0000 0.14610  0.55770  0.61630  Biso   1.000  C
  H57      1.0000 0.15970  0.54140  0.64090  Biso   1.000  H
  C70      1.0000 0.18830  0.56270  0.58200  Biso   1.000  C
  H58      1.0000 0.22710  0.54540  0.58180  Biso   1.000  H
  N7       1.0000 0.92910  0.94733  0.25280  Biso   1.000  N
  C71      1.0000 0.88160  0.95200  0.28184  Biso   1.000  C
  C72      1.0000 0.92680  0.90910  0.22650  Biso   1.000  C
  H59      1.0000 0.88230  0.97860  0.30050  Biso   1.000  H
  C73      1.0000 0.83200  0.91850  0.28490  Biso   1.000  C
  C74      1.0000 0.87680  0.87680  0.22790  Biso   1.000  C
  H60      1.0000 0.95980  0.90430  0.20670  Biso   1.000  H
  H61      1.0000 0.80020  0.92230  0.30560  Biso   1.000  H
  C75      1.0000 0.82970  0.88050  0.25790  Biso   1.000  C
  H62      1.0000 0.87480  0.85160  0.20790  Biso   1.000  H
  C76      1.0000 0.77660  0.84290  0.25800  Biso   1.000  C
  O13      1.0000 0.77690  0.80823  0.23649  Biso   1.000  O
  O14      1.0000 0.73170  0.85503  0.28714  Biso   1.000  O
  C77      1.0000 0.68160  0.81940  0.29430  Biso   1.000  C
  H63      1.0000 0.65940  0.82670  0.32090  Biso   1.000  H
  H64      1.0000 0.70060  0.78700  0.29670  Biso   1.000  H
  C78      1.0000 0.63360  0.81990  0.25760  Biso   1.000  C
  C79      1.0000 0.60730  0.77680  0.24350  Biso   1.000  C
  C80      1.0000 0.61130  0.86140  0.24020  Biso   1.000  C
  C81      1.0000 0.56280  0.77520  0.21240  Biso   1.000  C
  H65      1.0000 0.62070  0.74750  0.25600  Biso   1.000  H
  H66      1.0000 0.62810  0.89110  0.24980  Biso   1.000  H
  C82      1.0000 0.56660  0.86230  0.21040  Biso   1.000  C
  C83      1.0000 0.53660  0.72620  0.19690  Biso   1.000  C
  C84      1.0000 0.54110  0.81820  0.19390  Biso   1.000  C
  C85      1.0000 0.54760  0.91330  0.18980  Biso   1.000  C
  O15      1.0000 0.57910  0.70932  0.16215  Biso   1.000  O
  H67      1.0000 0.53640  0.70250  0.22010  Biso   1.000  H
  H68      1.0000 0.49270  0.73000  0.18640  Biso   1.000  H
  H69      1.0000 0.51120  0.81810  0.17180  Biso   1.000  H
  O16      1.0000 0.49590  0.90350  0.15640  Biso   1.000  O
  H70      1.0000 0.53120  0.93540  0.21160  Biso   1.000  H
  H71      1.0000 0.58510  0.92840  0.17650  Biso   1.000  H
  C86      1.0000 0.57090  0.66530  0.14660  Biso   1.000  C
  C87      1.0000 0.45220  0.93690  0.15640  Biso   1.000  C
  O17      1.0000 0.53210  0.63831  0.16054  Biso   1.000  O
  C88      1.0000 0.61610  0.65480  0.11250  Biso   1.000  C
  O18      1.0000 0.42540  0.95220  0.18940  Biso   1.000  O
  C89      1.0000 0.41800  0.92270  0.11440  Biso   1.000  C
  C90      1.0000 0.59790  0.62400  0.08710  Biso   1.000  C
  C91      1.0000 0.67610  0.67910  0.11410  Biso   1.000  C
  C92      1.0000 0.40070  0.87500  0.09950  Biso   1.000  C
  C93      1.0000 0.40700  0.95710  0.08040  Biso   1.000  C
  C94      1.0000 0.63450  0.61060  0.05520  Biso   1.000  C
  H72      1.0000 0.55730  0.60990  0.09040  Biso   1.000  H
  H73      1.0000 0.68790  0.70140  0.13530  Biso   1.000  H
  C95      1.0000 0.71550  0.66560  0.07990  Biso   1.000  C
  C96      1.0000 0.35180  0.87130  0.06740  Biso   1.000  C
  H74      1.0000 0.42060  0.84700  0.11040  Biso   1.000  H
  H75      1.0000 0.43310  0.98480  0.07930  Biso   1.000  H
  C97      1.0000 0.35850  0.95160  0.04800  Biso   1.000  C
  N8       1.0000 0.69900  0.62980  0.04622  Biso   1.000  N
  H76      1.0000 0.61820  0.58690  0.03670  Biso   1.000  H
  H77      1.0000 0.75580  0.68050  0.07810  Biso   1.000  H
  N9       1.0000 0.32810  0.90450  0.04580  Biso   1.000  N
  H78      1.0000 0.33590  0.84000  0.06220  Biso   1.000  H
  H79      1.0000 0.34740  0.97710  0.02960  Biso   1.000  H
  C98      1.0000 0.68010  0.59840  0.07060  Biso   1.000  C
  H80      1.0000 0.69520  0.56660  0.06610  Biso   1.000  H
  C99      1.0000 0.63840  0.60550  0.10410  Biso   1.000  C
  H81      1.0000 0.62480  0.57930  0.12100  Biso   1.000  H
  C100     1.0000 0.63480  0.68840  0.08100  Biso   1.000  C
  H82      1.0000 0.62130  0.72080  0.08380  Biso   1.000  H
  C101     1.0000 0.67090  0.67630  0.04700  Biso   1.000  C
  H83      1.0000 0.67720  0.69830  0.02470  Biso   1.000  H
  C102     1.0000 0.39250  0.88250  0.05450  Biso   1.000  C
  H84      1.0000 0.40930  0.86030  0.03480  Biso   1.000  H
  C103     1.0000 0.42850  0.89360  0.09030  Biso   1.000  C
  H85      1.0000 0.46540  0.87480  0.09490  Biso   1.000  H
  C104     1.0000 0.35390  0.94230  0.11630  Biso   1.000  C
  H86      1.0000 0.34030  0.95860  0.14090  Biso   1.000  H
  C105     1.0000 0.31170  0.93730  0.08200  Biso   1.000  C
  H87      1.0000 0.27290  0.95460  0.08180  Biso   1.000  H
  N10      1.0000 0.42910  0.44733  0.75280  Biso   1.000  N
  C106     1.0000 0.38160  0.45200  0.78184  Biso   1.000  C
  C107     1.0000 0.42680  0.40910  0.72650  Biso   1.000  C
  H88      1.0000 0.38230  0.47860  0.80050  Biso   1.000  H
  C108     1.0000 0.33200  0.41850  0.78490  Biso   1.000  C
  C109     1.0000 0.37680  0.37680  0.72790  Biso   1.000  C
  H89      1.0000 0.45980  0.40430  0.70670  Biso   1.000  H
  H90      1.0000 0.30020  0.42230  0.80560  Biso   1.000  H
  C110     1.0000 0.32970  0.38050  0.75790  Biso   1.000  C
  H91      1.0000 0.37480  0.35160  0.70790  Biso   1.000  H
  C111     1.0000 0.27660  0.34290  0.75800  Biso   1.000  C
  O19      1.0000 0.27690  0.30823  0.73649  Biso   1.000  O
  O20      1.0000 0.23170  0.35503  0.78714  Biso   1.000  O
  C112     1.0000 0.18160  0.31940  0.79430  Biso   1.000  C
  H92      1.0000 0.15940  0.32670  0.82090  Biso   1.000  H
  H93      1.0000 0.20060  0.28700  0.79670  Biso   1.000  H
  C113     1.0000 0.13360  0.31990  0.75760  Biso   1.000  C
  C114     1.0000 0.10730  0.27680  0.74350  Biso   1.000  C
  C115     1.0000 0.11130  0.36140  0.74020  Biso   1.000  C
  C116     1.0000 0.06280  0.27520  0.71240  Biso   1.000  C
  H94      1.0000 0.12070  0.24750  0.75600  Biso   1.000  H
  H95      1.0000 0.12810  0.39110  0.74980  Biso   1.000  H
  C117     1.0000 0.06660  0.36230  0.71040  Biso   1.000  C
  C118     1.0000 0.03660  0.22620  0.69690  Biso   1.000  C
  C119     1.0000 0.04110  0.31820  0.69390  Biso   1.000  C
  C120     1.0000 0.04760  0.41330  0.68980  Biso   1.000  C
  O21      1.0000 0.07910  0.20932  0.66215  Biso   1.000  O
  H96      1.0000 0.03640  0.20250  0.72010  Biso   1.000  H
  H97      1.0000 0.99270  0.23000  0.68640  Biso   1.000  H
  H98      1.0000 0.01120  0.31810  0.67180  Biso   1.000  H
  O22      1.0000 0.99590  0.40350  0.65640  Biso   1.000  O
  H99      1.0000 0.03120  0.43540  0.71160  Biso   1.000  H
  H100     1.0000 0.08510  0.42840  0.67650  Biso   1.000  H
  C121     1.0000 0.07090  0.16530  0.64660  Biso   1.000  C
  C122     1.0000 0.95220  0.43690  0.65640  Biso   1.000  C
  O23      1.0000 0.03210  0.13831  0.66054  Biso   1.000  O
  C123     1.0000 0.11610  0.15480  0.61250  Biso   1.000  C
  O24      1.0000 0.92540  0.45220  0.68940  Biso   1.000  O
  C124     1.0000 0.91800  0.42270  0.61440  Biso   1.000  C
  C125     1.0000 0.09790  0.12400  0.58710  Biso   1.000  C
  C126     1.0000 0.17610  0.17910  0.61410  Biso   1.000  C
  C127     1.0000 0.90070  0.37500  0.59950  Biso   1.000  C
  C128     1.0000 0.90700  0.45710  0.58040  Biso   1.000  C
  C129     1.0000 0.13450  0.11060  0.55520  Biso   1.000  C
  H101     1.0000 0.05730  0.10990  0.59040  Biso   1.000  H
  H102     1.0000 0.18790  0.20140  0.63530  Biso   1.000  H
  C130     1.0000 0.21550  0.16560  0.57990  Biso   1.000  C
  C131     1.0000 0.85180  0.37130  0.56740  Biso   1.000  C
  H103     1.0000 0.92060  0.34700  0.61040  Biso   1.000  H
  H104     1.0000 0.93310  0.48480  0.57930  Biso   1.000  H
  C132     1.0000 0.85850  0.45160  0.54800  Biso   1.000  C
  N11      1.0000 0.19900  0.12980  0.54622  Biso   1.000  N
  H105     1.0000 0.11820  0.08690  0.53670  Biso   1.000  H
  H106     1.0000 0.25580  0.18050  0.57810  Biso   1.000  H
  N12      1.0000 0.82810  0.40450  0.54580  Biso   1.000  N
  H107     1.0000 0.83590  0.34000  0.56220  Biso   1.000  H
  H108     1.0000 0.84740  0.47710  0.52960  Biso   1.000  H
  C133     1.0000 0.18010  0.09840  0.57060  Biso   1.000  C
  H109     1.0000 0.19520  0.06660  0.56610  Biso   1.000  H
  C134     1.0000 0.13840  0.10550  0.60410  Biso   1.000  C
  H110     1.0000 0.12480  0.07930  0.62100  Biso   1.000  H
  C135     1.0000 0.13480  0.18840  0.58100  Biso   1.000  C
  H111     1.0000 0.12130  0.22080  0.58380  Biso   1.000  H
  C136     1.0000 0.17090  0.17630  0.54700  Biso   1.000  C
  H112     1.0000 0.17720  0.19830  0.52470  Biso   1.000  H
  C137     1.0000 0.89250  0.38250  0.55450  Biso   1.000  C
  H113     1.0000 0.90930  0.36030  0.53480  Biso   1.000  H
  C138     1.0000 0.92850  0.39360  0.59030  Biso   1.000  C
  H114     1.0000 0.96540  0.37480  0.59490  Biso   1.000  H
  C139     1.0000 0.85390  0.44230  0.61630  Biso   1.000  C
  H115     1.0000 0.84030  0.45860  0.64090  Biso   1.000  H
  C140     1.0000 0.81170  0.43730  0.58200  Biso   1.000  C
  H116     1.0000 0.77290  0.45460  0.58180  Biso   1.000  H
  N13      1.0000 0.42910  0.55267  0.74720  Biso   1.000  N
  C141     1.0000 0.38160  0.54800  0.71816  Biso   1.000  C
  C142     1.0000 0.42680  0.59090  0.77350  Biso   1.000  C
  H117     1.0000 0.38230  0.52140  0.69950  Biso   1.000  H
  C143     1.0000 0.33200  0.58150  0.71510  Biso   1.000  C
  C144     1.0000 0.37680  0.62320  0.77210  Biso   1.000  C
  H118     1.0000 0.45980  0.59570  0.79330  Biso   1.000  H
  H119     1.0000 0.30020  0.57770  0.69440  Biso   1.000  H
  C145     1.0000 0.32970  0.61950  0.74210  Biso   1.000  C
  H120     1.0000 0.37480  0.64840  0.79210  Biso   1.000  H
  C146     1.0000 0.27660  0.65710  0.74200  Biso   1.000  C
  O25      1.0000 0.27690  0.69177  0.76351  Biso   1.000  O
  O26      1.0000 0.23170  0.64497  0.71286  Biso   1.000  O
  C147     1.0000 0.18160  0.68060  0.70570  Biso   1.000  C
  H121     1.0000 0.15940  0.67330  0.67910  Biso   1.000  H
  H122     1.0000 0.20060  0.71300  0.70330  Biso   1.000  H
  C148     1.0000 0.13360  0.68010  0.74240  Biso   1.000  C
  C149     1.0000 0.10730  0.72320  0.75650  Biso   1.000  C
  C150     1.0000 0.11130  0.63860  0.75980  Biso   1.000  C
  C151     1.0000 0.06280  0.72480  0.78760  Biso   1.000  C
  H123     1.0000 0.12070  0.75250  0.74400  Biso   1.000  H
  H124     1.0000 0.12810  0.60890  0.75020  Biso   1.000  H
  C152     1.0000 0.06660  0.63770  0.78960  Biso   1.000  C
  C153     1.0000 0.03660  0.77380  0.80310  Biso   1.000  C
  C154     1.0000 0.04110  0.68180  0.80610  Biso   1.000  C
  C155     1.0000 0.04760  0.58670  0.81020  Biso   1.000  C
  O27      1.0000 0.07910  0.79068  0.83785  Biso   1.000  O
  H125     1.0000 0.03640  0.79750  0.77990  Biso   1.000  H
  H126     1.0000 0.99270  0.77000  0.81360  Biso   1.000  H
  H127     1.0000 0.01120  0.68190  0.82820  Biso   1.000  H
  O28      1.0000 0.99590  0.59650  0.84360  Biso   1.000  O
  H128     1.0000 0.03120  0.56460  0.78840  Biso   1.000  H
  H129     1.0000 0.08510  0.57160  0.82350  Biso   1.000  H
  C156     1.0000 0.07090  0.83470  0.85340  Biso   1.000  C
  C157     1.0000 0.95220  0.56310  0.84360  Biso   1.000  C
  O29      1.0000 0.03210  0.86169  0.83946  Biso   1.000  O
  C158     1.0000 0.11610  0.84520  0.88750  Biso   1.000  C
  O30      1.0000 0.92540  0.54780  0.81060  Biso   1.000  O
  C159     1.0000 0.91800  0.57730  0.88560  Biso   1.000  C
  C160     1.0000 0.09790  0.87600  0.91290  Biso   1.000  C
  C161     1.0000 0.17610  0.82090  0.88590  Biso   1.000  C
  C162     1.0000 0.90070  0.62500  0.90050  Biso   1.000  C
  C163     1.0000 0.90700  0.54290  0.91960  Biso   1.000  C
  C164     1.0000 0.13450  0.88940  0.94480  Biso   1.000  C
  H130     1.0000 0.05730  0.89010  0.90960  Biso   1.000  H
  H131     1.0000 0.18790  0.79860  0.86470  Biso   1.000  H
  C165     1.0000 0.21550  0.83440  0.92010  Biso   1.000  C
  C166     1.0000 0.85180  0.62870  0.93260  Biso   1.000  C
  H132     1.0000 0.92060  0.65300  0.88960  Biso   1.000  H
  H133     1.0000 0.93310  0.51520  0.92070  Biso   1.000  H
  C167     1.0000 0.85850  0.54840  0.95200  Biso   1.000  C
  N14      1.0000 0.19900  0.87020  0.95378  Biso   1.000  N
  H134     1.0000 0.11820  0.91310  0.96330  Biso   1.000  H
  H135     1.0000 0.25580  0.81950  0.92190  Biso   1.000  H
  N15      1.0000 0.82810  0.59550  0.95420  Biso   1.000  N
  H136     1.0000 0.83590  0.66000  0.93780  Biso   1.000  H
  H137     1.0000 0.84740  0.52290  0.97040  Biso   1.000  H
  C168     1.0000 0.18010  0.90160  0.92940  Biso   1.000  C
  H138     1.0000 0.19520  0.93340  0.93390  Biso   1.000  H
  C169     1.0000 0.13840  0.89450  0.89590  Biso   1.000  C
  H139     1.0000 0.12480  0.92070  0.87900  Biso   1.000  H
  C170     1.0000 0.13480  0.81160  0.91900  Biso   1.000  C
  H140     1.0000 0.12130  0.77920  0.91620  Biso   1.000  H
  C171     1.0000 0.17090  0.82370  0.95300  Biso   1.000  C
  H141     1.0000 0.17720  0.80170  0.97530  Biso   1.000  H
  C172     1.0000 0.89250  0.61750  0.94550  Biso   1.000  C
  H142     1.0000 0.90930  0.63970  0.96520  Biso   1.000  H
  C173     1.0000 0.92850  0.60640  0.90970  Biso   1.000  C
  H143     1.0000 0.96540  0.62520  0.90510  Biso   1.000  H
  C174     1.0000 0.85390  0.55770  0.88370  Biso   1.000  C
  H144     1.0000 0.84030  0.54140  0.85910  Biso   1.000  H
  C175     1.0000 0.81170  0.56270  0.91800  Biso   1.000  C
  H145     1.0000 0.77290  0.54540  0.91820  Biso   1.000  H
  N16      1.0000 0.92910  0.05267  0.24720  Biso   1.000  N
  C176     1.0000 0.88160  0.04800  0.21816  Biso   1.000  C
  C177     1.0000 0.92680  0.09090  0.27350  Biso   1.000  C
  H146     1.0000 0.88230  0.02140  0.19950  Biso   1.000  H
  C178     1.0000 0.83200  0.08150  0.21510  Biso   1.000  C
  C179     1.0000 0.87680  0.12320  0.27210  Biso   1.000  C
  H147     1.0000 0.95980  0.09570  0.29330  Biso   1.000  H
  H148     1.0000 0.80020  0.07770  0.19440  Biso   1.000  H
  C180     1.0000 0.82970  0.11950  0.24210  Biso   1.000  C
  H149     1.0000 0.87480  0.14840  0.29210  Biso   1.000  H
  C181     1.0000 0.77660  0.15710  0.24200  Biso   1.000  C
  O31      1.0000 0.77690  0.19177  0.26351  Biso   1.000  O
  O32      1.0000 0.73170  0.14497  0.21286  Biso   1.000  O
  C182     1.0000 0.68160  0.18060  0.20570  Biso   1.000  C
  H150     1.0000 0.65940  0.17330  0.17910  Biso   1.000  H
  H151     1.0000 0.70060  0.21300  0.20330  Biso   1.000  H
  C183     1.0000 0.63360  0.18010  0.24240  Biso   1.000  C
  C184     1.0000 0.60730  0.22320  0.25650  Biso   1.000  C
  C185     1.0000 0.61130  0.13860  0.25980  Biso   1.000  C
  C186     1.0000 0.56280  0.22480  0.28760  Biso   1.000  C
  H152     1.0000 0.62070  0.25250  0.24400  Biso   1.000  H
  H153     1.0000 0.62810  0.10890  0.25020  Biso   1.000  H
  C187     1.0000 0.56660  0.13770  0.28960  Biso   1.000  C
  C188     1.0000 0.53660  0.27380  0.30310  Biso   1.000  C
  C189     1.0000 0.54110  0.18180  0.30610  Biso   1.000  C
  C190     1.0000 0.54760  0.08670  0.31020  Biso   1.000  C
  O33      1.0000 0.57910  0.29068  0.33785  Biso   1.000  O
  H154     1.0000 0.53640  0.29750  0.27990  Biso   1.000  H
  H155     1.0000 0.49270  0.27000  0.31360  Biso   1.000  H
  H156     1.0000 0.51120  0.18190  0.32820  Biso   1.000  H
  O34      1.0000 0.49590  0.09650  0.34360  Biso   1.000  O
  H157     1.0000 0.53120  0.06460  0.28840  Biso   1.000  H
  H158     1.0000 0.58510  0.07160  0.32350  Biso   1.000  H
  C191     1.0000 0.57090  0.33470  0.35340  Biso   1.000  C
  C192     1.0000 0.45220  0.06310  0.34360  Biso   1.000  C
  O35      1.0000 0.53210  0.36169  0.33946  Biso   1.000  O
  C193     1.0000 0.61610  0.34520  0.38750  Biso   1.000  C
  O36      1.0000 0.42540  0.04780  0.31060  Biso   1.000  O
  C194     1.0000 0.41800  0.07730  0.38560  Biso   1.000  C
  C195     1.0000 0.59790  0.37600  0.41290  Biso   1.000  C
  C196     1.0000 0.67610  0.32090  0.38590  Biso   1.000  C
  C197     1.0000 0.40070  0.12500  0.40050  Biso   1.000  C
  C198     1.0000 0.40700  0.04290  0.41960  Biso   1.000  C
  C199     1.0000 0.63450  0.38940  0.44480  Biso   1.000  C
  H159     1.0000 0.55730  0.39010  0.40960  Biso   1.000  H
  H160     1.0000 0.68790  0.29860  0.36470  Biso   1.000  H
  C200     1.0000 0.71550  0.33440  0.42010  Biso   1.000  C
  C201     1.0000 0.35180  0.12870  0.43260  Biso   1.000  C
  H161     1.0000 0.42060  0.15300  0.38960  Biso   1.000  H
  H162     1.0000 0.43310  0.01520  0.42070  Biso   1.000  H
  C202     1.0000 0.35850  0.04840  0.45200  Biso   1.000  C
  N17      1.0000 0.69900  0.37020  0.45378  Biso   1.000  N
  H163     1.0000 0.61820  0.41310  0.46330  Biso   1.000  H
  H164     1.0000 0.75580  0.31950  0.42190  Biso   1.000  H
  N18      1.0000 0.32810  0.09550  0.45420  Biso   1.000  N
  H165     1.0000 0.33590  0.16000  0.43780  Biso   1.000  H
  H166     1.0000 0.34740  0.02290  0.47040  Biso   1.000  H
  C203     1.0000 0.68010  0.40160  0.42940  Biso   1.000  C
  H167     1.0000 0.69520  0.43340  0.43390  Biso   1.000  H
  C204     1.0000 0.63840  0.39450  0.39590  Biso   1.000  C
  H168     1.0000 0.62480  0.42070  0.37900  Biso   1.000  H
  C205     1.0000 0.63480  0.31160  0.41900  Biso   1.000  C
  H169     1.0000 0.62130  0.27920  0.41620  Biso   1.000  H
  C206     1.0000 0.67090  0.32370  0.45300  Biso   1.000  C
  H170     1.0000 0.67720  0.30170  0.47530  Biso   1.000  H
  C207     1.0000 0.39250  0.11750  0.44550  Biso   1.000  C
  H171     1.0000 0.40930  0.13970  0.46520  Biso   1.000  H
  C208     1.0000 0.42850  0.10640  0.40970  Biso   1.000  C
  H172     1.0000 0.46540  0.12520  0.40510  Biso   1.000  H
  C209     1.0000 0.35390  0.05770  0.38370  Biso   1.000  C
  H173     1.0000 0.34030  0.04140  0.35910  Biso   1.000  H
  C210     1.0000 0.31170  0.06270  0.41800  Biso   1.000  C
  H174     1.0000 0.27290  0.04540  0.41820  Biso   1.000  H
  N19      1.0000 0.57090  0.44733  0.74720  Biso   1.000  N
  C211     1.0000 0.61840  0.45200  0.71816  Biso   1.000  C
  C212     1.0000 0.57320  0.40910  0.77350  Biso   1.000  C
  H175     1.0000 0.61770  0.47860  0.69950  Biso   1.000  H
  C213     1.0000 0.66800  0.41850  0.71510  Biso   1.000  C
  C214     1.0000 0.62320  0.37680  0.77210  Biso   1.000  C
  H176     1.0000 0.54020  0.40430  0.79330  Biso   1.000  H
  H177     1.0000 0.69980  0.42230  0.69440  Biso   1.000  H
  C215     1.0000 0.67030  0.38050  0.74210  Biso   1.000  C
  H178     1.0000 0.62520  0.35160  0.79210  Biso   1.000  H
  C216     1.0000 0.72340  0.34290  0.74200  Biso   1.000  C
  O37      1.0000 0.72310  0.30823  0.76351  Biso   1.000  O
  O38      1.0000 0.76830  0.35503  0.71286  Biso   1.000  O
  C217     1.0000 0.81840  0.31940  0.70570  Biso   1.000  C
  H179     1.0000 0.84060  0.32670  0.67910  Biso   1.000  H
  H180     1.0000 0.79940  0.28700  0.70330  Biso   1.000  H
  C218     1.0000 0.86640  0.31990  0.74240  Biso   1.000  C
  C219     1.0000 0.89270  0.27680  0.75650  Biso   1.000  C
  C220     1.0000 0.88870  0.36140  0.75980  Biso   1.000  C
  C221     1.0000 0.93720  0.27520  0.78760  Biso   1.000  C
  H181     1.0000 0.87930  0.24750  0.74400  Biso   1.000  H
  H182     1.0000 0.87190  0.39110  0.75020  Biso   1.000  H
  C222     1.0000 0.93340  0.36230  0.78960  Biso   1.000  C
  C223     1.0000 0.96340  0.22620  0.80310  Biso   1.000  C
  C224     1.0000 0.95890  0.31820  0.80610  Biso   1.000  C
  C225     1.0000 0.95240  0.41330  0.81020  Biso   1.000  C
  O39      1.0000 0.92090  0.20932  0.83785  Biso   1.000  O
  H183     1.0000 0.96360  0.20250  0.77990  Biso   1.000  H
  H184     1.0000 0.00730  0.23000  0.81360  Biso   1.000  H
  H185     1.0000 0.98880  0.31810  0.82820  Biso   1.000  H
  O40      1.0000 0.00410  0.40350  0.84360  Biso   1.000  O
  H186     1.0000 0.96880  0.43540  0.78840  Biso   1.000  H
  H187     1.0000 0.91490  0.42840  0.82350  Biso   1.000  H
  C226     1.0000 0.92910  0.16530  0.85340  Biso   1.000  C
  C227     1.0000 0.04780  0.43690  0.84360  Biso   1.000  C
  O41      1.0000 0.96790  0.13831  0.83946  Biso   1.000  O
  C228     1.0000 0.88390  0.15480  0.88750  Biso   1.000  C
  O42      1.0000 0.07460  0.45220  0.81060  Biso   1.000  O
  C229     1.0000 0.08200  0.42270  0.88560  Biso   1.000  C
  C230     1.0000 0.90210  0.12400  0.91290  Biso   1.000  C
  C231     1.0000 0.82390  0.17910  0.88590  Biso   1.000  C
  C232     1.0000 0.09930  0.37500  0.90050  Biso   1.000  C
  C233     1.0000 0.09300  0.45710  0.91960  Biso   1.000  C
  C234     1.0000 0.86550  0.11060  0.94480  Biso   1.000  C
  H188     1.0000 0.94270  0.10990  0.90960  Biso   1.000  H
  H189     1.0000 0.81210  0.20140  0.86470  Biso   1.000  H
  C235     1.0000 0.78450  0.16560  0.92010  Biso   1.000  C
  C236     1.0000 0.14820  0.37130  0.93260  Biso   1.000  C
  H190     1.0000 0.07940  0.34700  0.88960  Biso   1.000  H
  H191     1.0000 0.06690  0.48480  0.92070  Biso   1.000  H
  C237     1.0000 0.14150  0.45160  0.95200  Biso   1.000  C
  N20      1.0000 0.80100  0.12980  0.95378  Biso   1.000  N
  H192     1.0000 0.88180  0.08690  0.96330  Biso   1.000  H
  H193     1.0000 0.74420  0.18050  0.92190  Biso   1.000  H
  N21      1.0000 0.17190  0.40450  0.95420  Biso   1.000  N
  H194     1.0000 0.16410  0.34000  0.93780  Biso   1.000  H
  H195     1.0000 0.15260  0.47710  0.97040  Biso   1.000  H
  C238     1.0000 0.81990  0.09840  0.92940  Biso   1.000  C
  H196     1.0000 0.80480  0.06660  0.93390  Biso   1.000  H
  C239     1.0000 0.86160  0.10550  0.89590  Biso   1.000  C
  H197     1.0000 0.87520  0.07930  0.87900  Biso   1.000  H
  C240     1.0000 0.86520  0.18840  0.91900  Biso   1.000  C
  H198     1.0000 0.87870  0.22080  0.91620  Biso   1.000  H
  C241     1.0000 0.82910  0.17630  0.95300  Biso   1.000  C
  H199     1.0000 0.82280  0.19830  0.97530  Biso   1.000  H
  C242     1.0000 0.10750  0.38250  0.94550  Biso   1.000  C
  H200     1.0000 0.09070  0.36030  0.96520  Biso   1.000  H
  C243     1.0000 0.07150  0.39360  0.90970  Biso   1.000  C
  H201     1.0000 0.03460  0.37480  0.90510  Biso   1.000  H
  C244     1.0000 0.14610  0.44230  0.88370  Biso   1.000  C
  H202     1.0000 0.15970  0.45860  0.85910  Biso   1.000  H
  C245     1.0000 0.18830  0.43730  0.91800  Biso   1.000  C
  H203     1.0000 0.22710  0.45460  0.91820  Biso   1.000  H
  N22      1.0000 0.07090  0.94733  0.24720  Biso   1.000  N
  C246     1.0000 0.11840  0.95200  0.21816  Biso   1.000  C
  C247     1.0000 0.07320  0.90910  0.27350  Biso   1.000  C
  H204     1.0000 0.11770  0.97860  0.19950  Biso   1.000  H
  C248     1.0000 0.16800  0.91850  0.21510  Biso   1.000  C
  C249     1.0000 0.12320  0.87680  0.27210  Biso   1.000  C
  H205     1.0000 0.04020  0.90430  0.29330  Biso   1.000  H
  H206     1.0000 0.19980  0.92230  0.19440  Biso   1.000  H
  C250     1.0000 0.17030  0.88050  0.24210  Biso   1.000  C
  H207     1.0000 0.12520  0.85160  0.29210  Biso   1.000  H
  C251     1.0000 0.22340  0.84290  0.24200  Biso   1.000  C
  O43      1.0000 0.22310  0.80823  0.26351  Biso   1.000  O
  O44      1.0000 0.26830  0.85503  0.21286  Biso   1.000  O
  C252     1.0000 0.31840  0.81940  0.20570  Biso   1.000  C
  H208     1.0000 0.34060  0.82670  0.17910  Biso   1.000  H
  H209     1.0000 0.29940  0.78700  0.20330  Biso   1.000  H
  C253     1.0000 0.36640  0.81990  0.24240  Biso   1.000  C
  C254     1.0000 0.39270  0.77680  0.25650  Biso   1.000  C
  C255     1.0000 0.38870  0.86140  0.25980  Biso   1.000  C
  C256     1.0000 0.43720  0.77520  0.28760  Biso   1.000  C
  H210     1.0000 0.37930  0.74750  0.24400  Biso   1.000  H
  H211     1.0000 0.37190  0.89110  0.25020  Biso   1.000  H
  C257     1.0000 0.43340  0.86230  0.28960  Biso   1.000  C
  C258     1.0000 0.46340  0.72620  0.30310  Biso   1.000  C
  C259     1.0000 0.45890  0.81820  0.30610  Biso   1.000  C
  C260     1.0000 0.45240  0.91330  0.31020  Biso   1.000  C
  O45      1.0000 0.42090  0.70932  0.33785  Biso   1.000  O
  H212     1.0000 0.46360  0.70250  0.27990  Biso   1.000  H
  H213     1.0000 0.50730  0.73000  0.31360  Biso   1.000  H
  H214     1.0000 0.48880  0.81810  0.32820  Biso   1.000  H
  O46      1.0000 0.50410  0.90350  0.34360  Biso   1.000  O
  H215     1.0000 0.46880  0.93540  0.28840  Biso   1.000  H
  H216     1.0000 0.41490  0.92840  0.32350  Biso   1.000  H
  C261     1.0000 0.42910  0.66530  0.35340  Biso   1.000  C
  C262     1.0000 0.54780  0.93690  0.34360  Biso   1.000  C
  O47      1.0000 0.46790  0.63831  0.33946  Biso   1.000  O
  C263     1.0000 0.38390  0.65480  0.38750  Biso   1.000  C
  O48      1.0000 0.57460  0.95220  0.31060  Biso   1.000  O
  C264     1.0000 0.58200  0.92270  0.38560  Biso   1.000  C
  C265     1.0000 0.40210  0.62400  0.41290  Biso   1.000  C
  C266     1.0000 0.32390  0.67910  0.38590  Biso   1.000  C
  C267     1.0000 0.59930  0.87500  0.40050  Biso   1.000  C
  C268     1.0000 0.59300  0.95710  0.41960  Biso   1.000  C
  C269     1.0000 0.36550  0.61060  0.44480  Biso   1.000  C
  H217     1.0000 0.44270  0.60990  0.40960  Biso   1.000  H
  H218     1.0000 0.31210  0.70140  0.36470  Biso   1.000  H
  C270     1.0000 0.28450  0.66560  0.42010  Biso   1.000  C
  C271     1.0000 0.64820  0.87130  0.43260  Biso   1.000  C
  H219     1.0000 0.57940  0.84700  0.38960  Biso   1.000  H
  H220     1.0000 0.56690  0.98480  0.42070  Biso   1.000  H
  C272     1.0000 0.64150  0.95160  0.45200  Biso   1.000  C
  N23      1.0000 0.30100  0.62980  0.45378  Biso   1.000  N
  H221     1.0000 0.38180  0.58690  0.46330  Biso   1.000  H
  H222     1.0000 0.24420  0.68050  0.42190  Biso   1.000  H
  N24      1.0000 0.67190  0.90450  0.45420  Biso   1.000  N
  H223     1.0000 0.66410  0.84000  0.43780  Biso   1.000  H
  H224     1.0000 0.65260  0.97710  0.47040  Biso   1.000  H
  C273     1.0000 0.31990  0.59840  0.42940  Biso   1.000  C
  H225     1.0000 0.30480  0.56660  0.43390  Biso   1.000  H
  C274     1.0000 0.36160  0.60550  0.39590  Biso   1.000  C
  H226     1.0000 0.37520  0.57930  0.37900  Biso   1.000  H
  C275     1.0000 0.36520  0.68840  0.41900  Biso   1.000  C
  H227     1.0000 0.37870  0.72080  0.41620  Biso   1.000  H
  C276     1.0000 0.32910  0.67630  0.45300  Biso   1.000  C
  H228     1.0000 0.32280  0.69830  0.47530  Biso   1.000  H
  C277     1.0000 0.60750  0.88250  0.44550  Biso   1.000  C
  H229     1.0000 0.59070  0.86030  0.46520  Biso   1.000  H
  C278     1.0000 0.57150  0.89360  0.40970  Biso   1.000  C
  H230     1.0000 0.53460  0.87480  0.40510  Biso   1.000  H
  C279     1.0000 0.64610  0.94230  0.38370  Biso   1.000  C
  H231     1.0000 0.65970  0.95860  0.35910  Biso   1.000  H
  C280     1.0000 0.68830  0.93730  0.41800  Biso   1.000  C
  H232     1.0000 0.72710  0.95460  0.41820  Biso   1.000  H
  N25      1.0000 0.92910  0.94733  0.74720  Biso   1.000  N
  C281     1.0000 0.88160  0.95200  0.71816  Biso   1.000  C
  C282     1.0000 0.92680  0.90910  0.77350  Biso   1.000  C
  H233     1.0000 0.88230  0.97860  0.69950  Biso   1.000  H
  C283     1.0000 0.83200  0.91850  0.71510  Biso   1.000  C
  C284     1.0000 0.87680  0.87680  0.77210  Biso   1.000  C
  H234     1.0000 0.95980  0.90430  0.79330  Biso   1.000  H
  H235     1.0000 0.80020  0.92230  0.69440  Biso   1.000  H
  C285     1.0000 0.82970  0.88050  0.74210  Biso   1.000  C
  H236     1.0000 0.87480  0.85160  0.79210  Biso   1.000  H
  C286     1.0000 0.77660  0.84290  0.74200  Biso   1.000  C
  O49      1.0000 0.77690  0.80823  0.76351  Biso   1.000  O
  O50      1.0000 0.73170  0.85503  0.71286  Biso   1.000  O
  C287     1.0000 0.68160  0.81940  0.70570  Biso   1.000  C
  H237     1.0000 0.65940  0.82670  0.67910  Biso   1.000  H
  H238     1.0000 0.70060  0.78700  0.70330  Biso   1.000  H
  C288     1.0000 0.63360  0.81990  0.74240  Biso   1.000  C
  C289     1.0000 0.60730  0.77680  0.75650  Biso   1.000  C
  C290     1.0000 0.61130  0.86140  0.75980  Biso   1.000  C
  C291     1.0000 0.56280  0.77520  0.78760  Biso   1.000  C
  H239     1.0000 0.62070  0.74750  0.74400  Biso   1.000  H
  H240     1.0000 0.62810  0.89110  0.75020  Biso   1.000  H
  C292     1.0000 0.56660  0.86230  0.78960  Biso   1.000  C
  C293     1.0000 0.53660  0.72620  0.80310  Biso   1.000  C
  C294     1.0000 0.54110  0.81820  0.80610  Biso   1.000  C
  C295     1.0000 0.54760  0.91330  0.81020  Biso   1.000  C
  O51      1.0000 0.57910  0.70932  0.83785  Biso   1.000  O
  H241     1.0000 0.53640  0.70250  0.77990  Biso   1.000  H
  H242     1.0000 0.49270  0.73000  0.81360  Biso   1.000  H
  H243     1.0000 0.51120  0.81810  0.82820  Biso   1.000  H
  O52      1.0000 0.49590  0.90350  0.84360  Biso   1.000  O
  H244     1.0000 0.53120  0.93540  0.78840  Biso   1.000  H
  H245     1.0000 0.58510  0.92840  0.82350  Biso   1.000  H
  C296     1.0000 0.57090  0.66530  0.85340  Biso   1.000  C
  C297     1.0000 0.45220  0.93690  0.84360  Biso   1.000  C
  O53      1.0000 0.53210  0.63831  0.83946  Biso   1.000  O
  C298     1.0000 0.61610  0.65480  0.88750  Biso   1.000  C
  O54      1.0000 0.42540  0.95220  0.81060  Biso   1.000  O
  C299     1.0000 0.41800  0.92270  0.88560  Biso   1.000  C
  C300     1.0000 0.59790  0.62400  0.91290  Biso   1.000  C
  C301     1.0000 0.67610  0.67910  0.88590  Biso   1.000  C
  C302     1.0000 0.40070  0.87500  0.90050  Biso   1.000  C
  C303     1.0000 0.40700  0.95710  0.91960  Biso   1.000  C
  C304     1.0000 0.63450  0.61060  0.94480  Biso   1.000  C
  H246     1.0000 0.55730  0.60990  0.90960  Biso   1.000  H
  H247     1.0000 0.68790  0.70140  0.86470  Biso   1.000  H
  C305     1.0000 0.71550  0.66560  0.92010  Biso   1.000  C
  C306     1.0000 0.35180  0.87130  0.93260  Biso   1.000  C
  H248     1.0000 0.42060  0.84700  0.88960  Biso   1.000  H
  H249     1.0000 0.43310  0.98480  0.92070  Biso   1.000  H
  C307     1.0000 0.35850  0.95160  0.95200  Biso   1.000  C
  N26      1.0000 0.69900  0.62980  0.95378  Biso   1.000  N
  H250     1.0000 0.61820  0.58690  0.96330  Biso   1.000  H
  H251     1.0000 0.75580  0.68050  0.92190  Biso   1.000  H
  N27      1.0000 0.32810  0.90450  0.95420  Biso   1.000  N
  H252     1.0000 0.33590  0.84000  0.93780  Biso   1.000  H
  H253     1.0000 0.34740  0.97710  0.97040  Biso   1.000  H
  C308     1.0000 0.68010  0.59840  0.92940  Biso   1.000  C
  H254     1.0000 0.69520  0.56660  0.93390  Biso   1.000  H
  C309     1.0000 0.63840  0.60550  0.89590  Biso   1.000  C
  H255     1.0000 0.62480  0.57930  0.87900  Biso   1.000  H
  C310     1.0000 0.63480  0.68840  0.91900  Biso   1.000  C
  H256     1.0000 0.62130  0.72080  0.91620  Biso   1.000  H
  C311     1.0000 0.67090  0.67630  0.95300  Biso   1.000  C
  H257     1.0000 0.67720  0.69830  0.97530  Biso   1.000  H
  C312     1.0000 0.39250  0.88250  0.94550  Biso   1.000  C
  H258     1.0000 0.40930  0.86030  0.96520  Biso   1.000  H
  C313     1.0000 0.42850  0.89360  0.90970  Biso   1.000  C
  H259     1.0000 0.46540  0.87480  0.90510  Biso   1.000  H
  C314     1.0000 0.35390  0.94230  0.88370  Biso   1.000  C
  H260     1.0000 0.34030  0.95860  0.85910  Biso   1.000  H
  C315     1.0000 0.31170  0.93730  0.91800  Biso   1.000  C
  H261     1.0000 0.27290  0.95460  0.91820  Biso   1.000  H
  N28      1.0000 0.42910  0.44733  0.24720  Biso   1.000  N
  C316     1.0000 0.38160  0.45200  0.21816  Biso   1.000  C
  C317     1.0000 0.42680  0.40910  0.27350  Biso   1.000  C
  H262     1.0000 0.38230  0.47860  0.19950  Biso   1.000  H
  C318     1.0000 0.33200  0.41850  0.21510  Biso   1.000  C
  C319     1.0000 0.37680  0.37680  0.27210  Biso   1.000  C
  H263     1.0000 0.45980  0.40430  0.29330  Biso   1.000  H
  H264     1.0000 0.30020  0.42230  0.19440  Biso   1.000  H
  C320     1.0000 0.32970  0.38050  0.24210  Biso   1.000  C
  H265     1.0000 0.37480  0.35160  0.29210  Biso   1.000  H
  C321     1.0000 0.27660  0.34290  0.24200  Biso   1.000  C
  O55      1.0000 0.27690  0.30823  0.26351  Biso   1.000  O
  O56      1.0000 0.23170  0.35503  0.21286  Biso   1.000  O
  C322     1.0000 0.18160  0.31940  0.20570  Biso   1.000  C
  H266     1.0000 0.15940  0.32670  0.17910  Biso   1.000  H
  H267     1.0000 0.20060  0.28700  0.20330  Biso   1.000  H
  C323     1.0000 0.13360  0.31990  0.24240  Biso   1.000  C
  C324     1.0000 0.10730  0.27680  0.25650  Biso   1.000  C
  C325     1.0000 0.11130  0.36140  0.25980  Biso   1.000  C
  C326     1.0000 0.06280  0.27520  0.28760  Biso   1.000  C
  H268     1.0000 0.12070  0.24750  0.24400  Biso   1.000  H
  H269     1.0000 0.12810  0.39110  0.25020  Biso   1.000  H
  C327     1.0000 0.06660  0.36230  0.28960  Biso   1.000  C
  C328     1.0000 0.03660  0.22620  0.30310  Biso   1.000  C
  C329     1.0000 0.04110  0.31820  0.30610  Biso   1.000  C
  C330     1.0000 0.04760  0.41330  0.31020  Biso   1.000  C
  O57      1.0000 0.07910  0.20932  0.33785  Biso   1.000  O
  H270     1.0000 0.03640  0.20250  0.27990  Biso   1.000  H
  H271     1.0000 0.99270  0.23000  0.31360  Biso   1.000  H
  H272     1.0000 0.01120  0.31810  0.32820  Biso   1.000  H
  O58      1.0000 0.99590  0.40350  0.34360  Biso   1.000  O
  H273     1.0000 0.03120  0.43540  0.28840  Biso   1.000  H
  H274     1.0000 0.08510  0.42840  0.32350  Biso   1.000  H
  C331     1.0000 0.07090  0.16530  0.35340  Biso   1.000  C
  C332     1.0000 0.95220  0.43690  0.34360  Biso   1.000  C
  O59      1.0000 0.03210  0.13831  0.33946  Biso   1.000  O
  C333     1.0000 0.11610  0.15480  0.38750  Biso   1.000  C
  O60      1.0000 0.92540  0.45220  0.31060  Biso   1.000  O
  C334     1.0000 0.91800  0.42270  0.38560  Biso   1.000  C
  C335     1.0000 0.09790  0.12400  0.41290  Biso   1.000  C
  C336     1.0000 0.17610  0.17910  0.38590  Biso   1.000  C
  C337     1.0000 0.90070  0.37500  0.40050  Biso   1.000  C
  C338     1.0000 0.90700  0.45710  0.41960  Biso   1.000  C
  C339     1.0000 0.13450  0.11060  0.44480  Biso   1.000  C
  H275     1.0000 0.05730  0.10990  0.40960  Biso   1.000  H
  H276     1.0000 0.18790  0.20140  0.36470  Biso   1.000  H
  C340     1.0000 0.21550  0.16560  0.42010  Biso   1.000  C
  C341     1.0000 0.85180  0.37130  0.43260  Biso   1.000  C
  H277     1.0000 0.92060  0.34700  0.38960  Biso   1.000  H
  H278     1.0000 0.93310  0.48480  0.42070  Biso   1.000  H
  C342     1.0000 0.85850  0.45160  0.45200  Biso   1.000  C
  N29      1.0000 0.19900  0.12980  0.45378  Biso   1.000  N
  H279     1.0000 0.11820  0.08690  0.46330  Biso   1.000  H
  H280     1.0000 0.25580  0.18050  0.42190  Biso   1.000  H
  N30      1.0000 0.82810  0.40450  0.45420  Biso   1.000  N
  H281     1.0000 0.83590  0.34000  0.43780  Biso   1.000  H
  H282     1.0000 0.84740  0.47710  0.47040  Biso   1.000  H
  C343     1.0000 0.18010  0.09840  0.42940  Biso   1.000  C
  H283     1.0000 0.19520  0.06660  0.43390  Biso   1.000  H
  C344     1.0000 0.13840  0.10550  0.39590  Biso   1.000  C
  H284     1.0000 0.12480  0.07930  0.37900  Biso   1.000  H
  C345     1.0000 0.13480  0.18840  0.41900  Biso   1.000  C
  H285     1.0000 0.12130  0.22080  0.41620  Biso   1.000  H
  C346     1.0000 0.17090  0.17630  0.45300  Biso   1.000  C
  H286     1.0000 0.17720  0.19830  0.47530  Biso   1.000  H
  C347     1.0000 0.89250  0.38250  0.44550  Biso   1.000  C
  H287     1.0000 0.90930  0.36030  0.46520  Biso   1.000  H
  C348     1.0000 0.92850  0.39360  0.40970  Biso   1.000  C
  H288     1.0000 0.96540  0.37480  0.40510  Biso   1.000  H
  C349     1.0000 0.85390  0.44230  0.38370  Biso   1.000  C
  H289     1.0000 0.84030  0.45860  0.35910  Biso   1.000  H
  C350     1.0000 0.81170  0.43730  0.41800  Biso   1.000  C
  H290     1.0000 0.77290  0.45460  0.41820  Biso   1.000  H
  N31      1.0000 0.07090  0.05267  0.74720  Biso   1.000  N
  C351     1.0000 0.11840  0.04800  0.71816  Biso   1.000  C
  C352     1.0000 0.07320  0.09090  0.77350  Biso   1.000  C
  H291     1.0000 0.11770  0.02140  0.69950  Biso   1.000  H
  C353     1.0000 0.16800  0.08150  0.71510  Biso   1.000  C
  C354     1.0000 0.12320  0.12320  0.77210  Biso   1.000  C
  H292     1.0000 0.04020  0.09570  0.79330  Biso   1.000  H
  H293     1.0000 0.19980  0.07770  0.69440  Biso   1.000  H
  C355     1.0000 0.17030  0.11950  0.74210  Biso   1.000  C
  H294     1.0000 0.12520  0.14840  0.79210  Biso   1.000  H
  C356     1.0000 0.22340  0.15710  0.74200  Biso   1.000  C
  O61      1.0000 0.22310  0.19177  0.76351  Biso   1.000  O
  O62      1.0000 0.26830  0.14497  0.71286  Biso   1.000  O
  C357     1.0000 0.31840  0.18060  0.70570  Biso   1.000  C
  H295     1.0000 0.34060  0.17330  0.67910  Biso   1.000  H
  H296     1.0000 0.29940  0.21300  0.70330  Biso   1.000  H
  C358     1.0000 0.36640  0.18010  0.74240  Biso   1.000  C
  C359     1.0000 0.39270  0.22320  0.75650  Biso   1.000  C
  C360     1.0000 0.38870  0.13860  0.75980  Biso   1.000  C
  C361     1.0000 0.43720  0.22480  0.78760  Biso   1.000  C
  H297     1.0000 0.37930  0.25250  0.74400  Biso   1.000  H
  H298     1.0000 0.37190  0.10890  0.75020  Biso   1.000  H
  C362     1.0000 0.43340  0.13770  0.78960  Biso   1.000  C
  C363     1.0000 0.46340  0.27380  0.80310  Biso   1.000  C
  C364     1.0000 0.45890  0.18180  0.80610  Biso   1.000  C
  C365     1.0000 0.45240  0.08670  0.81020  Biso   1.000  C
  O63      1.0000 0.42090  0.29068  0.83785  Biso   1.000  O
  H299     1.0000 0.46360  0.29750  0.77990  Biso   1.000  H
  H300     1.0000 0.50730  0.27000  0.81360  Biso   1.000  H
  H301     1.0000 0.48880  0.18190  0.82820  Biso   1.000  H
  O64      1.0000 0.50410  0.09650  0.84360  Biso   1.000  O
  H302     1.0000 0.46880  0.06460  0.78840  Biso   1.000  H
  H303     1.0000 0.41490  0.07160  0.82350  Biso   1.000  H
  C366     1.0000 0.42910  0.33470  0.85340  Biso   1.000  C
  C367     1.0000 0.54780  0.06310  0.84360  Biso   1.000  C
  O65      1.0000 0.46790  0.36169  0.83946  Biso   1.000  O
  C368     1.0000 0.38390  0.34520  0.88750  Biso   1.000  C
  O66      1.0000 0.57460  0.04780  0.81060  Biso   1.000  O
  C369     1.0000 0.58200  0.07730  0.88560  Biso   1.000  C
  C370     1.0000 0.40210  0.37600  0.91290  Biso   1.000  C
  C371     1.0000 0.32390  0.32090  0.88590  Biso   1.000  C
  C372     1.0000 0.59930  0.12500  0.90050  Biso   1.000  C
  C373     1.0000 0.59300  0.04290  0.91960  Biso   1.000  C
  C374     1.0000 0.36550  0.38940  0.94480  Biso   1.000  C
  H304     1.0000 0.44270  0.39010  0.90960  Biso   1.000  H
  H305     1.0000 0.31210  0.29860  0.86470  Biso   1.000  H
  C375     1.0000 0.28450  0.33440  0.92010  Biso   1.000  C
  C376     1.0000 0.64820  0.12870  0.93260  Biso   1.000  C
  H306     1.0000 0.57940  0.15300  0.88960  Biso   1.000  H
  H307     1.0000 0.56690  0.01520  0.92070  Biso   1.000  H
  C377     1.0000 0.64150  0.04840  0.95200  Biso   1.000  C
  N32      1.0000 0.30100  0.37020  0.95378  Biso   1.000  N
  H308     1.0000 0.38180  0.41310  0.96330  Biso   1.000  H
  H309     1.0000 0.24420  0.31950  0.92190  Biso   1.000  H
  N33      1.0000 0.67190  0.09550  0.95420  Biso   1.000  N
  H310     1.0000 0.66410  0.16000  0.93780  Biso   1.000  H
  H311     1.0000 0.65260  0.02290  0.97040  Biso   1.000  H
  C378     1.0000 0.31990  0.40160  0.92940  Biso   1.000  C
  H312     1.0000 0.30480  0.43340  0.93390  Biso   1.000  H
  C379     1.0000 0.36160  0.39450  0.89590  Biso   1.000  C
  H313     1.0000 0.37520  0.42070  0.87900  Biso   1.000  H
  C380     1.0000 0.36520  0.31160  0.91900  Biso   1.000  C
  H314     1.0000 0.37870  0.27920  0.91620  Biso   1.000  H
  C381     1.0000 0.32910  0.32370  0.95300  Biso   1.000  C
  H315     1.0000 0.32280  0.30170  0.97530  Biso   1.000  H
  C382     1.0000 0.60750  0.11750  0.94550  Biso   1.000  C
  H316     1.0000 0.59070  0.13970  0.96520  Biso   1.000  H
  C383     1.0000 0.57150  0.10640  0.90970  Biso   1.000  C
  H317     1.0000 0.53460  0.12520  0.90510  Biso   1.000  H
  C384     1.0000 0.64610  0.05770  0.88370  Biso   1.000  C
  H318     1.0000 0.65970  0.04140  0.85910  Biso   1.000  H
  C385     1.0000 0.68830  0.06270  0.91800  Biso   1.000  C
  H319     1.0000 0.72710  0.04540  0.91820  Biso   1.000  H
  N34      1.0000 0.57090  0.55267  0.24720  Biso   1.000  N
  C386     1.0000 0.61840  0.54800  0.21816  Biso   1.000  C
  C387     1.0000 0.57320  0.59090  0.27350  Biso   1.000  C
  H320     1.0000 0.61770  0.52140  0.19950  Biso   1.000  H
  C388     1.0000 0.66800  0.58150  0.21510  Biso   1.000  C
  C389     1.0000 0.62320  0.62320  0.27210  Biso   1.000  C
  H321     1.0000 0.54020  0.59570  0.29330  Biso   1.000  H
  H322     1.0000 0.69980  0.57770  0.19440  Biso   1.000  H
  C390     1.0000 0.67030  0.61950  0.24210  Biso   1.000  C
  H323     1.0000 0.62520  0.64840  0.29210  Biso   1.000  H
  C391     1.0000 0.72340  0.65710  0.24200  Biso   1.000  C
  O67      1.0000 0.72310  0.69177  0.26351  Biso   1.000  O
  O68      1.0000 0.76830  0.64497  0.21286  Biso   1.000  O
  C392     1.0000 0.81840  0.68060  0.20570  Biso   1.000  C
  H324     1.0000 0.84060  0.67330  0.17910  Biso   1.000  H
  H325     1.0000 0.79940  0.71300  0.20330  Biso   1.000  H
  C393     1.0000 0.86640  0.68010  0.24240  Biso   1.000  C
  C394     1.0000 0.89270  0.72320  0.25650  Biso   1.000  C
  C395     1.0000 0.88870  0.63860  0.25980  Biso   1.000  C
  C396     1.0000 0.93720  0.72480  0.28760  Biso   1.000  C
  H326     1.0000 0.87930  0.75250  0.24400  Biso   1.000  H
  H327     1.0000 0.87190  0.60890  0.25020  Biso   1.000  H
  C397     1.0000 0.93340  0.63770  0.28960  Biso   1.000  C
  C398     1.0000 0.96340  0.77380  0.30310  Biso   1.000  C
  C399     1.0000 0.95890  0.68180  0.30610  Biso   1.000  C
  C400     1.0000 0.95240  0.58670  0.31020  Biso   1.000  C
  O69      1.0000 0.92090  0.79068  0.33785  Biso   1.000  O
  H328     1.0000 0.96360  0.79750  0.27990  Biso   1.000  H
  H329     1.0000 0.00730  0.77000  0.31360  Biso   1.000  H
  H330     1.0000 0.98880  0.68190  0.32820  Biso   1.000  H
  O70      1.0000 0.00410  0.59650  0.34360  Biso   1.000  O
  H331     1.0000 0.96880  0.56460  0.28840  Biso   1.000  H
  H332     1.0000 0.91490  0.57160  0.32350  Biso   1.000  H
  C401     1.0000 0.92910  0.83470  0.35340  Biso   1.000  C
  C402     1.0000 0.04780  0.56310  0.34360  Biso   1.000  C
  O71      1.0000 0.96790  0.86169  0.33946  Biso   1.000  O
  C403     1.0000 0.88390  0.84520  0.38750  Biso   1.000  C
  O72      1.0000 0.07460  0.54780  0.31060  Biso   1.000  O
  C404     1.0000 0.08200  0.57730  0.38560  Biso   1.000  C
  C405     1.0000 0.90210  0.87600  0.41290  Biso   1.000  C
  C406     1.0000 0.82390  0.82090  0.38590  Biso   1.000  C
  C407     1.0000 0.09930  0.62500  0.40050  Biso   1.000  C
  C408     1.0000 0.09300  0.54290  0.41960  Biso   1.000  C
  C409     1.0000 0.86550  0.88940  0.44480  Biso   1.000  C
  H333     1.0000 0.94270  0.89010  0.40960  Biso   1.000  H
  H334     1.0000 0.81210  0.79860  0.36470  Biso   1.000  H
  C410     1.0000 0.78450  0.83440  0.42010  Biso   1.000  C
  C411     1.0000 0.14820  0.62870  0.43260  Biso   1.000  C
  H335     1.0000 0.07940  0.65300  0.38960  Biso   1.000  H
  H336     1.0000 0.06690  0.51520  0.42070  Biso   1.000  H
  C412     1.0000 0.14150  0.54840  0.45200  Biso   1.000  C
  N35      1.0000 0.80100  0.87020  0.45378  Biso   1.000  N
  H337     1.0000 0.88180  0.91310  0.46330  Biso   1.000  H
  H338     1.0000 0.74420  0.81950  0.42190  Biso   1.000  H
  N36      1.0000 0.17190  0.59550  0.45420  Biso   1.000  N
  H339     1.0000 0.16410  0.66000  0.43780  Biso   1.000  H
  H340     1.0000 0.15260  0.52290  0.47040  Biso   1.000  H
  C413     1.0000 0.81990  0.90160  0.42940  Biso   1.000  C
  H341     1.0000 0.80480  0.93340  0.43390  Biso   1.000  H
  C414     1.0000 0.86160  0.89450  0.39590  Biso   1.000  C
  H342     1.0000 0.87520  0.92070  0.37900  Biso   1.000  H
  C415     1.0000 0.86520  0.81160  0.41900  Biso   1.000  C
  H343     1.0000 0.87870  0.77920  0.41620  Biso   1.000  H
  C416     1.0000 0.82910  0.82370  0.45300  Biso   1.000  C
  H344     1.0000 0.82280  0.80170  0.47530  Biso   1.000  H
  C417     1.0000 0.10750  0.61750  0.44550  Biso   1.000  C
  H345     1.0000 0.09070  0.63970  0.46520  Biso   1.000  H
  C418     1.0000 0.07150  0.60640  0.40970  Biso   1.000  C
  H346     1.0000 0.03460  0.62520  0.40510  Biso   1.000  H
  C419     1.0000 0.14610  0.55770  0.38370  Biso   1.000  C
  H347     1.0000 0.15970  0.54140  0.35910  Biso   1.000  H
  C420     1.0000 0.18830  0.56270  0.41800  Biso   1.000  C
  H348     1.0000 0.22710  0.54540  0.41820  Biso   1.000  H
  N37      1.0000 0.57090  0.44733  0.25280  Biso   1.000  N
  C421     1.0000 0.61840  0.45200  0.28184  Biso   1.000  C
  C422     1.0000 0.57320  0.40910  0.22650  Biso   1.000  C
  H349     1.0000 0.61770  0.47860  0.30050  Biso   1.000  H
  C423     1.0000 0.66800  0.41850  0.28490  Biso   1.000  C
  C424     1.0000 0.62320  0.37680  0.22790  Biso   1.000  C
  H350     1.0000 0.54020  0.40430  0.20670  Biso   1.000  H
  H351     1.0000 0.69980  0.42230  0.30560  Biso   1.000  H
  C425     1.0000 0.67030  0.38050  0.25790  Biso   1.000  C
  H352     1.0000 0.62520  0.35160  0.20790  Biso   1.000  H
  C426     1.0000 0.72340  0.34290  0.25800  Biso   1.000  C
  O73      1.0000 0.72310  0.30823  0.23649  Biso   1.000  O
  O74      1.0000 0.76830  0.35503  0.28714  Biso   1.000  O
  C427     1.0000 0.81840  0.31940  0.29430  Biso   1.000  C
  H353     1.0000 0.84060  0.32670  0.32090  Biso   1.000  H
  H354     1.0000 0.79940  0.28700  0.29670  Biso   1.000  H
  C428     1.0000 0.86640  0.31990  0.25760  Biso   1.000  C
  C429     1.0000 0.89270  0.27680  0.24350  Biso   1.000  C
  C430     1.0000 0.88870  0.36140  0.24020  Biso   1.000  C
  C431     1.0000 0.93720  0.27520  0.21240  Biso   1.000  C
  H355     1.0000 0.87930  0.24750  0.25600  Biso   1.000  H
  H356     1.0000 0.87190  0.39110  0.24980  Biso   1.000  H
  C432     1.0000 0.93340  0.36230  0.21040  Biso   1.000  C
  C433     1.0000 0.96340  0.22620  0.19690  Biso   1.000  C
  C434     1.0000 0.95890  0.31820  0.19390  Biso   1.000  C
  C435     1.0000 0.95240  0.41330  0.18980  Biso   1.000  C
  O75      1.0000 0.92090  0.20932  0.16215  Biso   1.000  O
  H357     1.0000 0.96360  0.20250  0.22010  Biso   1.000  H
  H358     1.0000 0.00730  0.23000  0.18640  Biso   1.000  H
  H359     1.0000 0.98880  0.31810  0.17180  Biso   1.000  H
  O76      1.0000 0.00410  0.40350  0.15640  Biso   1.000  O
  H360     1.0000 0.96880  0.43540  0.21160  Biso   1.000  H
  H361     1.0000 0.91490  0.42840  0.17650  Biso   1.000  H
  C436     1.0000 0.92910  0.16530  0.14660  Biso   1.000  C
  C437     1.0000 0.04780  0.43690  0.15640  Biso   1.000  C
  O77      1.0000 0.96790  0.13831  0.16054  Biso   1.000  O
  C438     1.0000 0.88390  0.15480  0.11250  Biso   1.000  C
  O78      1.0000 0.07460  0.45220  0.18940  Biso   1.000  O
  C439     1.0000 0.08200  0.42270  0.11440  Biso   1.000  C
  C440     1.0000 0.90210  0.12400  0.08710  Biso   1.000  C
  C441     1.0000 0.82390  0.17910  0.11410  Biso   1.000  C
  C442     1.0000 0.09930  0.37500  0.09950  Biso   1.000  C
  C443     1.0000 0.09300  0.45710  0.08040  Biso   1.000  C
  C444     1.0000 0.86550  0.11060  0.05520  Biso   1.000  C
  H362     1.0000 0.94270  0.10990  0.09040  Biso   1.000  H
  H363     1.0000 0.81210  0.20140  0.13530  Biso   1.000  H
  C445     1.0000 0.78450  0.16560  0.07990  Biso   1.000  C
  C446     1.0000 0.14820  0.37130  0.06740  Biso   1.000  C
  H364     1.0000 0.07940  0.34700  0.11040  Biso   1.000  H
  H365     1.0000 0.06690  0.48480  0.07930  Biso   1.000  H
  C447     1.0000 0.14150  0.45160  0.04800  Biso   1.000  C
  N38      1.0000 0.80100  0.12980  0.04622  Biso   1.000  N
  H366     1.0000 0.88180  0.08690  0.03670  Biso   1.000  H
  H367     1.0000 0.74420  0.18050  0.07810  Biso   1.000  H
  N39      1.0000 0.17190  0.40450  0.04580  Biso   1.000  N
  H368     1.0000 0.16410  0.34000  0.06220  Biso   1.000  H
  H369     1.0000 0.15260  0.47710  0.02960  Biso   1.000  H
  C448     1.0000 0.81990  0.09840  0.07060  Biso   1.000  C
  H370     1.0000 0.80480  0.06660  0.06610  Biso   1.000  H
  C449     1.0000 0.86160  0.10550  0.10410  Biso   1.000  C
  H371     1.0000 0.87520  0.07930  0.12100  Biso   1.000  H
  C450     1.0000 0.86520  0.18840  0.08100  Biso   1.000  C
  H372     1.0000 0.87870  0.22080  0.08380  Biso   1.000  H
  C451     1.0000 0.82910  0.17630  0.04700  Biso   1.000  C
  H373     1.0000 0.82280  0.19830  0.02470  Biso   1.000  H
  C452     1.0000 0.10750  0.38250  0.05450  Biso   1.000  C
  H374     1.0000 0.09070  0.36030  0.03480  Biso   1.000  H
  C453     1.0000 0.07150  0.39360  0.09030  Biso   1.000  C
  H375     1.0000 0.03460  0.37480  0.09490  Biso   1.000  H
  C454     1.0000 0.14610  0.44230  0.11630  Biso   1.000  C
  H376     1.0000 0.15970  0.45860  0.14090  Biso   1.000  H
  C455     1.0000 0.18830  0.43730  0.08200  Biso   1.000  C
  H377     1.0000 0.22710  0.45460  0.08180  Biso   1.000  H
  N40      1.0000 0.07090  0.94733  0.75280  Biso   1.000  N
  C456     1.0000 0.11840  0.95200  0.78184  Biso   1.000  C
  C457     1.0000 0.07320  0.90910  0.72650  Biso   1.000  C
  H378     1.0000 0.11770  0.97860  0.80050  Biso   1.000  H
  C458     1.0000 0.16800  0.91850  0.78490  Biso   1.000  C
  C459     1.0000 0.12320  0.87680  0.72790  Biso   1.000  C
  H379     1.0000 0.04020  0.90430  0.70670  Biso   1.000  H
  H380     1.0000 0.19980  0.92230  0.80560  Biso   1.000  H
  C460     1.0000 0.17030  0.88050  0.75790  Biso   1.000  C
  H381     1.0000 0.12520  0.85160  0.70790  Biso   1.000  H
  C461     1.0000 0.22340  0.84290  0.75800  Biso   1.000  C
  O79      1.0000 0.22310  0.80823  0.73649  Biso   1.000  O
  O80      1.0000 0.26830  0.85503  0.78714  Biso   1.000  O
  C462     1.0000 0.31840  0.81940  0.79430  Biso   1.000  C
  H382     1.0000 0.34060  0.82670  0.82090  Biso   1.000  H
  H383     1.0000 0.29940  0.78700  0.79670  Biso   1.000  H
  C463     1.0000 0.36640  0.81990  0.75760  Biso   1.000  C
  C464     1.0000 0.39270  0.77680  0.74350  Biso   1.000  C
  C465     1.0000 0.38870  0.86140  0.74020  Biso   1.000  C
  C466     1.0000 0.43720  0.77520  0.71240  Biso   1.000  C
  H384     1.0000 0.37930  0.74750  0.75600  Biso   1.000  H
  H385     1.0000 0.37190  0.89110  0.74980  Biso   1.000  H
  C467     1.0000 0.43340  0.86230  0.71040  Biso   1.000  C
  C468     1.0000 0.46340  0.72620  0.69690  Biso   1.000  C
  C469     1.0000 0.45890  0.81820  0.69390  Biso   1.000  C
  C470     1.0000 0.45240  0.91330  0.68980  Biso   1.000  C
  O81      1.0000 0.42090  0.70932  0.66215  Biso   1.000  O
  H386     1.0000 0.46360  0.70250  0.72010  Biso   1.000  H
  H387     1.0000 0.50730  0.73000  0.68640  Biso   1.000  H
  H388     1.0000 0.48880  0.81810  0.67180  Biso   1.000  H
  O82      1.0000 0.50410  0.90350  0.65640  Biso   1.000  O
  H389     1.0000 0.46880  0.93540  0.71160  Biso   1.000  H
  H390     1.0000 0.41490  0.92840  0.67650  Biso   1.000  H
  C471     1.0000 0.42910  0.66530  0.64660  Biso   1.000  C
  C472     1.0000 0.54780  0.93690  0.65640  Biso   1.000  C
  O83      1.0000 0.46790  0.63831  0.66054  Biso   1.000  O
  C473     1.0000 0.38390  0.65480  0.61250  Biso   1.000  C
  O84      1.0000 0.57460  0.95220  0.68940  Biso   1.000  O
  C474     1.0000 0.58200  0.92270  0.61440  Biso   1.000  C
  C475     1.0000 0.40210  0.62400  0.58710  Biso   1.000  C
  C476     1.0000 0.32390  0.67910  0.61410  Biso   1.000  C
  C477     1.0000 0.59930  0.87500  0.59950  Biso   1.000  C
  C478     1.0000 0.59300  0.95710  0.58040  Biso   1.000  C
  C479     1.0000 0.36550  0.61060  0.55520  Biso   1.000  C
  H391     1.0000 0.44270  0.60990  0.59040  Biso   1.000  H
  H392     1.0000 0.31210  0.70140  0.63530  Biso   1.000  H
  C480     1.0000 0.28450  0.66560  0.57990  Biso   1.000  C
  C481     1.0000 0.64820  0.87130  0.56740  Biso   1.000  C
  H393     1.0000 0.57940  0.84700  0.61040  Biso   1.000  H
  H394     1.0000 0.56690  0.98480  0.57930  Biso   1.000  H
  C482     1.0000 0.64150  0.95160  0.54800  Biso   1.000  C
  N41      1.0000 0.30100  0.62980  0.54622  Biso   1.000  N
  H395     1.0000 0.38180  0.58690  0.53670  Biso   1.000  H
  H396     1.0000 0.24420  0.68050  0.57810  Biso   1.000  H
  N42      1.0000 0.67190  0.90450  0.54580  Biso   1.000  N
  H397     1.0000 0.66410  0.84000  0.56220  Biso   1.000  H
  H398     1.0000 0.65260  0.97710  0.52960  Biso   1.000  H
  C483     1.0000 0.31990  0.59840  0.57060  Biso   1.000  C
  H399     1.0000 0.30480  0.56660  0.56610  Biso   1.000  H
  C484     1.0000 0.36160  0.60550  0.60410  Biso   1.000  C
  H400     1.0000 0.37520  0.57930  0.62100  Biso   1.000  H
  C485     1.0000 0.36520  0.68840  0.58100  Biso   1.000  C
  H401     1.0000 0.37870  0.72080  0.58380  Biso   1.000  H
  C486     1.0000 0.32910  0.67630  0.54700  Biso   1.000  C
  H402     1.0000 0.32280  0.69830  0.52470  Biso   1.000  H
  C487     1.0000 0.60750  0.88250  0.55450  Biso   1.000  C
  H403     1.0000 0.59070  0.86030  0.53480  Biso   1.000  H
  C488     1.0000 0.57150  0.89360  0.59030  Biso   1.000  C
  H404     1.0000 0.53460  0.87480  0.59490  Biso   1.000  H
  C489     1.0000 0.64610  0.94230  0.61630  Biso   1.000  C
  H405     1.0000 0.65970  0.95860  0.64090  Biso   1.000  H
  C490     1.0000 0.68830  0.93730  0.58200  Biso   1.000  C
  H406     1.0000 0.72710  0.95460  0.58180  Biso   1.000  H
  N43      1.0000 0.42910  0.55267  0.25280  Biso   1.000  N
  C491     1.0000 0.38160  0.54800  0.28184  Biso   1.000  C
  C492     1.0000 0.42680  0.59090  0.22650  Biso   1.000  C
  H407     1.0000 0.38230  0.52140  0.30050  Biso   1.000  H
  C493     1.0000 0.33200  0.58150  0.28490  Biso   1.000  C
  C494     1.0000 0.37680  0.62320  0.22790  Biso   1.000  C
  H408     1.0000 0.45980  0.59570  0.20670  Biso   1.000  H
  H409     1.0000 0.30020  0.57770  0.30560  Biso   1.000  H
  C495     1.0000 0.32970  0.61950  0.25790  Biso   1.000  C
  H410     1.0000 0.37480  0.64840  0.20790  Biso   1.000  H
  C496     1.0000 0.27660  0.65710  0.25800  Biso   1.000  C
  O85      1.0000 0.27690  0.69177  0.23649  Biso   1.000  O
  O86      1.0000 0.23170  0.64497  0.28714  Biso   1.000  O
  C497     1.0000 0.18160  0.68060  0.29430  Biso   1.000  C
  H411     1.0000 0.15940  0.67330  0.32090  Biso   1.000  H
  H412     1.0000 0.20060  0.71300  0.29670  Biso   1.000  H
  C498     1.0000 0.13360  0.68010  0.25760  Biso   1.000  C
  C499     1.0000 0.10730  0.72320  0.24350  Biso   1.000  C
  C500     1.0000 0.11130  0.63860  0.24020  Biso   1.000  C
  C501     1.0000 0.06280  0.72480  0.21240  Biso   1.000  C
  H413     1.0000 0.12070  0.75250  0.25600  Biso   1.000  H
  H414     1.0000 0.12810  0.60890  0.24980  Biso   1.000  H
  C502     1.0000 0.06660  0.63770  0.21040  Biso   1.000  C
  C503     1.0000 0.03660  0.77380  0.19690  Biso   1.000  C
  C504     1.0000 0.04110  0.68180  0.19390  Biso   1.000  C
  C505     1.0000 0.04760  0.58670  0.18980  Biso   1.000  C
  O87      1.0000 0.07910  0.79068  0.16215  Biso   1.000  O
  H415     1.0000 0.03640  0.79750  0.22010  Biso   1.000  H
  H416     1.0000 0.99270  0.77000  0.18640  Biso   1.000  H
  H417     1.0000 0.01120  0.68190  0.17180  Biso   1.000  H
  O88      1.0000 0.99590  0.59650  0.15640  Biso   1.000  O
  H418     1.0000 0.03120  0.56460  0.21160  Biso   1.000  H
  H419     1.0000 0.08510  0.57160  0.17650  Biso   1.000  H
  C506     1.0000 0.07090  0.83470  0.14660  Biso   1.000  C
  C507     1.0000 0.95220  0.56310  0.15640  Biso   1.000  C
  O89      1.0000 0.03210  0.86169  0.16054  Biso   1.000  O
  C508     1.0000 0.11610  0.84520  0.11250  Biso   1.000  C
  O90      1.0000 0.92540  0.54780  0.18940  Biso   1.000  O
  C509     1.0000 0.91800  0.57730  0.11440  Biso   1.000  C
  C510     1.0000 0.09790  0.87600  0.08710  Biso   1.000  C
  C511     1.0000 0.17610  0.82090  0.11410  Biso   1.000  C
  C512     1.0000 0.90070  0.62500  0.09950  Biso   1.000  C
  C513     1.0000 0.90700  0.54290  0.08040  Biso   1.000  C
  C514     1.0000 0.13450  0.88940  0.05520  Biso   1.000  C
  H420     1.0000 0.05730  0.89010  0.09040  Biso   1.000  H
  H421     1.0000 0.18790  0.79860  0.13530  Biso   1.000  H
  C515     1.0000 0.21550  0.83440  0.07990  Biso   1.000  C
  C516     1.0000 0.85180  0.62870  0.06740  Biso   1.000  C
  H422     1.0000 0.92060  0.65300  0.11040  Biso   1.000  H
  H423     1.0000 0.93310  0.51520  0.07930  Biso   1.000  H
  C517     1.0000 0.85850  0.54840  0.04800  Biso   1.000  C
  N44      1.0000 0.19900  0.87020  0.04622  Biso   1.000  N
  H424     1.0000 0.11820  0.91310  0.03670  Biso   1.000  H
  H425     1.0000 0.25580  0.81950  0.07810  Biso   1.000  H
  N45      1.0000 0.82810  0.59550  0.04580  Biso   1.000  N
  H426     1.0000 0.83590  0.66000  0.06220  Biso   1.000  H
  H427     1.0000 0.84740  0.52290  0.02960  Biso   1.000  H
  C518     1.0000 0.18010  0.90160  0.07060  Biso   1.000  C
  H428     1.0000 0.19520  0.93340  0.06610  Biso   1.000  H
  C519     1.0000 0.13840  0.89450  0.10410  Biso   1.000  C
  H429     1.0000 0.12480  0.92070  0.12100  Biso   1.000  H
  C520     1.0000 0.13480  0.81160  0.08100  Biso   1.000  C
  H430     1.0000 0.12130  0.77920  0.08380  Biso   1.000  H
  C521     1.0000 0.17090  0.82370  0.04700  Biso   1.000  C
  H431     1.0000 0.17720  0.80170  0.02470  Biso   1.000  H
  C522     1.0000 0.89250  0.61750  0.05450  Biso   1.000  C
  H432     1.0000 0.90930  0.63970  0.03480  Biso   1.000  H
  C523     1.0000 0.92850  0.60640  0.09030  Biso   1.000  C
  H433     1.0000 0.96540  0.62520  0.09490  Biso   1.000  H
  C524     1.0000 0.85390  0.55770  0.11630  Biso   1.000  C
  H434     1.0000 0.84030  0.54140  0.14090  Biso   1.000  H
  C525     1.0000 0.81170  0.56270  0.08200  Biso   1.000  C
  H435     1.0000 0.77290  0.54540  0.08180  Biso   1.000  H
  N46      1.0000 0.92910  0.05267  0.75280  Biso   1.000  N
  C526     1.0000 0.88160  0.04800  0.78184  Biso   1.000  C
  C527     1.0000 0.92680  0.09090  0.72650  Biso   1.000  C
  H436     1.0000 0.88230  0.02140  0.80050  Biso   1.000  H
  C528     1.0000 0.83200  0.08150  0.78490  Biso   1.000  C
  C529     1.0000 0.87680  0.12320  0.72790  Biso   1.000  C
  H437     1.0000 0.95980  0.09570  0.70670  Biso   1.000  H
  H438     1.0000 0.80020  0.07770  0.80560  Biso   1.000  H
  C530     1.0000 0.82970  0.11950  0.75790  Biso   1.000  C
  H439     1.0000 0.87480  0.14840  0.70790  Biso   1.000  H
  C531     1.0000 0.77660  0.15710  0.75800  Biso   1.000  C
  O91      1.0000 0.77690  0.19177  0.73649  Biso   1.000  O
  O92      1.0000 0.73170  0.14497  0.78714  Biso   1.000  O
  C532     1.0000 0.68160  0.18060  0.79430  Biso   1.000  C
  H440     1.0000 0.65940  0.17330  0.82090  Biso   1.000  H
  H441     1.0000 0.70060  0.21300  0.79670  Biso   1.000  H
  C533     1.0000 0.63360  0.18010  0.75760  Biso   1.000  C
  C534     1.0000 0.60730  0.22320  0.74350  Biso   1.000  C
  C535     1.0000 0.61130  0.13860  0.74020  Biso   1.000  C
  C536     1.0000 0.56280  0.22480  0.71240  Biso   1.000  C
  H442     1.0000 0.62070  0.25250  0.75600  Biso   1.000  H
  H443     1.0000 0.62810  0.10890  0.74980  Biso   1.000  H
  C537     1.0000 0.56660  0.13770  0.71040  Biso   1.000  C
  C538     1.0000 0.53660  0.27380  0.69690  Biso   1.000  C
  C539     1.0000 0.54110  0.18180  0.69390  Biso   1.000  C
  C540     1.0000 0.54760  0.08670  0.68980  Biso   1.000  C
  O93      1.0000 0.57910  0.29068  0.66215  Biso   1.000  O
  H444     1.0000 0.53640  0.29750  0.72010  Biso   1.000  H
  H445     1.0000 0.49270  0.27000  0.68640  Biso   1.000  H
  H446     1.0000 0.51120  0.18190  0.67180  Biso   1.000  H
  O94      1.0000 0.49590  0.09650  0.65640  Biso   1.000  O
  H447     1.0000 0.53120  0.06460  0.71160  Biso   1.000  H
  H448     1.0000 0.58510  0.07160  0.67650  Biso   1.000  H
  C541     1.0000 0.57090  0.33470  0.64660  Biso   1.000  C
  C542     1.0000 0.45220  0.06310  0.65640  Biso   1.000  C
  O95      1.0000 0.53210  0.36169  0.66054  Biso   1.000  O
  C543     1.0000 0.61610  0.34520  0.61250  Biso   1.000  C
  O96      1.0000 0.42540  0.04780  0.68940  Biso   1.000  O
  C544     1.0000 0.41800  0.07730  0.61440  Biso   1.000  C
  C545     1.0000 0.59790  0.37600  0.58710  Biso   1.000  C
  C546     1.0000 0.67610  0.32090  0.61410  Biso   1.000  C
  C547     1.0000 0.40070  0.12500  0.59950  Biso   1.000  C
  C548     1.0000 0.40700  0.04290  0.58040  Biso   1.000  C
  C549     1.0000 0.63450  0.38940  0.55520  Biso   1.000  C
  H449     1.0000 0.55730  0.39010  0.59040  Biso   1.000  H
  H450     1.0000 0.68790  0.29860  0.63530  Biso   1.000  H
  C550     1.0000 0.71550  0.33440  0.57990  Biso   1.000  C
  C551     1.0000 0.35180  0.12870  0.56740  Biso   1.000  C
  H451     1.0000 0.42060  0.15300  0.61040  Biso   1.000  H
  H452     1.0000 0.43310  0.01520  0.57930  Biso   1.000  H
  C552     1.0000 0.35850  0.04840  0.54800  Biso   1.000  C
  N47      1.0000 0.69900  0.37020  0.54622  Biso   1.000  N
  H453     1.0000 0.61820  0.41310  0.53670  Biso   1.000  H
  H454     1.0000 0.75580  0.31950  0.57810  Biso   1.000  H
  N48      1.0000 0.32810  0.09550  0.54580  Biso   1.000  N
  H455     1.0000 0.33590  0.16000  0.56220  Biso   1.000  H
  H456     1.0000 0.34740  0.02290  0.52960  Biso   1.000  H
  C553     1.0000 0.68010  0.40160  0.57060  Biso   1.000  C
  H457     1.0000 0.69520  0.43340  0.56610  Biso   1.000  H
  C554     1.0000 0.63840  0.39450  0.60410  Biso   1.000  C
  H458     1.0000 0.62480  0.42070  0.62100  Biso   1.000  H
  C555     1.0000 0.63480  0.31160  0.58100  Biso   1.000  C
  H459     1.0000 0.62130  0.27920  0.58380  Biso   1.000  H
  C556     1.0000 0.67090  0.32370  0.54700  Biso   1.000  C
  H460     1.0000 0.67720  0.30170  0.52470  Biso   1.000  H
  C557     1.0000 0.39250  0.11750  0.55450  Biso   1.000  C
  H461     1.0000 0.40930  0.13970  0.53480  Biso   1.000  H
  C558     1.0000 0.42850  0.10640  0.59030  Biso   1.000  C
  H462     1.0000 0.46540  0.12520  0.59490  Biso   1.000  H
  C559     1.0000 0.35390  0.05770  0.61630  Biso   1.000  C
  H463     1.0000 0.34030  0.04140  0.64090  Biso   1.000  H
  C560     1.0000 0.31170  0.06270  0.58200  Biso   1.000  C
  H464     1.0000 0.27290  0.04540  0.58180  Biso   1.000  H
  Cu1      1.0000 0.00000  0.00000  0.25000  Biso   1.000  Cu
  Cu2      1.0000 0.50000  0.50000  0.75000  Biso   1.000  Cu
  Cu3      1.0000 0.00000  0.00000  0.75000  Biso   1.000  Cu
  Cu4      1.0000 0.50000  0.50000  0.25000  Biso   1.000  Cu
  Cu5      1.0000 0.23580  0.38789  0.00000  Biso   1.000  Cu
  Cu6      1.0000 0.73580  0.88789  0.50000  Biso   1.000  Cu
  Cu7      1.0000 0.76420  0.61211  0.00000  Biso   1.000  Cu
  Cu8      1.0000 0.26420  0.11211  0.50000  Biso   1.000  Cu
  Cu9      1.0000 0.26420  0.88789  0.00000  Biso   1.000  Cu
  Cu10     1.0000 0.76420  0.38789  0.50000  Biso   1.000  Cu
  Cu11     1.0000 0.73580  0.11211  0.00000  Biso   1.000  Cu
  Cu12     1.0000 0.23580  0.61211  0.50000  Biso   1.000  Cu
