data_image0
_cell_length_a       45.94
_cell_length_b       11.228
_cell_length_c       24.489
_cell_angle_alpha    90
_cell_angle_beta     98.809
_cell_angle_gamma    90

_symmetry_space_group_name_H-M    "P 1"
_symmetry_int_tables_number       1

loop_
  _symmetry_equiv_pos_as_xyz
  'x, y, z'

loop_
  _atom_site_label
  _atom_site_occupancy
  _atom_site_fract_x
  _atom_site_fract_y
  _atom_site_fract_z
  _atom_site_thermal_displace_type
  _atom_site_B_iso_or_equiv
  _atom_site_type_symbol
  Cd1      1.0000 0.01422  0.33746  0.05893  Biso   1.000  Cd
  Cd2      1.0000 0.21681  0.63792  0.07957  Biso   1.000  Cd
  N1       1.0000 0.04454  0.68170  0.49240  Biso   1.000  N
  O1       1.0000 0.01690  0.82980  0.96548  Biso   1.000  O
  N2       1.0000 0.04220  0.21620  0.12310  Biso   1.000  N
  O2       1.0000 0.02700  0.66620  0.01313  Biso   1.000  O
  N3       1.0000 0.19669  0.72130  0.15440  Biso   1.000  N
  N4       1.0000 0.18441  0.25730  0.51650  Biso   1.000  N
  O3       1.0000 0.48032  0.88870  0.10910  Biso   1.000  O
  O4       1.0000 0.08556  0.99050  0.24161  Biso   1.000  O
  O5       1.0000 0.10109  0.79300  0.38679  Biso   1.000  O
  C1       1.0000 0.11180  0.92870  0.08380  Biso   1.000  C
  C2       1.0000 0.14140  0.97290  0.36940  Biso   1.000  C
  C3       1.0000 0.09530  0.98930  0.04070  Biso   1.000  C
  H1       1.0000 0.10130  0.06360  0.02990  Biso   1.000  H
  O6       1.0000 0.15371  0.89280  0.26689  Biso   1.000  O
  C4       1.0000 0.06969  0.93800  0.01380  Biso   1.000  C
  H2       1.0000 0.05830  0.97830  0.98490  Biso   1.000  H
  C5       1.0000 0.06083  0.82510  0.02980  Biso   1.000  C
  C6       1.0000 0.07792  0.77070  0.07340  Biso   1.000  C
  H3       1.0000 0.07240  0.69630  0.08490  Biso   1.000  H
  C7       1.0000 0.10315  0.82330  0.10060  Biso   1.000  C
  H4       1.0000 0.11410  0.78530  0.13070  Biso   1.000  H
  O7       1.0000 0.25254  0.80220  0.08456  Biso   1.000  O
  C8       1.0000 0.03322  0.77160  0.00190  Biso   1.000  C
  O8       1.0000 0.26287  0.64610  0.13880  Biso   1.000  O
  C9       1.0000 0.03447  0.74160  0.44610  Biso   1.000  C
  H5       1.0000 0.01440  0.75780  0.43870  Biso   1.000  H
  O9       1.0000 0.37160  0.97750  0.23320  Biso   1.000  O
  C10      1.0000 0.07326  0.65530  0.50010  Biso   1.000  C
  H6       1.0000 0.08070  0.60990  0.53090  Biso   1.000  H
  O10      1.0000 0.49905  0.03720  0.16290  Biso   1.000  O
  C11      1.0000 0.06028  0.26140  0.16520  Biso   1.000  C
  H7       1.0000 0.06280  0.34360  0.16700  Biso   1.000  H
  C12      1.0000 0.07567  0.19200  0.20660  Biso   1.000  C
  H8       1.0000 0.08820  0.22710  0.23560  Biso   1.000  H
  C13      1.0000 0.07215  0.07150  0.20430  Biso   1.000  C
  C14      1.0000 0.05365  0.02300  0.15950  Biso   1.000  C
  H9       1.0000 0.05170  0.94090  0.15550  Biso   1.000  H
  C15      1.0000 0.03850  0.09790  0.12170  Biso   1.000  C
  H10      1.0000 0.02500  0.06550  0.09350  Biso   1.000  H
  C16      1.0000 0.10596  0.03640  0.28620  Biso   1.000  C
  H11      1.0000 0.09640  0.09420  0.30690  Biso   1.000  H
  H12      1.0000 0.12220  0.07510  0.27230  Biso   1.000  H
  C17      1.0000 0.11713  0.93050  0.32300  Biso   1.000  C
  C18      1.0000 0.09107  0.87910  0.34530  Biso   1.000  C
  H13      1.0000 0.08050  0.94210  0.36090  Biso   1.000  H
  H14      1.0000 0.07780  0.84180  0.31560  Biso   1.000  H
  C19      1.0000 0.08134  0.75600  0.41950  Biso   1.000  C
  C20      1.0000 0.09240  0.69030  0.46600  Biso   1.000  C
  H15      1.0000 0.11230  0.67070  0.47370  Biso   1.000  H
  C21      1.0000 0.05172  0.78060  0.40900  Biso   1.000  C
  H16      1.0000 0.04360  0.82250  0.37750  Biso   1.000  H
  O11      1.0000 0.12930  0.06880  0.39864  Biso   1.000  O
  C22      1.0000 0.14823  0.12670  0.43720  Biso   1.000  C
  C23      1.0000 0.13718  0.21620  0.46520  Biso   1.000  C
  H17      1.0000 0.11720  0.23510  0.45790  Biso   1.000  H
  C24      1.0000 0.17778  0.09980  0.44900  Biso   1.000  C
  H18      1.0000 0.18590  0.03880  0.43060  Biso   1.000  H
  C25      1.0000 0.13098  0.83660  0.29030  Biso   1.000  C
  H19      1.0000 0.13900  0.77220  0.31440  Biso   1.000  H
  H20      1.0000 0.11630  0.80400  0.26150  Biso   1.000  H
  C26      1.0000 0.16786  0.83050  0.23090  Biso   1.000  C
  C27      1.0000 0.18782  0.89250  0.20630  Biso   1.000  C
  H21      1.0000 0.19190  0.97200  0.21500  Biso   1.000  H
  C28      1.0000 0.20167  0.83410  0.16820  Biso   1.000  C
  H22      1.0000 0.21530  0.87610  0.15120  Biso   1.000  H
  C29      1.0000 0.17733  0.66240  0.17970  Biso   1.000  C
  H23      1.0000 0.17390  0.58270  0.17070  Biso   1.000  H
  C30      1.0000 0.16244  0.71100  0.21750  Biso   1.000  C
  H24      1.0000 0.14910  0.66650  0.23400  Biso   1.000  H
  C31      1.0000 0.15577  0.27890  0.50440  Biso   1.000  C
  H25      1.0000 0.14780  0.33960  0.52340  Biso   1.000  H
  C32      1.0000 0.19482  0.16630  0.48910  Biso   1.000  C
  H26      1.0000 0.21470  0.14720  0.49790  Biso   1.000  H
  C33      1.0000 0.26866  0.74790  0.12250  Biso   1.000  C
  C34      1.0000 0.29633  0.80780  0.15170  Biso   1.000  C
  C35      1.0000 0.30368  0.92070  0.13650  Biso   1.000  C
  H27      1.0000 0.29190  0.95910  0.10760  Biso   1.000  H
  C36      1.0000 0.32823  0.97720  0.16360  Biso   1.000  C
  H28      1.0000 0.33260  0.05470  0.15430  Biso   1.000  H
  C37      1.0000 0.34587  0.91910  0.20370  Biso   1.000  C
  C38      1.0000 0.33887  0.80900  0.22040  Biso   1.000  C
  H29      1.0000 0.35040  0.77190  0.25010  Biso   1.000  H
  C39      1.0000 0.31479  0.75440  0.19270  Biso   1.000  C
  H30      1.0000 0.31080  0.67670  0.20230  Biso   1.000  H
  C40      1.0000 0.39712  0.97530  0.20780  Biso   1.000  C
  C41      1.0000 0.39937  0.91340  0.16070  Biso   1.000  C
  H31      1.0000 0.38340  0.87010  0.14310  Biso   1.000  H
  C42      1.0000 0.42563  0.91530  0.13930  Biso   1.000  C
  H32      1.0000 0.42700  0.87550  0.10640  Biso   1.000  H
  C43      1.0000 0.44990  0.97610  0.16640  Biso   1.000  C
  C44      1.0000 0.44670  0.03650  0.21490  Biso   1.000  C
  H33      1.0000 0.46260  0.07870  0.23380  Biso   1.000  H
  C45      1.0000 0.42091  0.03440  0.23490  Biso   1.000  C
  H34      1.0000 0.41940  0.07390  0.26770  Biso   1.000  H
  C46      1.0000 0.47852  0.96960  0.14450  Biso   1.000  C
  C47      1.0000 0.18540  0.41780  0.08980  Biso   1.000  C
  O12      1.0000 0.16720  0.50300  0.08090  Biso   1.000  O
  O13      1.0000 0.21240  0.43420  0.09300  Biso   1.000  O
  C48      1.0000 0.17482  0.29000  0.08460  Biso   1.000  C
  C49      1.0000 0.15120  0.28340  0.11000  Biso   1.000  C
  H35      1.0000 0.14330  0.35110  0.12380  Biso   1.000  H
  C50      1.0000 0.18720  0.19080  0.07240  Biso   1.000  C
  H36      1.0000 0.20500  0.19550  0.05920  Biso   1.000  H
  C51      1.0000 0.15050  0.07600  0.09660  Biso   1.000  C
  C52      1.0000 0.13860  0.16790  0.11520  Biso   1.000  C
  H37      1.0000 0.12180  0.15970  0.13190  Biso   1.000  H
  C53      1.0000 0.17540  0.08050  0.07800  Biso   1.000  C
  H38      1.0000 0.18480  0.01180  0.06880  Biso   1.000  H
  O14      1.0000 0.13780  0.96920  0.11150  Biso   1.000  O
  O15      1.0000 0.19510  0.47560  0.08960  Biso   1.000  O
  O16      1.0000 0.20440  0.37590  0.01780  Biso   1.000  O
  C54      1.0000 0.19230  0.39020  0.06190  Biso   1.000  C
  Cd3      1.0000 0.51422  0.83746  0.05893  Biso   1.000  Cd
  Cd4      1.0000 0.71681  0.13792  0.07957  Biso   1.000  Cd
  N5       1.0000 0.54454  0.18170  0.49240  Biso   1.000  N
  O17      1.0000 0.51690  0.32980  0.96548  Biso   1.000  O
  N6       1.0000 0.54220  0.71620  0.12310  Biso   1.000  N
  O18      1.0000 0.52700  0.16620  0.01313  Biso   1.000  O
  N7       1.0000 0.69669  0.22130  0.15440  Biso   1.000  N
  N8       1.0000 0.68441  0.75730  0.51650  Biso   1.000  N
  O19      1.0000 0.98032  0.38870  0.10910  Biso   1.000  O
  O20      1.0000 0.58556  0.49050  0.24161  Biso   1.000  O
  O21      1.0000 0.60109  0.29300  0.38679  Biso   1.000  O
  C55      1.0000 0.61180  0.42870  0.08380  Biso   1.000  C
  C56      1.0000 0.64140  0.47290  0.36940  Biso   1.000  C
  C57      1.0000 0.59530  0.48930  0.04070  Biso   1.000  C
  H39      1.0000 0.60130  0.56360  0.02990  Biso   1.000  H
  O22      1.0000 0.65371  0.39280  0.26689  Biso   1.000  O
  C58      1.0000 0.56969  0.43800  0.01380  Biso   1.000  C
  H40      1.0000 0.55830  0.47830  0.98490  Biso   1.000  H
  C59      1.0000 0.56083  0.32510  0.02980  Biso   1.000  C
  C60      1.0000 0.57792  0.27070  0.07340  Biso   1.000  C
  H41      1.0000 0.57240  0.19630  0.08490  Biso   1.000  H
  C61      1.0000 0.60315  0.32330  0.10060  Biso   1.000  C
  H42      1.0000 0.61410  0.28530  0.13070  Biso   1.000  H
  O23      1.0000 0.75254  0.30220  0.08456  Biso   1.000  O
  C62      1.0000 0.53322  0.27160  0.00190  Biso   1.000  C
  O24      1.0000 0.76287  0.14610  0.13880  Biso   1.000  O
  C63      1.0000 0.53447  0.24160  0.44610  Biso   1.000  C
  H43      1.0000 0.51440  0.25780  0.43870  Biso   1.000  H
  O25      1.0000 0.87160  0.47750  0.23320  Biso   1.000  O
  C64      1.0000 0.57326  0.15530  0.50010  Biso   1.000  C
  H44      1.0000 0.58070  0.10990  0.53090  Biso   1.000  H
  O26      1.0000 0.99905  0.53720  0.16290  Biso   1.000  O
  C65      1.0000 0.56028  0.76140  0.16520  Biso   1.000  C
  H45      1.0000 0.56280  0.84360  0.16700  Biso   1.000  H
  C66      1.0000 0.57567  0.69200  0.20660  Biso   1.000  C
  H46      1.0000 0.58820  0.72710  0.23560  Biso   1.000  H
  C67      1.0000 0.57215  0.57150  0.20430  Biso   1.000  C
  C68      1.0000 0.55365  0.52300  0.15950  Biso   1.000  C
  H47      1.0000 0.55170  0.44090  0.15550  Biso   1.000  H
  C69      1.0000 0.53850  0.59790  0.12170  Biso   1.000  C
  H48      1.0000 0.52500  0.56550  0.09350  Biso   1.000  H
  C70      1.0000 0.60596  0.53640  0.28620  Biso   1.000  C
  H49      1.0000 0.59640  0.59420  0.30690  Biso   1.000  H
  H50      1.0000 0.62220  0.57510  0.27230  Biso   1.000  H
  C71      1.0000 0.61713  0.43050  0.32300  Biso   1.000  C
  C72      1.0000 0.59107  0.37910  0.34530  Biso   1.000  C
  H51      1.0000 0.58050  0.44210  0.36090  Biso   1.000  H
  H52      1.0000 0.57780  0.34180  0.31560  Biso   1.000  H
  C73      1.0000 0.58134  0.25600  0.41950  Biso   1.000  C
  C74      1.0000 0.59240  0.19030  0.46600  Biso   1.000  C
  H53      1.0000 0.61230  0.17070  0.47370  Biso   1.000  H
  C75      1.0000 0.55172  0.28060  0.40900  Biso   1.000  C
  H54      1.0000 0.54360  0.32250  0.37750  Biso   1.000  H
  O27      1.0000 0.62930  0.56880  0.39864  Biso   1.000  O
  C76      1.0000 0.64823  0.62670  0.43720  Biso   1.000  C
  C77      1.0000 0.63718  0.71620  0.46520  Biso   1.000  C
  H55      1.0000 0.61720  0.73510  0.45790  Biso   1.000  H
  C78      1.0000 0.67778  0.59980  0.44900  Biso   1.000  C
  H56      1.0000 0.68590  0.53880  0.43060  Biso   1.000  H
  C79      1.0000 0.63098  0.33660  0.29030  Biso   1.000  C
  H57      1.0000 0.63900  0.27220  0.31440  Biso   1.000  H
  H58      1.0000 0.61630  0.30400  0.26150  Biso   1.000  H
  C80      1.0000 0.66786  0.33050  0.23090  Biso   1.000  C
  C81      1.0000 0.68782  0.39250  0.20630  Biso   1.000  C
  H59      1.0000 0.69190  0.47200  0.21500  Biso   1.000  H
  C82      1.0000 0.70167  0.33410  0.16820  Biso   1.000  C
  H60      1.0000 0.71530  0.37610  0.15120  Biso   1.000  H
  C83      1.0000 0.67733  0.16240  0.17970  Biso   1.000  C
  H61      1.0000 0.67390  0.08270  0.17070  Biso   1.000  H
  C84      1.0000 0.66244  0.21100  0.21750  Biso   1.000  C
  H62      1.0000 0.64910  0.16650  0.23400  Biso   1.000  H
  C85      1.0000 0.65577  0.77890  0.50440  Biso   1.000  C
  H63      1.0000 0.64780  0.83960  0.52340  Biso   1.000  H
  C86      1.0000 0.69482  0.66630  0.48910  Biso   1.000  C
  H64      1.0000 0.71470  0.64720  0.49790  Biso   1.000  H
  C87      1.0000 0.76866  0.24790  0.12250  Biso   1.000  C
  C88      1.0000 0.79633  0.30780  0.15170  Biso   1.000  C
  C89      1.0000 0.80368  0.42070  0.13650  Biso   1.000  C
  H65      1.0000 0.79190  0.45910  0.10760  Biso   1.000  H
  C90      1.0000 0.82823  0.47720  0.16360  Biso   1.000  C
  H66      1.0000 0.83260  0.55470  0.15430  Biso   1.000  H
  C91      1.0000 0.84587  0.41910  0.20370  Biso   1.000  C
  C92      1.0000 0.83887  0.30900  0.22040  Biso   1.000  C
  H67      1.0000 0.85040  0.27190  0.25010  Biso   1.000  H
  C93      1.0000 0.81479  0.25440  0.19270  Biso   1.000  C
  H68      1.0000 0.81080  0.17670  0.20230  Biso   1.000  H
  C94      1.0000 0.89712  0.47530  0.20780  Biso   1.000  C
  C95      1.0000 0.89937  0.41340  0.16070  Biso   1.000  C
  H69      1.0000 0.88340  0.37010  0.14310  Biso   1.000  H
  C96      1.0000 0.92563  0.41530  0.13930  Biso   1.000  C
  H70      1.0000 0.92700  0.37550  0.10640  Biso   1.000  H
  C97      1.0000 0.94990  0.47610  0.16640  Biso   1.000  C
  C98      1.0000 0.94670  0.53650  0.21490  Biso   1.000  C
  H71      1.0000 0.96260  0.57870  0.23380  Biso   1.000  H
  C99      1.0000 0.92091  0.53440  0.23490  Biso   1.000  C
  H72      1.0000 0.91940  0.57390  0.26770  Biso   1.000  H
  C100     1.0000 0.97852  0.46960  0.14450  Biso   1.000  C
  C101     1.0000 0.68540  0.91780  0.08980  Biso   1.000  C
  O28      1.0000 0.66720  0.00300  0.08090  Biso   1.000  O
  O29      1.0000 0.71240  0.93420  0.09300  Biso   1.000  O
  C102     1.0000 0.67482  0.79000  0.08460  Biso   1.000  C
  C103     1.0000 0.65120  0.78340  0.11000  Biso   1.000  C
  H73      1.0000 0.64330  0.85110  0.12380  Biso   1.000  H
  C104     1.0000 0.68720  0.69080  0.07240  Biso   1.000  C
  H74      1.0000 0.70500  0.69550  0.05920  Biso   1.000  H
  C105     1.0000 0.65050  0.57600  0.09660  Biso   1.000  C
  C106     1.0000 0.63860  0.66790  0.11520  Biso   1.000  C
  H75      1.0000 0.62180  0.65970  0.13190  Biso   1.000  H
  C107     1.0000 0.67540  0.58050  0.07800  Biso   1.000  C
  H76      1.0000 0.68480  0.51180  0.06880  Biso   1.000  H
  O30      1.0000 0.63780  0.46920  0.11150  Biso   1.000  O
  O31      1.0000 0.69510  0.97560  0.08960  Biso   1.000  O
  O32      1.0000 0.70440  0.87590  0.01780  Biso   1.000  O
  C108     1.0000 0.69230  0.89020  0.06190  Biso   1.000  C
  Cd5      1.0000 0.98578  0.33746  0.44107  Biso   1.000  Cd
  Cd6      1.0000 0.78319  0.63792  0.42043  Biso   1.000  Cd
  N9       1.0000 0.95546  0.68170  0.00760  Biso   1.000  N
  O33      1.0000 0.98310  0.82980  0.53452  Biso   1.000  O
  N10      1.0000 0.95780  0.21620  0.37690  Biso   1.000  N
  O34      1.0000 0.97300  0.66620  0.48687  Biso   1.000  O
  N11      1.0000 0.80331  0.72130  0.34560  Biso   1.000  N
  N12      1.0000 0.81559  0.25730  0.98350  Biso   1.000  N
  O35      1.0000 0.51968  0.88870  0.39090  Biso   1.000  O
  O36      1.0000 0.91444  0.99050  0.25839  Biso   1.000  O
  O37      1.0000 0.89891  0.79300  0.11321  Biso   1.000  O
  C109     1.0000 0.88820  0.92870  0.41620  Biso   1.000  C
  C110     1.0000 0.85860  0.97290  0.13060  Biso   1.000  C
  C111     1.0000 0.90470  0.98930  0.45930  Biso   1.000  C
  H77      1.0000 0.89870  0.06360  0.47010  Biso   1.000  H
  O38      1.0000 0.84629  0.89280  0.23311  Biso   1.000  O
  C112     1.0000 0.93031  0.93800  0.48620  Biso   1.000  C
  H78      1.0000 0.94170  0.97830  0.51510  Biso   1.000  H
  C113     1.0000 0.93917  0.82510  0.47020  Biso   1.000  C
  C114     1.0000 0.92208  0.77070  0.42660  Biso   1.000  C
  H79      1.0000 0.92760  0.69630  0.41510  Biso   1.000  H
  C115     1.0000 0.89685  0.82330  0.39940  Biso   1.000  C
  H80      1.0000 0.88590  0.78530  0.36930  Biso   1.000  H
  O39      1.0000 0.74746  0.80220  0.41544  Biso   1.000  O
  C116     1.0000 0.96678  0.77160  0.49810  Biso   1.000  C
  O40      1.0000 0.73713  0.64610  0.36120  Biso   1.000  O
  C117     1.0000 0.96553  0.74160  0.05390  Biso   1.000  C
  H81      1.0000 0.98560  0.75780  0.06130  Biso   1.000  H
  O41      1.0000 0.62840  0.97750  0.26680  Biso   1.000  O
  C118     1.0000 0.92674  0.65530  0.99990  Biso   1.000  C
  H82      1.0000 0.91930  0.60990  0.96910  Biso   1.000  H
  O42      1.0000 0.50095  0.03720  0.33710  Biso   1.000  O
  C119     1.0000 0.93972  0.26140  0.33480  Biso   1.000  C
  H83      1.0000 0.93720  0.34360  0.33300  Biso   1.000  H
  C120     1.0000 0.92433  0.19200  0.29340  Biso   1.000  C
  H84      1.0000 0.91180  0.22710  0.26440  Biso   1.000  H
  C121     1.0000 0.92785  0.07150  0.29570  Biso   1.000  C
  C122     1.0000 0.94635  0.02300  0.34050  Biso   1.000  C
  H85      1.0000 0.94830  0.94090  0.34450  Biso   1.000  H
  C123     1.0000 0.96150  0.09790  0.37830  Biso   1.000  C
  H86      1.0000 0.97500  0.06550  0.40650  Biso   1.000  H
  C124     1.0000 0.89404  0.03640  0.21380  Biso   1.000  C
  H87      1.0000 0.90360  0.09420  0.19310  Biso   1.000  H
  H88      1.0000 0.87780  0.07510  0.22770  Biso   1.000  H
  C125     1.0000 0.88287  0.93050  0.17700  Biso   1.000  C
  C126     1.0000 0.90893  0.87910  0.15470  Biso   1.000  C
  H89      1.0000 0.91950  0.94210  0.13910  Biso   1.000  H
  H90      1.0000 0.92220  0.84180  0.18440  Biso   1.000  H
  C127     1.0000 0.91866  0.75600  0.08050  Biso   1.000  C
  C128     1.0000 0.90760  0.69030  0.03400  Biso   1.000  C
  H91      1.0000 0.88770  0.67070  0.02630  Biso   1.000  H
  C129     1.0000 0.94828  0.78060  0.09100  Biso   1.000  C
  H92      1.0000 0.95640  0.82250  0.12250  Biso   1.000  H
  O43      1.0000 0.87070  0.06880  0.10136  Biso   1.000  O
  C130     1.0000 0.85177  0.12670  0.06280  Biso   1.000  C
  C131     1.0000 0.86282  0.21620  0.03480  Biso   1.000  C
  H93      1.0000 0.88280  0.23510  0.04210  Biso   1.000  H
  C132     1.0000 0.82222  0.09980  0.05100  Biso   1.000  C
  H94      1.0000 0.81410  0.03880  0.06940  Biso   1.000  H
  C133     1.0000 0.86902  0.83660  0.20970  Biso   1.000  C
  H95      1.0000 0.86100  0.77220  0.18560  Biso   1.000  H
  H96      1.0000 0.88370  0.80400  0.23850  Biso   1.000  H
  C134     1.0000 0.83214  0.83050  0.26910  Biso   1.000  C
  C135     1.0000 0.81218  0.89250  0.29370  Biso   1.000  C
  H97      1.0000 0.80810  0.97200  0.28500  Biso   1.000  H
  C136     1.0000 0.79833  0.83410  0.33180  Biso   1.000  C
  H98      1.0000 0.78470  0.87610  0.34880  Biso   1.000  H
  C137     1.0000 0.82267  0.66240  0.32030  Biso   1.000  C
  H99      1.0000 0.82610  0.58270  0.32930  Biso   1.000  H
  C138     1.0000 0.83756  0.71100  0.28250  Biso   1.000  C
  H100     1.0000 0.85090  0.66650  0.26600  Biso   1.000  H
  C139     1.0000 0.84423  0.27890  0.99560  Biso   1.000  C
  H101     1.0000 0.85220  0.33960  0.97660  Biso   1.000  H
  C140     1.0000 0.80518  0.16630  0.01090  Biso   1.000  C
  H102     1.0000 0.78530  0.14720  0.00210  Biso   1.000  H
  C141     1.0000 0.73134  0.74790  0.37750  Biso   1.000  C
  C142     1.0000 0.70367  0.80780  0.34830  Biso   1.000  C
  C143     1.0000 0.69632  0.92070  0.36350  Biso   1.000  C
  H103     1.0000 0.70810  0.95910  0.39240  Biso   1.000  H
  C144     1.0000 0.67177  0.97720  0.33640  Biso   1.000  C
  H104     1.0000 0.66740  0.05470  0.34570  Biso   1.000  H
  C145     1.0000 0.65413  0.91910  0.29630  Biso   1.000  C
  C146     1.0000 0.66113  0.80900  0.27960  Biso   1.000  C
  H105     1.0000 0.64960  0.77190  0.24990  Biso   1.000  H
  C147     1.0000 0.68521  0.75440  0.30730  Biso   1.000  C
  H106     1.0000 0.68920  0.67670  0.29770  Biso   1.000  H
  C148     1.0000 0.60288  0.97530  0.29220  Biso   1.000  C
  C149     1.0000 0.60063  0.91340  0.33930  Biso   1.000  C
  H107     1.0000 0.61660  0.87010  0.35690  Biso   1.000  H
  C150     1.0000 0.57437  0.91530  0.36070  Biso   1.000  C
  H108     1.0000 0.57300  0.87550  0.39360  Biso   1.000  H
  C151     1.0000 0.55010  0.97610  0.33360  Biso   1.000  C
  C152     1.0000 0.55330  0.03650  0.28510  Biso   1.000  C
  H109     1.0000 0.53740  0.07870  0.26620  Biso   1.000  H
  C153     1.0000 0.57909  0.03440  0.26510  Biso   1.000  C
  H110     1.0000 0.58060  0.07390  0.23230  Biso   1.000  H
  C154     1.0000 0.52148  0.96960  0.35550  Biso   1.000  C
  C155     1.0000 0.81460  0.41780  0.41020  Biso   1.000  C
  O44      1.0000 0.83280  0.50300  0.41910  Biso   1.000  O
  O45      1.0000 0.78760  0.43420  0.40700  Biso   1.000  O
  C156     1.0000 0.82518  0.29000  0.41540  Biso   1.000  C
  C157     1.0000 0.84880  0.28340  0.39000  Biso   1.000  C
  H111     1.0000 0.85670  0.35110  0.37620  Biso   1.000  H
  C158     1.0000 0.81280  0.19080  0.42760  Biso   1.000  C
  H112     1.0000 0.79500  0.19550  0.44080  Biso   1.000  H
  C159     1.0000 0.84950  0.07600  0.40340  Biso   1.000  C
  C160     1.0000 0.86140  0.16790  0.38480  Biso   1.000  C
  H113     1.0000 0.87820  0.15970  0.36810  Biso   1.000  H
  C161     1.0000 0.82460  0.08050  0.42200  Biso   1.000  C
  H114     1.0000 0.81520  0.01180  0.43120  Biso   1.000  H
  O46      1.0000 0.86220  0.96920  0.38850  Biso   1.000  O
  O47      1.0000 0.80490  0.47560  0.41040  Biso   1.000  O
  O48      1.0000 0.79560  0.37590  0.48220  Biso   1.000  O
  C162     1.0000 0.80770  0.39020  0.43810  Biso   1.000  C
  Cd7      1.0000 0.48578  0.83746  0.44107  Biso   1.000  Cd
  Cd8      1.0000 0.28319  0.13792  0.42043  Biso   1.000  Cd
  N13      1.0000 0.45546  0.18170  0.00760  Biso   1.000  N
  O49      1.0000 0.48310  0.32980  0.53452  Biso   1.000  O
  N14      1.0000 0.45780  0.71620  0.37690  Biso   1.000  N
  O50      1.0000 0.47300  0.16620  0.48687  Biso   1.000  O
  N15      1.0000 0.30331  0.22130  0.34560  Biso   1.000  N
  N16      1.0000 0.31559  0.75730  0.98350  Biso   1.000  N
  O51      1.0000 0.01968  0.38870  0.39090  Biso   1.000  O
  O52      1.0000 0.41444  0.49050  0.25839  Biso   1.000  O
  O53      1.0000 0.39891  0.29300  0.11321  Biso   1.000  O
  C163     1.0000 0.38820  0.42870  0.41620  Biso   1.000  C
  C164     1.0000 0.35860  0.47290  0.13060  Biso   1.000  C
  C165     1.0000 0.40470  0.48930  0.45930  Biso   1.000  C
  H115     1.0000 0.39870  0.56360  0.47010  Biso   1.000  H
  O54      1.0000 0.34629  0.39280  0.23311  Biso   1.000  O
  C166     1.0000 0.43031  0.43800  0.48620  Biso   1.000  C
  H116     1.0000 0.44170  0.47830  0.51510  Biso   1.000  H
  C167     1.0000 0.43917  0.32510  0.47020  Biso   1.000  C
  C168     1.0000 0.42208  0.27070  0.42660  Biso   1.000  C
  H117     1.0000 0.42760  0.19630  0.41510  Biso   1.000  H
  C169     1.0000 0.39685  0.32330  0.39940  Biso   1.000  C
  H118     1.0000 0.38590  0.28530  0.36930  Biso   1.000  H
  O55      1.0000 0.24746  0.30220  0.41544  Biso   1.000  O
  C170     1.0000 0.46678  0.27160  0.49810  Biso   1.000  C
  O56      1.0000 0.23713  0.14610  0.36120  Biso   1.000  O
  C171     1.0000 0.46553  0.24160  0.05390  Biso   1.000  C
  H119     1.0000 0.48560  0.25780  0.06130  Biso   1.000  H
  O57      1.0000 0.12840  0.47750  0.26680  Biso   1.000  O
  C172     1.0000 0.42674  0.15530  0.99990  Biso   1.000  C
  H120     1.0000 0.41930  0.10990  0.96910  Biso   1.000  H
  O58      1.0000 0.00095  0.53720  0.33710  Biso   1.000  O
  C173     1.0000 0.43972  0.76140  0.33480  Biso   1.000  C
  H121     1.0000 0.43720  0.84360  0.33300  Biso   1.000  H
  C174     1.0000 0.42433  0.69200  0.29340  Biso   1.000  C
  H122     1.0000 0.41180  0.72710  0.26440  Biso   1.000  H
  C175     1.0000 0.42785  0.57150  0.29570  Biso   1.000  C
  C176     1.0000 0.44635  0.52300  0.34050  Biso   1.000  C
  H123     1.0000 0.44830  0.44090  0.34450  Biso   1.000  H
  C177     1.0000 0.46150  0.59790  0.37830  Biso   1.000  C
  H124     1.0000 0.47500  0.56550  0.40650  Biso   1.000  H
  C178     1.0000 0.39404  0.53640  0.21380  Biso   1.000  C
  H125     1.0000 0.40360  0.59420  0.19310  Biso   1.000  H
  H126     1.0000 0.37780  0.57510  0.22770  Biso   1.000  H
  C179     1.0000 0.38287  0.43050  0.17700  Biso   1.000  C
  C180     1.0000 0.40893  0.37910  0.15470  Biso   1.000  C
  H127     1.0000 0.41950  0.44210  0.13910  Biso   1.000  H
  H128     1.0000 0.42220  0.34180  0.18440  Biso   1.000  H
  C181     1.0000 0.41866  0.25600  0.08050  Biso   1.000  C
  C182     1.0000 0.40760  0.19030  0.03400  Biso   1.000  C
  H129     1.0000 0.38770  0.17070  0.02630  Biso   1.000  H
  C183     1.0000 0.44828  0.28060  0.09100  Biso   1.000  C
  H130     1.0000 0.45640  0.32250  0.12250  Biso   1.000  H
  O59      1.0000 0.37070  0.56880  0.10136  Biso   1.000  O
  C184     1.0000 0.35177  0.62670  0.06280  Biso   1.000  C
  C185     1.0000 0.36282  0.71620  0.03480  Biso   1.000  C
  H131     1.0000 0.38280  0.73510  0.04210  Biso   1.000  H
  C186     1.0000 0.32222  0.59980  0.05100  Biso   1.000  C
  H132     1.0000 0.31410  0.53880  0.06940  Biso   1.000  H
  C187     1.0000 0.36902  0.33660  0.20970  Biso   1.000  C
  H133     1.0000 0.36100  0.27220  0.18560  Biso   1.000  H
  H134     1.0000 0.38370  0.30400  0.23850  Biso   1.000  H
  C188     1.0000 0.33214  0.33050  0.26910  Biso   1.000  C
  C189     1.0000 0.31218  0.39250  0.29370  Biso   1.000  C
  H135     1.0000 0.30810  0.47200  0.28500  Biso   1.000  H
  C190     1.0000 0.29833  0.33410  0.33180  Biso   1.000  C
  H136     1.0000 0.28470  0.37610  0.34880  Biso   1.000  H
  C191     1.0000 0.32267  0.16240  0.32030  Biso   1.000  C
  H137     1.0000 0.32610  0.08270  0.32930  Biso   1.000  H
  C192     1.0000 0.33756  0.21100  0.28250  Biso   1.000  C
  H138     1.0000 0.35090  0.16650  0.26600  Biso   1.000  H
  C193     1.0000 0.34423  0.77890  0.99560  Biso   1.000  C
  H139     1.0000 0.35220  0.83960  0.97660  Biso   1.000  H
  C194     1.0000 0.30518  0.66630  0.01090  Biso   1.000  C
  H140     1.0000 0.28530  0.64720  0.00210  Biso   1.000  H
  C195     1.0000 0.23134  0.24790  0.37750  Biso   1.000  C
  C196     1.0000 0.20367  0.30780  0.34830  Biso   1.000  C
  C197     1.0000 0.19632  0.42070  0.36350  Biso   1.000  C
  H141     1.0000 0.20810  0.45910  0.39240  Biso   1.000  H
  C198     1.0000 0.17177  0.47720  0.33640  Biso   1.000  C
  H142     1.0000 0.16740  0.55470  0.34570  Biso   1.000  H
  C199     1.0000 0.15413  0.41910  0.29630  Biso   1.000  C
  C200     1.0000 0.16113  0.30900  0.27960  Biso   1.000  C
  H143     1.0000 0.14960  0.27190  0.24990  Biso   1.000  H
  C201     1.0000 0.18521  0.25440  0.30730  Biso   1.000  C
  H144     1.0000 0.18920  0.17670  0.29770  Biso   1.000  H
  C202     1.0000 0.10288  0.47530  0.29220  Biso   1.000  C
  C203     1.0000 0.10063  0.41340  0.33930  Biso   1.000  C
  H145     1.0000 0.11660  0.37010  0.35690  Biso   1.000  H
  C204     1.0000 0.07437  0.41530  0.36070  Biso   1.000  C
  H146     1.0000 0.07300  0.37550  0.39360  Biso   1.000  H
  C205     1.0000 0.05010  0.47610  0.33360  Biso   1.000  C
  C206     1.0000 0.05330  0.53650  0.28510  Biso   1.000  C
  H147     1.0000 0.03740  0.57870  0.26620  Biso   1.000  H
  C207     1.0000 0.07909  0.53440  0.26510  Biso   1.000  C
  H148     1.0000 0.08060  0.57390  0.23230  Biso   1.000  H
  C208     1.0000 0.02148  0.46960  0.35550  Biso   1.000  C
  C209     1.0000 0.31460  0.91780  0.41020  Biso   1.000  C
  O60      1.0000 0.33280  0.00300  0.41910  Biso   1.000  O
  O61      1.0000 0.28760  0.93420  0.40700  Biso   1.000  O
  C210     1.0000 0.32518  0.79000  0.41540  Biso   1.000  C
  C211     1.0000 0.34880  0.78340  0.39000  Biso   1.000  C
  H149     1.0000 0.35670  0.85110  0.37620  Biso   1.000  H
  C212     1.0000 0.31280  0.69080  0.42760  Biso   1.000  C
  H150     1.0000 0.29500  0.69550  0.44080  Biso   1.000  H
  C213     1.0000 0.34950  0.57600  0.40340  Biso   1.000  C
  C214     1.0000 0.36140  0.66790  0.38480  Biso   1.000  C
  H151     1.0000 0.37820  0.65970  0.36810  Biso   1.000  H
  C215     1.0000 0.32460  0.58050  0.42200  Biso   1.000  C
  H152     1.0000 0.31520  0.51180  0.43120  Biso   1.000  H
  O62      1.0000 0.36220  0.46920  0.38850  Biso   1.000  O
  O63      1.0000 0.30490  0.97560  0.41040  Biso   1.000  O
  O64      1.0000 0.29560  0.87590  0.48220  Biso   1.000  O
  C216     1.0000 0.30770  0.89020  0.43810  Biso   1.000  C
  Cd9      1.0000 0.98578  0.66254  0.94107  Biso   1.000  Cd
  Cd10     1.0000 0.78319  0.36208  0.92043  Biso   1.000  Cd
  N17      1.0000 0.95546  0.31830  0.50760  Biso   1.000  N
  O65      1.0000 0.98310  0.17020  0.03452  Biso   1.000  O
  N18      1.0000 0.95780  0.78380  0.87690  Biso   1.000  N
  O66      1.0000 0.97300  0.33380  0.98687  Biso   1.000  O
  N19      1.0000 0.80331  0.27870  0.84560  Biso   1.000  N
  N20      1.0000 0.81559  0.74270  0.48350  Biso   1.000  N
  O67      1.0000 0.51968  0.11130  0.89090  Biso   1.000  O
  O68      1.0000 0.91444  0.00950  0.75839  Biso   1.000  O
  O69      1.0000 0.89891  0.20700  0.61321  Biso   1.000  O
  C217     1.0000 0.88820  0.07130  0.91620  Biso   1.000  C
  C218     1.0000 0.85860  0.02710  0.63060  Biso   1.000  C
  C219     1.0000 0.90470  0.01070  0.95930  Biso   1.000  C
  H153     1.0000 0.89870  0.93640  0.97010  Biso   1.000  H
  O70      1.0000 0.84629  0.10720  0.73311  Biso   1.000  O
  C220     1.0000 0.93031  0.06200  0.98620  Biso   1.000  C
  H154     1.0000 0.94170  0.02170  0.01510  Biso   1.000  H
  C221     1.0000 0.93917  0.17490  0.97020  Biso   1.000  C
  C222     1.0000 0.92208  0.22930  0.92660  Biso   1.000  C
  H155     1.0000 0.92760  0.30370  0.91510  Biso   1.000  H
  C223     1.0000 0.89685  0.17670  0.89940  Biso   1.000  C
  H156     1.0000 0.88590  0.21470  0.86930  Biso   1.000  H
  O71      1.0000 0.74746  0.19780  0.91544  Biso   1.000  O
  C224     1.0000 0.96678  0.22840  0.99810  Biso   1.000  C
  O72      1.0000 0.73713  0.35390  0.86120  Biso   1.000  O
  C225     1.0000 0.96553  0.25840  0.55390  Biso   1.000  C
  H157     1.0000 0.98560  0.24220  0.56130  Biso   1.000  H
  O73      1.0000 0.62840  0.02250  0.76680  Biso   1.000  O
  C226     1.0000 0.92674  0.34470  0.49990  Biso   1.000  C
  H158     1.0000 0.91930  0.39010  0.46910  Biso   1.000  H
  O74      1.0000 0.50095  0.96280  0.83710  Biso   1.000  O
  C227     1.0000 0.93972  0.73860  0.83480  Biso   1.000  C
  H159     1.0000 0.93720  0.65640  0.83300  Biso   1.000  H
  C228     1.0000 0.92433  0.80800  0.79340  Biso   1.000  C
  H160     1.0000 0.91180  0.77290  0.76440  Biso   1.000  H
  C229     1.0000 0.92785  0.92850  0.79570  Biso   1.000  C
  C230     1.0000 0.94635  0.97700  0.84050  Biso   1.000  C
  H161     1.0000 0.94830  0.05910  0.84450  Biso   1.000  H
  C231     1.0000 0.96150  0.90210  0.87830  Biso   1.000  C
  H162     1.0000 0.97500  0.93450  0.90650  Biso   1.000  H
  C232     1.0000 0.89404  0.96360  0.71380  Biso   1.000  C
  H163     1.0000 0.90360  0.90580  0.69310  Biso   1.000  H
  H164     1.0000 0.87780  0.92490  0.72770  Biso   1.000  H
  C233     1.0000 0.88287  0.06950  0.67700  Biso   1.000  C
  C234     1.0000 0.90893  0.12090  0.65470  Biso   1.000  C
  H165     1.0000 0.91950  0.05790  0.63910  Biso   1.000  H
  H166     1.0000 0.92220  0.15820  0.68440  Biso   1.000  H
  C235     1.0000 0.91866  0.24400  0.58050  Biso   1.000  C
  C236     1.0000 0.90760  0.30970  0.53400  Biso   1.000  C
  H167     1.0000 0.88770  0.32930  0.52630  Biso   1.000  H
  C237     1.0000 0.94828  0.21940  0.59100  Biso   1.000  C
  H168     1.0000 0.95640  0.17750  0.62250  Biso   1.000  H
  O75      1.0000 0.87070  0.93120  0.60136  Biso   1.000  O
  C238     1.0000 0.85177  0.87330  0.56280  Biso   1.000  C
  C239     1.0000 0.86282  0.78380  0.53480  Biso   1.000  C
  H169     1.0000 0.88280  0.76490  0.54210  Biso   1.000  H
  C240     1.0000 0.82222  0.90020  0.55100  Biso   1.000  C
  H170     1.0000 0.81410  0.96120  0.56940  Biso   1.000  H
  C241     1.0000 0.86902  0.16340  0.70970  Biso   1.000  C
  H171     1.0000 0.86100  0.22780  0.68560  Biso   1.000  H
  H172     1.0000 0.88370  0.19600  0.73850  Biso   1.000  H
  C242     1.0000 0.83214  0.16950  0.76910  Biso   1.000  C
  C243     1.0000 0.81218  0.10750  0.79370  Biso   1.000  C
  H173     1.0000 0.80810  0.02800  0.78500  Biso   1.000  H
  C244     1.0000 0.79833  0.16590  0.83180  Biso   1.000  C
  H174     1.0000 0.78470  0.12390  0.84880  Biso   1.000  H
  C245     1.0000 0.82267  0.33760  0.82030  Biso   1.000  C
  H175     1.0000 0.82610  0.41730  0.82930  Biso   1.000  H
  C246     1.0000 0.83756  0.28900  0.78250  Biso   1.000  C
  H176     1.0000 0.85090  0.33350  0.76600  Biso   1.000  H
  C247     1.0000 0.84423  0.72110  0.49560  Biso   1.000  C
  H177     1.0000 0.85220  0.66040  0.47660  Biso   1.000  H
  C248     1.0000 0.80518  0.83370  0.51090  Biso   1.000  C
  H178     1.0000 0.78530  0.85280  0.50210  Biso   1.000  H
  C249     1.0000 0.73134  0.25210  0.87750  Biso   1.000  C
  C250     1.0000 0.70367  0.19220  0.84830  Biso   1.000  C
  C251     1.0000 0.69632  0.07930  0.86350  Biso   1.000  C
  H179     1.0000 0.70810  0.04090  0.89240  Biso   1.000  H
  C252     1.0000 0.67177  0.02280  0.83640  Biso   1.000  C
  H180     1.0000 0.66740  0.94530  0.84570  Biso   1.000  H
  C253     1.0000 0.65413  0.08090  0.79630  Biso   1.000  C
  C254     1.0000 0.66113  0.19100  0.77960  Biso   1.000  C
  H181     1.0000 0.64960  0.22810  0.74990  Biso   1.000  H
  C255     1.0000 0.68521  0.24560  0.80730  Biso   1.000  C
  H182     1.0000 0.68920  0.32330  0.79770  Biso   1.000  H
  C256     1.0000 0.60288  0.02470  0.79220  Biso   1.000  C
  C257     1.0000 0.60063  0.08660  0.83930  Biso   1.000  C
  H183     1.0000 0.61660  0.12990  0.85690  Biso   1.000  H
  C258     1.0000 0.57437  0.08470  0.86070  Biso   1.000  C
  H184     1.0000 0.57300  0.12450  0.89360  Biso   1.000  H
  C259     1.0000 0.55010  0.02390  0.83360  Biso   1.000  C
  C260     1.0000 0.55330  0.96350  0.78510  Biso   1.000  C
  H185     1.0000 0.53740  0.92130  0.76620  Biso   1.000  H
  C261     1.0000 0.57909  0.96560  0.76510  Biso   1.000  C
  H186     1.0000 0.58060  0.92610  0.73230  Biso   1.000  H
  C262     1.0000 0.52148  0.03040  0.85550  Biso   1.000  C
  C263     1.0000 0.81460  0.58220  0.91020  Biso   1.000  C
  O76      1.0000 0.83280  0.49700  0.91910  Biso   1.000  O
  O77      1.0000 0.78760  0.56580  0.90700  Biso   1.000  O
  C264     1.0000 0.82518  0.71000  0.91540  Biso   1.000  C
  C265     1.0000 0.84880  0.71660  0.89000  Biso   1.000  C
  H187     1.0000 0.85670  0.64890  0.87620  Biso   1.000  H
  C266     1.0000 0.81280  0.80920  0.92760  Biso   1.000  C
  H188     1.0000 0.79500  0.80450  0.94080  Biso   1.000  H
  C267     1.0000 0.84950  0.92400  0.90340  Biso   1.000  C
  C268     1.0000 0.86140  0.83210  0.88480  Biso   1.000  C
  H189     1.0000 0.87820  0.84030  0.86810  Biso   1.000  H
  C269     1.0000 0.82460  0.91950  0.92200  Biso   1.000  C
  H190     1.0000 0.81520  0.98820  0.93120  Biso   1.000  H
  O78      1.0000 0.86220  0.03080  0.88850  Biso   1.000  O
  O79      1.0000 0.80490  0.52440  0.91040  Biso   1.000  O
  O80      1.0000 0.79560  0.62410  0.98220  Biso   1.000  O
  C270     1.0000 0.80770  0.60980  0.93810  Biso   1.000  C
  Cd11     1.0000 0.48578  0.16254  0.94107  Biso   1.000  Cd
  Cd12     1.0000 0.28319  0.86208  0.92043  Biso   1.000  Cd
  N21      1.0000 0.45546  0.81830  0.50760  Biso   1.000  N
  O81      1.0000 0.48310  0.67020  0.03452  Biso   1.000  O
  N22      1.0000 0.45780  0.28380  0.87690  Biso   1.000  N
  O82      1.0000 0.47300  0.83380  0.98687  Biso   1.000  O
  N23      1.0000 0.30331  0.77870  0.84560  Biso   1.000  N
  N24      1.0000 0.31559  0.24270  0.48350  Biso   1.000  N
  O83      1.0000 0.01968  0.61130  0.89090  Biso   1.000  O
  O84      1.0000 0.41444  0.50950  0.75839  Biso   1.000  O
  O85      1.0000 0.39891  0.70700  0.61321  Biso   1.000  O
  C271     1.0000 0.38820  0.57130  0.91620  Biso   1.000  C
  C272     1.0000 0.35860  0.52710  0.63060  Biso   1.000  C
  C273     1.0000 0.40470  0.51070  0.95930  Biso   1.000  C
  H191     1.0000 0.39870  0.43640  0.97010  Biso   1.000  H
  O86      1.0000 0.34629  0.60720  0.73311  Biso   1.000  O
  C274     1.0000 0.43031  0.56200  0.98620  Biso   1.000  C
  H192     1.0000 0.44170  0.52170  0.01510  Biso   1.000  H
  C275     1.0000 0.43917  0.67490  0.97020  Biso   1.000  C
  C276     1.0000 0.42208  0.72930  0.92660  Biso   1.000  C
  H193     1.0000 0.42760  0.80370  0.91510  Biso   1.000  H
  C277     1.0000 0.39685  0.67670  0.89940  Biso   1.000  C
  H194     1.0000 0.38590  0.71470  0.86930  Biso   1.000  H
  O87      1.0000 0.24746  0.69780  0.91544  Biso   1.000  O
  C278     1.0000 0.46678  0.72840  0.99810  Biso   1.000  C
  O88      1.0000 0.23713  0.85390  0.86120  Biso   1.000  O
  C279     1.0000 0.46553  0.75840  0.55390  Biso   1.000  C
  H195     1.0000 0.48560  0.74220  0.56130  Biso   1.000  H
  O89      1.0000 0.12840  0.52250  0.76680  Biso   1.000  O
  C280     1.0000 0.42674  0.84470  0.49990  Biso   1.000  C
  H196     1.0000 0.41930  0.89010  0.46910  Biso   1.000  H
  O90      1.0000 0.00095  0.46280  0.83710  Biso   1.000  O
  C281     1.0000 0.43972  0.23860  0.83480  Biso   1.000  C
  H197     1.0000 0.43720  0.15640  0.83300  Biso   1.000  H
  C282     1.0000 0.42433  0.30800  0.79340  Biso   1.000  C
  H198     1.0000 0.41180  0.27290  0.76440  Biso   1.000  H
  C283     1.0000 0.42785  0.42850  0.79570  Biso   1.000  C
  C284     1.0000 0.44635  0.47700  0.84050  Biso   1.000  C
  H199     1.0000 0.44830  0.55910  0.84450  Biso   1.000  H
  C285     1.0000 0.46150  0.40210  0.87830  Biso   1.000  C
  H200     1.0000 0.47500  0.43450  0.90650  Biso   1.000  H
  C286     1.0000 0.39404  0.46360  0.71380  Biso   1.000  C
  H201     1.0000 0.40360  0.40580  0.69310  Biso   1.000  H
  H202     1.0000 0.37780  0.42490  0.72770  Biso   1.000  H
  C287     1.0000 0.38287  0.56950  0.67700  Biso   1.000  C
  C288     1.0000 0.40893  0.62090  0.65470  Biso   1.000  C
  H203     1.0000 0.41950  0.55790  0.63910  Biso   1.000  H
  H204     1.0000 0.42220  0.65820  0.68440  Biso   1.000  H
  C289     1.0000 0.41866  0.74400  0.58050  Biso   1.000  C
  C290     1.0000 0.40760  0.80970  0.53400  Biso   1.000  C
  H205     1.0000 0.38770  0.82930  0.52630  Biso   1.000  H
  C291     1.0000 0.44828  0.71940  0.59100  Biso   1.000  C
  H206     1.0000 0.45640  0.67750  0.62250  Biso   1.000  H
  O91      1.0000 0.37070  0.43120  0.60136  Biso   1.000  O
  C292     1.0000 0.35177  0.37330  0.56280  Biso   1.000  C
  C293     1.0000 0.36282  0.28380  0.53480  Biso   1.000  C
  H207     1.0000 0.38280  0.26490  0.54210  Biso   1.000  H
  C294     1.0000 0.32222  0.40020  0.55100  Biso   1.000  C
  H208     1.0000 0.31410  0.46120  0.56940  Biso   1.000  H
  C295     1.0000 0.36902  0.66340  0.70970  Biso   1.000  C
  H209     1.0000 0.36100  0.72780  0.68560  Biso   1.000  H
  H210     1.0000 0.38370  0.69600  0.73850  Biso   1.000  H
  C296     1.0000 0.33214  0.66950  0.76910  Biso   1.000  C
  C297     1.0000 0.31218  0.60750  0.79370  Biso   1.000  C
  H211     1.0000 0.30810  0.52800  0.78500  Biso   1.000  H
  C298     1.0000 0.29833  0.66590  0.83180  Biso   1.000  C
  H212     1.0000 0.28470  0.62390  0.84880  Biso   1.000  H
  C299     1.0000 0.32267  0.83760  0.82030  Biso   1.000  C
  H213     1.0000 0.32610  0.91730  0.82930  Biso   1.000  H
  C300     1.0000 0.33756  0.78900  0.78250  Biso   1.000  C
  H214     1.0000 0.35090  0.83350  0.76600  Biso   1.000  H
  C301     1.0000 0.34423  0.22110  0.49560  Biso   1.000  C
  H215     1.0000 0.35220  0.16040  0.47660  Biso   1.000  H
  C302     1.0000 0.30518  0.33370  0.51090  Biso   1.000  C
  H216     1.0000 0.28530  0.35280  0.50210  Biso   1.000  H
  C303     1.0000 0.23134  0.75210  0.87750  Biso   1.000  C
  C304     1.0000 0.20367  0.69220  0.84830  Biso   1.000  C
  C305     1.0000 0.19632  0.57930  0.86350  Biso   1.000  C
  H217     1.0000 0.20810  0.54090  0.89240  Biso   1.000  H
  C306     1.0000 0.17177  0.52280  0.83640  Biso   1.000  C
  H218     1.0000 0.16740  0.44530  0.84570  Biso   1.000  H
  C307     1.0000 0.15413  0.58090  0.79630  Biso   1.000  C
  C308     1.0000 0.16113  0.69100  0.77960  Biso   1.000  C
  H219     1.0000 0.14960  0.72810  0.74990  Biso   1.000  H
  C309     1.0000 0.18521  0.74560  0.80730  Biso   1.000  C
  H220     1.0000 0.18920  0.82330  0.79770  Biso   1.000  H
  C310     1.0000 0.10288  0.52470  0.79220  Biso   1.000  C
  C311     1.0000 0.10063  0.58660  0.83930  Biso   1.000  C
  H221     1.0000 0.11660  0.62990  0.85690  Biso   1.000  H
  C312     1.0000 0.07437  0.58470  0.86070  Biso   1.000  C
  H222     1.0000 0.07300  0.62450  0.89360  Biso   1.000  H
  C313     1.0000 0.05010  0.52390  0.83360  Biso   1.000  C
  C314     1.0000 0.05330  0.46350  0.78510  Biso   1.000  C
  H223     1.0000 0.03740  0.42130  0.76620  Biso   1.000  H
  C315     1.0000 0.07909  0.46560  0.76510  Biso   1.000  C
  H224     1.0000 0.08060  0.42610  0.73230  Biso   1.000  H
  C316     1.0000 0.02148  0.53040  0.85550  Biso   1.000  C
  C317     1.0000 0.31460  0.08220  0.91020  Biso   1.000  C
  O92      1.0000 0.33280  0.99700  0.91910  Biso   1.000  O
  O93      1.0000 0.28760  0.06580  0.90700  Biso   1.000  O
  C318     1.0000 0.32518  0.21000  0.91540  Biso   1.000  C
  C319     1.0000 0.34880  0.21660  0.89000  Biso   1.000  C
  H225     1.0000 0.35670  0.14890  0.87620  Biso   1.000  H
  C320     1.0000 0.31280  0.30920  0.92760  Biso   1.000  C
  H226     1.0000 0.29500  0.30450  0.94080  Biso   1.000  H
  C321     1.0000 0.34950  0.42400  0.90340  Biso   1.000  C
  C322     1.0000 0.36140  0.33210  0.88480  Biso   1.000  C
  H227     1.0000 0.37820  0.34030  0.86810  Biso   1.000  H
  C323     1.0000 0.32460  0.41950  0.92200  Biso   1.000  C
  H228     1.0000 0.31520  0.48820  0.93120  Biso   1.000  H
  O94      1.0000 0.36220  0.53080  0.88850  Biso   1.000  O
  O95      1.0000 0.30490  0.02440  0.91040  Biso   1.000  O
  O96      1.0000 0.29560  0.12410  0.98220  Biso   1.000  O
  C324     1.0000 0.30770  0.10980  0.93810  Biso   1.000  C
  Cd13     1.0000 0.01422  0.66254  0.55893  Biso   1.000  Cd
  Cd14     1.0000 0.21681  0.36208  0.57957  Biso   1.000  Cd
  N25      1.0000 0.04454  0.31830  0.99240  Biso   1.000  N
  O97      1.0000 0.01690  0.17020  0.46548  Biso   1.000  O
  N26      1.0000 0.04220  0.78380  0.62310  Biso   1.000  N
  O98      1.0000 0.02700  0.33380  0.51313  Biso   1.000  O
  N27      1.0000 0.19669  0.27870  0.65440  Biso   1.000  N
  N28      1.0000 0.18441  0.74270  0.01650  Biso   1.000  N
  O99      1.0000 0.48032  0.11130  0.60910  Biso   1.000  O
  O100     1.0000 0.08556  0.00950  0.74161  Biso   1.000  O
  O101     1.0000 0.10109  0.20700  0.88679  Biso   1.000  O
  C325     1.0000 0.11180  0.07130  0.58380  Biso   1.000  C
  C326     1.0000 0.14140  0.02710  0.86940  Biso   1.000  C
  C327     1.0000 0.09530  0.01070  0.54070  Biso   1.000  C
  H229     1.0000 0.10130  0.93640  0.52990  Biso   1.000  H
  O102     1.0000 0.15371  0.10720  0.76689  Biso   1.000  O
  C328     1.0000 0.06969  0.06200  0.51380  Biso   1.000  C
  H230     1.0000 0.05830  0.02170  0.48490  Biso   1.000  H
  C329     1.0000 0.06083  0.17490  0.52980  Biso   1.000  C
  C330     1.0000 0.07792  0.22930  0.57340  Biso   1.000  C
  H231     1.0000 0.07240  0.30370  0.58490  Biso   1.000  H
  C331     1.0000 0.10315  0.17670  0.60060  Biso   1.000  C
  H232     1.0000 0.11410  0.21470  0.63070  Biso   1.000  H
  O103     1.0000 0.25254  0.19780  0.58456  Biso   1.000  O
  C332     1.0000 0.03322  0.22840  0.50190  Biso   1.000  C
  O104     1.0000 0.26287  0.35390  0.63880  Biso   1.000  O
  C333     1.0000 0.03447  0.25840  0.94610  Biso   1.000  C
  H233     1.0000 0.01440  0.24220  0.93870  Biso   1.000  H
  O105     1.0000 0.37160  0.02250  0.73320  Biso   1.000  O
  C334     1.0000 0.07326  0.34470  0.00010  Biso   1.000  C
  H234     1.0000 0.08070  0.39010  0.03090  Biso   1.000  H
  O106     1.0000 0.49905  0.96280  0.66290  Biso   1.000  O
  C335     1.0000 0.06028  0.73860  0.66520  Biso   1.000  C
  H235     1.0000 0.06280  0.65640  0.66700  Biso   1.000  H
  C336     1.0000 0.07567  0.80800  0.70660  Biso   1.000  C
  H236     1.0000 0.08820  0.77290  0.73560  Biso   1.000  H
  C337     1.0000 0.07215  0.92850  0.70430  Biso   1.000  C
  C338     1.0000 0.05365  0.97700  0.65950  Biso   1.000  C
  H237     1.0000 0.05170  0.05910  0.65550  Biso   1.000  H
  C339     1.0000 0.03850  0.90210  0.62170  Biso   1.000  C
  H238     1.0000 0.02500  0.93450  0.59350  Biso   1.000  H
  C340     1.0000 0.10596  0.96360  0.78620  Biso   1.000  C
  H239     1.0000 0.09640  0.90580  0.80690  Biso   1.000  H
  H240     1.0000 0.12220  0.92490  0.77230  Biso   1.000  H
  C341     1.0000 0.11713  0.06950  0.82300  Biso   1.000  C
  C342     1.0000 0.09107  0.12090  0.84530  Biso   1.000  C
  H241     1.0000 0.08050  0.05790  0.86090  Biso   1.000  H
  H242     1.0000 0.07780  0.15820  0.81560  Biso   1.000  H
  C343     1.0000 0.08134  0.24400  0.91950  Biso   1.000  C
  C344     1.0000 0.09240  0.30970  0.96600  Biso   1.000  C
  H243     1.0000 0.11230  0.32930  0.97370  Biso   1.000  H
  C345     1.0000 0.05172  0.21940  0.90900  Biso   1.000  C
  H244     1.0000 0.04360  0.17750  0.87750  Biso   1.000  H
  O107     1.0000 0.12930  0.93120  0.89864  Biso   1.000  O
  C346     1.0000 0.14823  0.87330  0.93720  Biso   1.000  C
  C347     1.0000 0.13718  0.78380  0.96520  Biso   1.000  C
  H245     1.0000 0.11720  0.76490  0.95790  Biso   1.000  H
  C348     1.0000 0.17778  0.90020  0.94900  Biso   1.000  C
  H246     1.0000 0.18590  0.96120  0.93060  Biso   1.000  H
  C349     1.0000 0.13098  0.16340  0.79030  Biso   1.000  C
  H247     1.0000 0.13900  0.22780  0.81440  Biso   1.000  H
  H248     1.0000 0.11630  0.19600  0.76150  Biso   1.000  H
  C350     1.0000 0.16786  0.16950  0.73090  Biso   1.000  C
  C351     1.0000 0.18782  0.10750  0.70630  Biso   1.000  C
  H249     1.0000 0.19190  0.02800  0.71500  Biso   1.000  H
  C352     1.0000 0.20167  0.16590  0.66820  Biso   1.000  C
  H250     1.0000 0.21530  0.12390  0.65120  Biso   1.000  H
  C353     1.0000 0.17733  0.33760  0.67970  Biso   1.000  C
  H251     1.0000 0.17390  0.41730  0.67070  Biso   1.000  H
  C354     1.0000 0.16244  0.28900  0.71750  Biso   1.000  C
  H252     1.0000 0.14910  0.33350  0.73400  Biso   1.000  H
  C355     1.0000 0.15577  0.72110  0.00440  Biso   1.000  C
  H253     1.0000 0.14780  0.66040  0.02340  Biso   1.000  H
  C356     1.0000 0.19482  0.83370  0.98910  Biso   1.000  C
  H254     1.0000 0.21470  0.85280  0.99790  Biso   1.000  H
  C357     1.0000 0.26866  0.25210  0.62250  Biso   1.000  C
  C358     1.0000 0.29633  0.19220  0.65170  Biso   1.000  C
  C359     1.0000 0.30368  0.07930  0.63650  Biso   1.000  C
  H255     1.0000 0.29190  0.04090  0.60760  Biso   1.000  H
  C360     1.0000 0.32823  0.02280  0.66360  Biso   1.000  C
  H256     1.0000 0.33260  0.94530  0.65430  Biso   1.000  H
  C361     1.0000 0.34587  0.08090  0.70370  Biso   1.000  C
  C362     1.0000 0.33887  0.19100  0.72040  Biso   1.000  C
  H257     1.0000 0.35040  0.22810  0.75010  Biso   1.000  H
  C363     1.0000 0.31479  0.24560  0.69270  Biso   1.000  C
  H258     1.0000 0.31080  0.32330  0.70230  Biso   1.000  H
  C364     1.0000 0.39712  0.02470  0.70780  Biso   1.000  C
  C365     1.0000 0.39937  0.08660  0.66070  Biso   1.000  C
  H259     1.0000 0.38340  0.12990  0.64310  Biso   1.000  H
  C366     1.0000 0.42563  0.08470  0.63930  Biso   1.000  C
  H260     1.0000 0.42700  0.12450  0.60640  Biso   1.000  H
  C367     1.0000 0.44990  0.02390  0.66640  Biso   1.000  C
  C368     1.0000 0.44670  0.96350  0.71490  Biso   1.000  C
  H261     1.0000 0.46260  0.92130  0.73380  Biso   1.000  H
  C369     1.0000 0.42091  0.96560  0.73490  Biso   1.000  C
  H262     1.0000 0.41940  0.92610  0.76770  Biso   1.000  H
  C370     1.0000 0.47852  0.03040  0.64450  Biso   1.000  C
  C371     1.0000 0.18540  0.58220  0.58980  Biso   1.000  C
  O108     1.0000 0.16720  0.49700  0.58090  Biso   1.000  O
  O109     1.0000 0.21240  0.56580  0.59300  Biso   1.000  O
  C372     1.0000 0.17482  0.71000  0.58460  Biso   1.000  C
  C373     1.0000 0.15120  0.71660  0.61000  Biso   1.000  C
  H263     1.0000 0.14330  0.64890  0.62380  Biso   1.000  H
  C374     1.0000 0.18720  0.80920  0.57240  Biso   1.000  C
  H264     1.0000 0.20500  0.80450  0.55920  Biso   1.000  H
  C375     1.0000 0.15050  0.92400  0.59660  Biso   1.000  C
  C376     1.0000 0.13860  0.83210  0.61520  Biso   1.000  C
  H265     1.0000 0.12180  0.84030  0.63190  Biso   1.000  H
  C377     1.0000 0.17540  0.91950  0.57800  Biso   1.000  C
  H266     1.0000 0.18480  0.98820  0.56880  Biso   1.000  H
  O110     1.0000 0.13780  0.03080  0.61150  Biso   1.000  O
  O111     1.0000 0.19510  0.52440  0.58960  Biso   1.000  O
  O112     1.0000 0.20440  0.62410  0.51780  Biso   1.000  O
  C378     1.0000 0.19230  0.60980  0.56190  Biso   1.000  C
  Cd15     1.0000 0.51422  0.16254  0.55893  Biso   1.000  Cd
  Cd16     1.0000 0.71681  0.86208  0.57957  Biso   1.000  Cd
  N29      1.0000 0.54454  0.81830  0.99240  Biso   1.000  N
  O113     1.0000 0.51690  0.67020  0.46548  Biso   1.000  O
  N30      1.0000 0.54220  0.28380  0.62310  Biso   1.000  N
  O114     1.0000 0.52700  0.83380  0.51313  Biso   1.000  O
  N31      1.0000 0.69669  0.77870  0.65440  Biso   1.000  N
  N32      1.0000 0.68441  0.24270  0.01650  Biso   1.000  N
  O115     1.0000 0.98032  0.61130  0.60910  Biso   1.000  O
  O116     1.0000 0.58556  0.50950  0.74161  Biso   1.000  O
  O117     1.0000 0.60109  0.70700  0.88679  Biso   1.000  O
  C379     1.0000 0.61180  0.57130  0.58380  Biso   1.000  C
  C380     1.0000 0.64140  0.52710  0.86940  Biso   1.000  C
  C381     1.0000 0.59530  0.51070  0.54070  Biso   1.000  C
  H267     1.0000 0.60130  0.43640  0.52990  Biso   1.000  H
  O118     1.0000 0.65371  0.60720  0.76689  Biso   1.000  O
  C382     1.0000 0.56969  0.56200  0.51380  Biso   1.000  C
  H268     1.0000 0.55830  0.52170  0.48490  Biso   1.000  H
  C383     1.0000 0.56083  0.67490  0.52980  Biso   1.000  C
  C384     1.0000 0.57792  0.72930  0.57340  Biso   1.000  C
  H269     1.0000 0.57240  0.80370  0.58490  Biso   1.000  H
  C385     1.0000 0.60315  0.67670  0.60060  Biso   1.000  C
  H270     1.0000 0.61410  0.71470  0.63070  Biso   1.000  H
  O119     1.0000 0.75254  0.69780  0.58456  Biso   1.000  O
  C386     1.0000 0.53322  0.72840  0.50190  Biso   1.000  C
  O120     1.0000 0.76287  0.85390  0.63880  Biso   1.000  O
  C387     1.0000 0.53447  0.75840  0.94610  Biso   1.000  C
  H271     1.0000 0.51440  0.74220  0.93870  Biso   1.000  H
  O121     1.0000 0.87160  0.52250  0.73320  Biso   1.000  O
  C388     1.0000 0.57326  0.84470  0.00010  Biso   1.000  C
  H272     1.0000 0.58070  0.89010  0.03090  Biso   1.000  H
  O122     1.0000 0.99905  0.46280  0.66290  Biso   1.000  O
  C389     1.0000 0.56028  0.23860  0.66520  Biso   1.000  C
  H273     1.0000 0.56280  0.15640  0.66700  Biso   1.000  H
  C390     1.0000 0.57567  0.30800  0.70660  Biso   1.000  C
  H274     1.0000 0.58820  0.27290  0.73560  Biso   1.000  H
  C391     1.0000 0.57215  0.42850  0.70430  Biso   1.000  C
  C392     1.0000 0.55365  0.47700  0.65950  Biso   1.000  C
  H275     1.0000 0.55170  0.55910  0.65550  Biso   1.000  H
  C393     1.0000 0.53850  0.40210  0.62170  Biso   1.000  C
  H276     1.0000 0.52500  0.43450  0.59350  Biso   1.000  H
  C394     1.0000 0.60596  0.46360  0.78620  Biso   1.000  C
  H277     1.0000 0.59640  0.40580  0.80690  Biso   1.000  H
  H278     1.0000 0.62220  0.42490  0.77230  Biso   1.000  H
  C395     1.0000 0.61713  0.56950  0.82300  Biso   1.000  C
  C396     1.0000 0.59107  0.62090  0.84530  Biso   1.000  C
  H279     1.0000 0.58050  0.55790  0.86090  Biso   1.000  H
  H280     1.0000 0.57780  0.65820  0.81560  Biso   1.000  H
  C397     1.0000 0.58134  0.74400  0.91950  Biso   1.000  C
  C398     1.0000 0.59240  0.80970  0.96600  Biso   1.000  C
  H281     1.0000 0.61230  0.82930  0.97370  Biso   1.000  H
  C399     1.0000 0.55172  0.71940  0.90900  Biso   1.000  C
  H282     1.0000 0.54360  0.67750  0.87750  Biso   1.000  H
  O123     1.0000 0.62930  0.43120  0.89864  Biso   1.000  O
  C400     1.0000 0.64823  0.37330  0.93720  Biso   1.000  C
  C401     1.0000 0.63718  0.28380  0.96520  Biso   1.000  C
  H283     1.0000 0.61720  0.26490  0.95790  Biso   1.000  H
  C402     1.0000 0.67778  0.40020  0.94900  Biso   1.000  C
  H284     1.0000 0.68590  0.46120  0.93060  Biso   1.000  H
  C403     1.0000 0.63098  0.66340  0.79030  Biso   1.000  C
  H285     1.0000 0.63900  0.72780  0.81440  Biso   1.000  H
  H286     1.0000 0.61630  0.69600  0.76150  Biso   1.000  H
  C404     1.0000 0.66786  0.66950  0.73090  Biso   1.000  C
  C405     1.0000 0.68782  0.60750  0.70630  Biso   1.000  C
  H287     1.0000 0.69190  0.52800  0.71500  Biso   1.000  H
  C406     1.0000 0.70167  0.66590  0.66820  Biso   1.000  C
  H288     1.0000 0.71530  0.62390  0.65120  Biso   1.000  H
  C407     1.0000 0.67733  0.83760  0.67970  Biso   1.000  C
  H289     1.0000 0.67390  0.91730  0.67070  Biso   1.000  H
  C408     1.0000 0.66244  0.78900  0.71750  Biso   1.000  C
  H290     1.0000 0.64910  0.83350  0.73400  Biso   1.000  H
  C409     1.0000 0.65577  0.22110  0.00440  Biso   1.000  C
  H291     1.0000 0.64780  0.16040  0.02340  Biso   1.000  H
  C410     1.0000 0.69482  0.33370  0.98910  Biso   1.000  C
  H292     1.0000 0.71470  0.35280  0.99790  Biso   1.000  H
  C411     1.0000 0.76866  0.75210  0.62250  Biso   1.000  C
  C412     1.0000 0.79633  0.69220  0.65170  Biso   1.000  C
  C413     1.0000 0.80368  0.57930  0.63650  Biso   1.000  C
  H293     1.0000 0.79190  0.54090  0.60760  Biso   1.000  H
  C414     1.0000 0.82823  0.52280  0.66360  Biso   1.000  C
  H294     1.0000 0.83260  0.44530  0.65430  Biso   1.000  H
  C415     1.0000 0.84587  0.58090  0.70370  Biso   1.000  C
  C416     1.0000 0.83887  0.69100  0.72040  Biso   1.000  C
  H295     1.0000 0.85040  0.72810  0.75010  Biso   1.000  H
  C417     1.0000 0.81479  0.74560  0.69270  Biso   1.000  C
  H296     1.0000 0.81080  0.82330  0.70230  Biso   1.000  H
  C418     1.0000 0.89712  0.52470  0.70780  Biso   1.000  C
  C419     1.0000 0.89937  0.58660  0.66070  Biso   1.000  C
  H297     1.0000 0.88340  0.62990  0.64310  Biso   1.000  H
  C420     1.0000 0.92563  0.58470  0.63930  Biso   1.000  C
  H298     1.0000 0.92700  0.62450  0.60640  Biso   1.000  H
  C421     1.0000 0.94990  0.52390  0.66640  Biso   1.000  C
  C422     1.0000 0.94670  0.46350  0.71490  Biso   1.000  C
  H299     1.0000 0.96260  0.42130  0.73380  Biso   1.000  H
  C423     1.0000 0.92091  0.46560  0.73490  Biso   1.000  C
  H300     1.0000 0.91940  0.42610  0.76770  Biso   1.000  H
  C424     1.0000 0.97852  0.53040  0.64450  Biso   1.000  C
  C425     1.0000 0.68540  0.08220  0.58980  Biso   1.000  C
  O124     1.0000 0.66720  0.99700  0.58090  Biso   1.000  O
  O125     1.0000 0.71240  0.06580  0.59300  Biso   1.000  O
  C426     1.0000 0.67482  0.21000  0.58460  Biso   1.000  C
  C427     1.0000 0.65120  0.21660  0.61000  Biso   1.000  C
  H301     1.0000 0.64330  0.14890  0.62380  Biso   1.000  H
  C428     1.0000 0.68720  0.30920  0.57240  Biso   1.000  C
  H302     1.0000 0.70500  0.30450  0.55920  Biso   1.000  H
  C429     1.0000 0.65050  0.42400  0.59660  Biso   1.000  C
  C430     1.0000 0.63860  0.33210  0.61520  Biso   1.000  C
  H303     1.0000 0.62180  0.34030  0.63190  Biso   1.000  H
  C431     1.0000 0.67540  0.41950  0.57800  Biso   1.000  C
  H304     1.0000 0.68480  0.48820  0.56880  Biso   1.000  H
  O126     1.0000 0.63780  0.53080  0.61150  Biso   1.000  O
  O127     1.0000 0.69510  0.02440  0.58960  Biso   1.000  O
  O128     1.0000 0.70440  0.12410  0.51780  Biso   1.000  O
  C432     1.0000 0.69230  0.10980  0.56190  Biso   1.000  C
