data_image0
_cell_length_a       16.833
_cell_length_b       29.227
_cell_length_c       53.531
_cell_angle_alpha    90
_cell_angle_beta     96.338
_cell_angle_gamma    90

_symmetry_space_group_name_H-M    "P 1"
_symmetry_int_tables_number       1

loop_
  _symmetry_equiv_pos_as_xyz
  'x, y, z'

loop_
  _atom_site_label
  _atom_site_occupancy
  _atom_site_fract_x
  _atom_site_fract_y
  _atom_site_fract_z
  _atom_site_thermal_displace_type
  _atom_site_B_iso_or_equiv
  _atom_site_type_symbol
  C1       1.0000 0.66580  0.09210  0.15390  Biso   1.000  C
  C2       1.0000 0.62430  0.09190  0.18070  Biso   1.000  C
  C3       1.0000 0.54140  0.10140  0.17636  Biso   1.000  C
  H1       1.0000 0.51740  0.10890  0.16040  Biso   1.000  H
  C4       1.0000 0.49730  0.09890  0.19680  Biso   1.000  C
  H2       1.0000 0.44290  0.10540  0.19470  Biso   1.000  H
  C5       1.0000 0.53460  0.08680  0.22034  Biso   1.000  C
  C6       1.0000 0.61590  0.07710  0.22344  Biso   1.000  C
  H3       1.0000 0.64080  0.06900  0.23920  Biso   1.000  H
  C7       1.0000 0.66000  0.07950  0.20299  Biso   1.000  C
  H4       1.0000 0.71440  0.07300  0.20510  Biso   1.000  H
  C8       1.0000 0.72140  0.01860  0.09630  Biso   1.000  C
  C9       1.0000 0.67490  0.00910  0.07130  Biso   1.000  C
  C10      1.0000 0.64530  0.04550  0.05570  Biso   1.000  C
  H5       1.0000 0.66110  0.07530  0.05980  Biso   1.000  H
  C11      1.0000 0.59260  0.03730  0.03431  Biso   1.000  C
  H6       1.0000 0.57420  0.06140  0.02390  Biso   1.000  H
  C12      1.0000 0.56740  0.99290  0.02841  Biso   1.000  C
  C13      1.0000 0.59490  0.95680  0.04390  Biso   1.000  C
  H7       1.0000 0.57800  0.92710  0.04000  Biso   1.000  H
  C14      1.0000 0.64760  0.96500  0.06529  Biso   1.000  C
  H8       1.0000 0.66600  0.94080  0.07570  Biso   1.000  H
  C15      1.0000 0.13270  0.93010  0.10120  Biso   1.000  C
  C16      1.0000 0.10500  0.94660  0.07500  Biso   1.000  C
  C17      1.0000 0.12440  0.99260  0.07126  Biso   1.000  C
  H9       1.0000 0.15460  0.00900  0.08380  Biso   1.000  H
  C18      1.0000 0.09770  0.01320  0.04846  Biso   1.000  C
  H10      1.0000 0.10910  0.04380  0.04580  Biso   1.000  H
  C19      1.0000 0.05390  0.98800  0.02968  Biso   1.000  C
  C20      1.0000 0.03680  0.94220  0.03370  Biso   1.000  C
  H11      1.0000 0.00750  0.92530  0.02110  Biso   1.000  H
  C21      1.0000 0.06350  0.92160  0.05650  Biso   1.000  C
  H12      1.0000 0.05210  0.89100  0.05920  Biso   1.000  H
  C22      1.0000 0.75930  0.95190  0.18880  Biso   1.000  C
  C23      1.0000 0.95100  0.90780  0.12937  Biso   1.000  C
  H13      1.0000 0.95910  0.90650  0.11250  Biso   1.000  H
  C24      1.0000 0.87900  0.92440  0.13620  Biso   1.000  C
  H14      1.0000 0.83950  0.93440  0.12390  Biso   1.000  H
  C25      1.0000 0.86630  0.92610  0.16140  Biso   1.000  C
  C26      1.0000 0.92540  0.91120  0.17977  Biso   1.000  C
  H15      1.0000 0.91690  0.91230  0.19660  Biso   1.000  H
  C27      1.0000 0.99730  0.89460  0.17294  Biso   1.000  C
  H16      1.0000 0.03690  0.88460  0.18520  Biso   1.000  H
  C28      1.0000 0.17540  0.99350  0.18890  Biso   1.000  C
  C29      1.0000 0.95090  0.03914  0.12634  Biso   1.000  C
  H17      1.0000 0.93550  0.04510  0.10940  Biso   1.000  H
  C30      1.0000 0.02660  0.02164  0.13385  Biso   1.000  C
  H18      1.0000 0.06160  0.01570  0.12200  Biso   1.000  H
  C31      1.0000 0.05000  0.01305  0.15914  Biso   1.000  C
  C32      1.0000 0.99770  0.02194  0.17691  Biso   1.000  C
  H19      1.0000 0.01330  0.01620  0.19380  Biso   1.000  H
  C33      1.0000 0.92200  0.03943  0.16940  Biso   1.000  C
  H20      1.0000 0.88700  0.04540  0.18130  Biso   1.000  H
  C34      1.0000 0.25580  0.98220  0.18860  Biso   1.000  C
  C35      1.0000 0.29120  0.96788  0.16768  Biso   1.000  C
  H21      1.0000 0.25970  0.96160  0.15270  Biso   1.000  H
  C36      1.0000 0.37370  0.96299  0.16915  Biso   1.000  C
  H22      1.0000 0.39740  0.95340  0.15520  Biso   1.000  H
  C37      1.0000 0.42090  0.97243  0.19155  Biso   1.000  C
  C38      1.0000 0.38540  0.98675  0.21247  Biso   1.000  C
  H23      1.0000 0.41700  0.99310  0.22750  Biso   1.000  H
  C39      1.0000 0.30290  0.99164  0.21099  Biso   1.000  C
  H24      1.0000 0.27920  0.00120  0.22500  Biso   1.000  H
  C40      1.0000 0.51440  0.96999  0.19121  Biso   1.000  C
  C41      1.0000 0.54600  0.97865  0.16878  Biso   1.000  C
  H25      1.0000 0.51290  0.98860  0.15480  Biso   1.000  H
  C42      1.0000 0.62720  0.97240  0.16726  Biso   1.000  C
  H26      1.0000 0.64840  0.97820  0.15230  Biso   1.000  H
  C43      1.0000 0.67670  0.95749  0.18818  Biso   1.000  C
  C44      1.0000 0.64510  0.94884  0.21062  Biso   1.000  C
  H27      1.0000 0.67820  0.93890  0.22460  Biso   1.000  H
  C45      1.0000 0.56390  0.95509  0.21213  Biso   1.000  C
  H28      1.0000 0.54270  0.94930  0.22710  Biso   1.000  H
  C46      1.0000 0.79680  0.17528  0.14200  Biso   1.000  C
  H29      1.0000 0.76730  0.16560  0.15470  Biso   1.000  H
  C47      1.0000 0.80900  0.22172  0.13830  Biso   1.000  C
  H30      1.0000 0.78770  0.24310  0.14860  Biso   1.000  H
  C48      1.0000 0.85300  0.23618  0.11927  Biso   1.000  C
  C49      1.0000 0.88480  0.20421  0.10393  Biso   1.000  C
  H31      1.0000 0.91430  0.21390  0.09120  Biso   1.000  H
  C50      1.0000 0.87270  0.15777  0.10763  Biso   1.000  C
  H32      1.0000 0.89400  0.13640  0.09740  Biso   1.000  H
  C51      1.0000 0.84070  0.37810  0.10091  Biso   1.000  C
  H33      1.0000 0.79240  0.36240  0.09950  Biso   1.000  H
  C52      1.0000 0.91240  0.35406  0.10384  Biso   1.000  C
  C53      1.0000 0.98460  0.37755  0.10597  Biso   1.000  C
  H34      1.0000 0.03260  0.36150  0.10790  Biso   1.000  H
  C54      1.0000 0.98520  0.42508  0.10516  Biso   1.000  C
  H35      1.0000 0.03350  0.44080  0.10660  Biso   1.000  H
  C55      1.0000 0.91350  0.44912  0.10223  Biso   1.000  C
  C56      1.0000 0.84130  0.42563  0.10010  Biso   1.000  C
  H36      1.0000 0.79330  0.44170  0.09810  Biso   1.000  H
  C57      1.0000 0.92880  0.30170  0.10490  Biso   1.000  C
  C58      1.0000 0.85760  0.57320  0.11113  Biso   1.000  C
  H37      1.0000 0.81460  0.58950  0.11610  Biso   1.000  H
  C59      1.0000 0.85420  0.52580  0.10946  Biso   1.000  C
  H38      1.0000 0.80880  0.51030  0.11330  Biso   1.000  H
  C60      1.0000 0.91860  0.50150  0.10207  Biso   1.000  C
  C61      1.0000 0.98650  0.52460  0.09635  Biso   1.000  C
  H39      1.0000 0.02960  0.50830  0.09140  Biso   1.000  H
  C62      1.0000 0.98990  0.57200  0.09803  Biso   1.000  C
  H40      1.0000 0.03530  0.58750  0.09420  Biso   1.000  H
  C63      1.0000 0.92550  0.59630  0.10542  Biso   1.000  C
  C64      1.0000 0.92620  0.64630  0.10130  Biso   1.000  C
  N1       1.0000 0.82680  0.14240  0.12620  Biso   1.000  N
  N2       1.0000 0.86420  0.28300  0.11750  Biso   1.000  N
  H41      1.0000 0.83220  0.30130  0.12400  Biso   1.000  H
  N3       1.0000 0.48220  0.08670  0.24080  Biso   1.000  N
  N4       1.0000 0.52530  0.98180  0.00360  Biso   1.000  N
  N5       1.0000 0.89880  0.04770  0.14390  Biso   1.000  N
  N6       1.0000 0.12880  0.99400  0.16520  Biso   1.000  N
  H42      1.0000 0.14990  0.98140  0.15290  Biso   1.000  H
  N7       1.0000 0.79970  0.94190  0.16574  Biso   1.000  N
  H43      1.0000 0.77000  0.94870  0.15210  Biso   1.000  H
  N8       1.0000 0.00980  0.89350  0.14733  Biso   1.000  N
  N9       1.0000 0.02030  0.00940  0.00600  Biso   1.000  N
  N10      1.0000 0.00280  0.66111  0.11362  Biso   1.000  N
  H44      1.0000 0.03770  0.64030  0.11800  Biso   1.000  H
  C65      1.0000 0.11520  0.76216  0.14244  Biso   1.000  C
  H45      1.0000 0.15820  0.76770  0.15450  Biso   1.000  H
  C66      1.0000 0.08980  0.71756  0.13732  Biso   1.000  C
  H46      1.0000 0.11570  0.69330  0.14600  Biso   1.000  H
  C67      1.0000 0.02560  0.70926  0.11924  Biso   1.000  C
  C68      1.0000 0.98680  0.74557  0.10629  Biso   1.000  C
  H47      1.0000 0.94390  0.74000  0.09420  Biso   1.000  H
  C69      1.0000 0.01230  0.79017  0.11142  Biso   1.000  C
  H48      1.0000 0.98630  0.81450  0.10280  Biso   1.000  H
  N11      1.0000 0.07640  0.79846  0.12949  Biso   1.000  N
  O1       1.0000 0.82330  0.94630  0.20860  Biso   1.000  O
  O2       1.0000 0.14610  0.00240  0.20749  Biso   1.000  O
  O3       1.0000 0.72790  0.99100  0.11460  Biso   1.000  O
  O4       1.0000 0.75790  0.05970  0.09821  Biso   1.000  O
  O5       1.0000 0.64310  0.10880  0.13710  Biso   1.000  O
  O6       1.0000 0.73080  0.07770  0.15966  Biso   1.000  O
  O7       1.0000 0.11140  0.88750  0.10238  Biso   1.000  O
  O8       1.0000 0.16040  0.95250  0.11884  Biso   1.000  O
  O9       1.0000 0.98730  0.28560  0.09560  Biso   1.000  O
  O10      1.0000 0.84470  0.66750  0.10490  Biso   1.000  O
  Zn1      1.0000 0.10967  0.86395  0.13635  Biso   1.000  Zn
  Zn2      1.0000 0.79517  0.07760  0.13160  Biso   1.000  Zn
  C70      1.0000 0.33420  0.09210  0.34610  Biso   1.000  C
  C71      1.0000 0.37570  0.09190  0.31930  Biso   1.000  C
  C72      1.0000 0.45860  0.10140  0.32364  Biso   1.000  C
  H49      1.0000 0.48260  0.10890  0.33960  Biso   1.000  H
  C73      1.0000 0.50270  0.09890  0.30320  Biso   1.000  C
  H50      1.0000 0.55710  0.10540  0.30530  Biso   1.000  H
  C74      1.0000 0.46540  0.08680  0.27966  Biso   1.000  C
  C75      1.0000 0.38410  0.07710  0.27656  Biso   1.000  C
  H51      1.0000 0.35920  0.06900  0.26080  Biso   1.000  H
  C76      1.0000 0.34000  0.07950  0.29701  Biso   1.000  C
  H52      1.0000 0.28560  0.07300  0.29490  Biso   1.000  H
  C77      1.0000 0.27860  0.01860  0.40370  Biso   1.000  C
  C78      1.0000 0.32510  0.00910  0.42870  Biso   1.000  C
  C79      1.0000 0.35470  0.04550  0.44430  Biso   1.000  C
  H53      1.0000 0.33890  0.07530  0.44020  Biso   1.000  H
  C80      1.0000 0.40740  0.03730  0.46569  Biso   1.000  C
  H54      1.0000 0.42580  0.06140  0.47610  Biso   1.000  H
  C81      1.0000 0.43260  0.99290  0.47159  Biso   1.000  C
  C82      1.0000 0.40510  0.95680  0.45610  Biso   1.000  C
  H55      1.0000 0.42200  0.92710  0.46000  Biso   1.000  H
  C83      1.0000 0.35240  0.96500  0.43471  Biso   1.000  C
  H56      1.0000 0.33400  0.94080  0.42430  Biso   1.000  H
  C84      1.0000 0.86730  0.93010  0.39880  Biso   1.000  C
  C85      1.0000 0.89500  0.94660  0.42500  Biso   1.000  C
  C86      1.0000 0.87560  0.99260  0.42874  Biso   1.000  C
  H57      1.0000 0.84540  0.00900  0.41620  Biso   1.000  H
  C87      1.0000 0.90230  0.01320  0.45154  Biso   1.000  C
  H58      1.0000 0.89090  0.04380  0.45420  Biso   1.000  H
  C88      1.0000 0.94610  0.98800  0.47032  Biso   1.000  C
  C89      1.0000 0.96320  0.94220  0.46630  Biso   1.000  C
  H59      1.0000 0.99250  0.92530  0.47890  Biso   1.000  H
  C90      1.0000 0.93650  0.92160  0.44350  Biso   1.000  C
  H60      1.0000 0.94790  0.89100  0.44080  Biso   1.000  H
  C91      1.0000 0.24070  0.95190  0.31120  Biso   1.000  C
  C92      1.0000 0.04900  0.90780  0.37063  Biso   1.000  C
  H61      1.0000 0.04090  0.90650  0.38750  Biso   1.000  H
  C93      1.0000 0.12100  0.92440  0.36380  Biso   1.000  C
  H62      1.0000 0.16050  0.93440  0.37610  Biso   1.000  H
  C94      1.0000 0.13370  0.92610  0.33860  Biso   1.000  C
  C95      1.0000 0.07460  0.91120  0.32023  Biso   1.000  C
  H63      1.0000 0.08310  0.91230  0.30340  Biso   1.000  H
  C96      1.0000 0.00270  0.89460  0.32706  Biso   1.000  C
  H64      1.0000 0.96310  0.88460  0.31480  Biso   1.000  H
  C97      1.0000 0.82460  0.99350  0.31110  Biso   1.000  C
  C98      1.0000 0.04910  0.03914  0.37366  Biso   1.000  C
  H65      1.0000 0.06450  0.04510  0.39060  Biso   1.000  H
  C99      1.0000 0.97340  0.02164  0.36615  Biso   1.000  C
  H66      1.0000 0.93840  0.01570  0.37800  Biso   1.000  H
  C100     1.0000 0.95000  0.01305  0.34086  Biso   1.000  C
  C101     1.0000 0.00230  0.02194  0.32309  Biso   1.000  C
  H67      1.0000 0.98670  0.01620  0.30620  Biso   1.000  H
  C102     1.0000 0.07800  0.03943  0.33060  Biso   1.000  C
  H68      1.0000 0.11300  0.04540  0.31870  Biso   1.000  H
  C103     1.0000 0.74420  0.98220  0.31140  Biso   1.000  C
  C104     1.0000 0.70880  0.96788  0.33232  Biso   1.000  C
  H69      1.0000 0.74030  0.96160  0.34730  Biso   1.000  H
  C105     1.0000 0.62630  0.96299  0.33085  Biso   1.000  C
  H70      1.0000 0.60260  0.95340  0.34480  Biso   1.000  H
  C106     1.0000 0.57910  0.97243  0.30845  Biso   1.000  C
  C107     1.0000 0.61460  0.98675  0.28753  Biso   1.000  C
  H71      1.0000 0.58300  0.99310  0.27250  Biso   1.000  H
  C108     1.0000 0.69710  0.99164  0.28901  Biso   1.000  C
  H72      1.0000 0.72080  0.00120  0.27500  Biso   1.000  H
  C109     1.0000 0.48560  0.96999  0.30879  Biso   1.000  C
  C110     1.0000 0.45400  0.97865  0.33122  Biso   1.000  C
  H73      1.0000 0.48710  0.98860  0.34520  Biso   1.000  H
  C111     1.0000 0.37280  0.97240  0.33274  Biso   1.000  C
  H74      1.0000 0.35160  0.97820  0.34770  Biso   1.000  H
  C112     1.0000 0.32330  0.95749  0.31182  Biso   1.000  C
  C113     1.0000 0.35490  0.94884  0.28938  Biso   1.000  C
  H75      1.0000 0.32180  0.93890  0.27540  Biso   1.000  H
  C114     1.0000 0.43610  0.95509  0.28787  Biso   1.000  C
  H76      1.0000 0.45730  0.94930  0.27290  Biso   1.000  H
  C115     1.0000 0.20320  0.17528  0.35800  Biso   1.000  C
  H77      1.0000 0.23270  0.16560  0.34530  Biso   1.000  H
  C116     1.0000 0.19100  0.22172  0.36170  Biso   1.000  C
  H78      1.0000 0.21230  0.24310  0.35140  Biso   1.000  H
  C117     1.0000 0.14700  0.23618  0.38073  Biso   1.000  C
  C118     1.0000 0.11520  0.20421  0.39607  Biso   1.000  C
  H79      1.0000 0.08570  0.21390  0.40880  Biso   1.000  H
  C119     1.0000 0.12730  0.15777  0.39237  Biso   1.000  C
  H80      1.0000 0.10600  0.13640  0.40260  Biso   1.000  H
  C120     1.0000 0.15930  0.37810  0.39909  Biso   1.000  C
  H81      1.0000 0.20760  0.36240  0.40050  Biso   1.000  H
  C121     1.0000 0.08760  0.35406  0.39616  Biso   1.000  C
  C122     1.0000 0.01540  0.37755  0.39403  Biso   1.000  C
  H82      1.0000 0.96740  0.36150  0.39210  Biso   1.000  H
  C123     1.0000 0.01480  0.42508  0.39484  Biso   1.000  C
  H83      1.0000 0.96650  0.44080  0.39340  Biso   1.000  H
  C124     1.0000 0.08650  0.44912  0.39777  Biso   1.000  C
  C125     1.0000 0.15870  0.42563  0.39990  Biso   1.000  C
  H84      1.0000 0.20670  0.44170  0.40190  Biso   1.000  H
  C126     1.0000 0.07120  0.30170  0.39510  Biso   1.000  C
  C127     1.0000 0.14240  0.57320  0.38887  Biso   1.000  C
  H85      1.0000 0.18540  0.58950  0.38390  Biso   1.000  H
  C128     1.0000 0.14580  0.52580  0.39054  Biso   1.000  C
  H86      1.0000 0.19120  0.51030  0.38670  Biso   1.000  H
  C129     1.0000 0.08140  0.50150  0.39793  Biso   1.000  C
  C130     1.0000 0.01350  0.52460  0.40365  Biso   1.000  C
  H87      1.0000 0.97040  0.50830  0.40860  Biso   1.000  H
  C131     1.0000 0.01010  0.57200  0.40197  Biso   1.000  C
  H88      1.0000 0.96470  0.58750  0.40580  Biso   1.000  H
  C132     1.0000 0.07450  0.59630  0.39458  Biso   1.000  C
  C133     1.0000 0.07380  0.64630  0.39870  Biso   1.000  C
  N12      1.0000 0.17320  0.14240  0.37380  Biso   1.000  N
  N13      1.0000 0.13580  0.28300  0.38250  Biso   1.000  N
  H89      1.0000 0.16780  0.30130  0.37600  Biso   1.000  H
  N14      1.0000 0.51780  0.08670  0.25920  Biso   1.000  N
  N15      1.0000 0.47470  0.98180  0.49640  Biso   1.000  N
  N16      1.0000 0.10120  0.04770  0.35610  Biso   1.000  N
  N17      1.0000 0.87120  0.99400  0.33480  Biso   1.000  N
  H90      1.0000 0.85010  0.98140  0.34710  Biso   1.000  H
  N18      1.0000 0.20030  0.94190  0.33426  Biso   1.000  N
  H91      1.0000 0.23000  0.94870  0.34790  Biso   1.000  H
  N19      1.0000 0.99020  0.89350  0.35267  Biso   1.000  N
  N20      1.0000 0.97970  0.00940  0.49400  Biso   1.000  N
  N21      1.0000 0.99720  0.66111  0.38638  Biso   1.000  N
  H92      1.0000 0.96230  0.64030  0.38200  Biso   1.000  H
  C134     1.0000 0.88480  0.76216  0.35756  Biso   1.000  C
  H93      1.0000 0.84180  0.76770  0.34550  Biso   1.000  H
  C135     1.0000 0.91020  0.71756  0.36268  Biso   1.000  C
  H94      1.0000 0.88430  0.69330  0.35400  Biso   1.000  H
  C136     1.0000 0.97440  0.70926  0.38076  Biso   1.000  C
  C137     1.0000 0.01320  0.74557  0.39371  Biso   1.000  C
  H95      1.0000 0.05610  0.74000  0.40580  Biso   1.000  H
  C138     1.0000 0.98770  0.79017  0.38858  Biso   1.000  C
  H96      1.0000 0.01370  0.81450  0.39720  Biso   1.000  H
  N22      1.0000 0.92360  0.79846  0.37051  Biso   1.000  N
  O11      1.0000 0.17670  0.94630  0.29140  Biso   1.000  O
  O12      1.0000 0.85390  0.00240  0.29251  Biso   1.000  O
  O13      1.0000 0.27210  0.99100  0.38540  Biso   1.000  O
  O14      1.0000 0.24210  0.05970  0.40179  Biso   1.000  O
  O15      1.0000 0.35690  0.10880  0.36290  Biso   1.000  O
  O16      1.0000 0.26920  0.07770  0.34034  Biso   1.000  O
  O17      1.0000 0.88860  0.88750  0.39762  Biso   1.000  O
  O18      1.0000 0.83960  0.95250  0.38116  Biso   1.000  O
  O19      1.0000 0.01270  0.28560  0.40440  Biso   1.000  O
  O20      1.0000 0.15530  0.66750  0.39510  Biso   1.000  O
  Zn3      1.0000 0.89033  0.86395  0.36365  Biso   1.000  Zn
  Zn4      1.0000 0.20483  0.07760  0.36840  Biso   1.000  Zn
  C139     1.0000 0.33420  0.90790  0.84610  Biso   1.000  C
  C140     1.0000 0.37570  0.90810  0.81930  Biso   1.000  C
  C141     1.0000 0.45860  0.89860  0.82364  Biso   1.000  C
  H97      1.0000 0.48260  0.89110  0.83960  Biso   1.000  H
  C142     1.0000 0.50270  0.90110  0.80320  Biso   1.000  C
  H98      1.0000 0.55710  0.89460  0.80530  Biso   1.000  H
  C143     1.0000 0.46540  0.91320  0.77966  Biso   1.000  C
  C144     1.0000 0.38410  0.92290  0.77656  Biso   1.000  C
  H99      1.0000 0.35920  0.93100  0.76080  Biso   1.000  H
  C145     1.0000 0.34000  0.92050  0.79701  Biso   1.000  C
  H100     1.0000 0.28560  0.92700  0.79490  Biso   1.000  H
  C146     1.0000 0.27860  0.98140  0.90370  Biso   1.000  C
  C147     1.0000 0.32510  0.99090  0.92870  Biso   1.000  C
  C148     1.0000 0.35470  0.95450  0.94430  Biso   1.000  C
  H101     1.0000 0.33890  0.92470  0.94020  Biso   1.000  H
  C149     1.0000 0.40740  0.96270  0.96569  Biso   1.000  C
  H102     1.0000 0.42580  0.93860  0.97610  Biso   1.000  H
  C150     1.0000 0.43260  0.00710  0.97159  Biso   1.000  C
  C151     1.0000 0.40510  0.04320  0.95610  Biso   1.000  C
  H103     1.0000 0.42200  0.07290  0.96000  Biso   1.000  H
  C152     1.0000 0.35240  0.03500  0.93471  Biso   1.000  C
  H104     1.0000 0.33400  0.05920  0.92430  Biso   1.000  H
  C153     1.0000 0.86730  0.06990  0.89880  Biso   1.000  C
  C154     1.0000 0.89500  0.05340  0.92500  Biso   1.000  C
  C155     1.0000 0.87560  0.00740  0.92874  Biso   1.000  C
  H105     1.0000 0.84540  0.99100  0.91620  Biso   1.000  H
  C156     1.0000 0.90230  0.98680  0.95154  Biso   1.000  C
  H106     1.0000 0.89090  0.95620  0.95420  Biso   1.000  H
  C157     1.0000 0.94610  0.01200  0.97032  Biso   1.000  C
  C158     1.0000 0.96320  0.05780  0.96630  Biso   1.000  C
  H107     1.0000 0.99250  0.07470  0.97890  Biso   1.000  H
  C159     1.0000 0.93650  0.07840  0.94350  Biso   1.000  C
  H108     1.0000 0.94790  0.10900  0.94080  Biso   1.000  H
  C160     1.0000 0.24070  0.04810  0.81120  Biso   1.000  C
  C161     1.0000 0.04900  0.09220  0.87063  Biso   1.000  C
  H109     1.0000 0.04090  0.09350  0.88750  Biso   1.000  H
  C162     1.0000 0.12100  0.07560  0.86380  Biso   1.000  C
  H110     1.0000 0.16050  0.06560  0.87610  Biso   1.000  H
  C163     1.0000 0.13370  0.07390  0.83860  Biso   1.000  C
  C164     1.0000 0.07460  0.08880  0.82023  Biso   1.000  C
  H111     1.0000 0.08310  0.08770  0.80340  Biso   1.000  H
  C165     1.0000 0.00270  0.10540  0.82706  Biso   1.000  C
  H112     1.0000 0.96310  0.11540  0.81480  Biso   1.000  H
  C166     1.0000 0.82460  0.00650  0.81110  Biso   1.000  C
  C167     1.0000 0.04910  0.96086  0.87366  Biso   1.000  C
  H113     1.0000 0.06450  0.95490  0.89060  Biso   1.000  H
  C168     1.0000 0.97340  0.97836  0.86615  Biso   1.000  C
  H114     1.0000 0.93840  0.98430  0.87800  Biso   1.000  H
  C169     1.0000 0.95000  0.98695  0.84086  Biso   1.000  C
  C170     1.0000 0.00230  0.97806  0.82309  Biso   1.000  C
  H115     1.0000 0.98670  0.98380  0.80620  Biso   1.000  H
  C171     1.0000 0.07800  0.96057  0.83060  Biso   1.000  C
  H116     1.0000 0.11300  0.95460  0.81870  Biso   1.000  H
  C172     1.0000 0.74420  0.01780  0.81140  Biso   1.000  C
  C173     1.0000 0.70880  0.03212  0.83232  Biso   1.000  C
  H117     1.0000 0.74030  0.03840  0.84730  Biso   1.000  H
  C174     1.0000 0.62630  0.03701  0.83085  Biso   1.000  C
  H118     1.0000 0.60260  0.04660  0.84480  Biso   1.000  H
  C175     1.0000 0.57910  0.02757  0.80845  Biso   1.000  C
  C176     1.0000 0.61460  0.01325  0.78753  Biso   1.000  C
  H119     1.0000 0.58300  0.00690  0.77250  Biso   1.000  H
  C177     1.0000 0.69710  0.00836  0.78901  Biso   1.000  C
  H120     1.0000 0.72080  0.99880  0.77500  Biso   1.000  H
  C178     1.0000 0.48560  0.03001  0.80879  Biso   1.000  C
  C179     1.0000 0.45400  0.02135  0.83122  Biso   1.000  C
  H121     1.0000 0.48710  0.01140  0.84520  Biso   1.000  H
  C180     1.0000 0.37280  0.02760  0.83274  Biso   1.000  C
  H122     1.0000 0.35160  0.02180  0.84770  Biso   1.000  H
  C181     1.0000 0.32330  0.04251  0.81182  Biso   1.000  C
  C182     1.0000 0.35490  0.05116  0.78938  Biso   1.000  C
  H123     1.0000 0.32180  0.06110  0.77540  Biso   1.000  H
  C183     1.0000 0.43610  0.04491  0.78787  Biso   1.000  C
  H124     1.0000 0.45730  0.05070  0.77290  Biso   1.000  H
  C184     1.0000 0.20320  0.82472  0.85800  Biso   1.000  C
  H125     1.0000 0.23270  0.83440  0.84530  Biso   1.000  H
  C185     1.0000 0.19100  0.77828  0.86170  Biso   1.000  C
  H126     1.0000 0.21230  0.75690  0.85140  Biso   1.000  H
  C186     1.0000 0.14700  0.76382  0.88073  Biso   1.000  C
  C187     1.0000 0.11520  0.79579  0.89607  Biso   1.000  C
  H127     1.0000 0.08570  0.78610  0.90880  Biso   1.000  H
  C188     1.0000 0.12730  0.84223  0.89237  Biso   1.000  C
  H128     1.0000 0.10600  0.86360  0.90260  Biso   1.000  H
  C189     1.0000 0.15930  0.62190  0.89909  Biso   1.000  C
  H129     1.0000 0.20760  0.63760  0.90050  Biso   1.000  H
  C190     1.0000 0.08760  0.64594  0.89616  Biso   1.000  C
  C191     1.0000 0.01540  0.62245  0.89403  Biso   1.000  C
  H130     1.0000 0.96740  0.63850  0.89210  Biso   1.000  H
  C192     1.0000 0.01480  0.57492  0.89484  Biso   1.000  C
  H131     1.0000 0.96650  0.55920  0.89340  Biso   1.000  H
  C193     1.0000 0.08650  0.55088  0.89777  Biso   1.000  C
  C194     1.0000 0.15870  0.57437  0.89990  Biso   1.000  C
  H132     1.0000 0.20670  0.55830  0.90190  Biso   1.000  H
  C195     1.0000 0.07120  0.69830  0.89510  Biso   1.000  C
  C196     1.0000 0.14240  0.42680  0.88887  Biso   1.000  C
  H133     1.0000 0.18540  0.41050  0.88390  Biso   1.000  H
  C197     1.0000 0.14580  0.47420  0.89054  Biso   1.000  C
  H134     1.0000 0.19120  0.48970  0.88670  Biso   1.000  H
  C198     1.0000 0.08140  0.49850  0.89793  Biso   1.000  C
  C199     1.0000 0.01350  0.47540  0.90365  Biso   1.000  C
  H135     1.0000 0.97040  0.49170  0.90860  Biso   1.000  H
  C200     1.0000 0.01010  0.42800  0.90197  Biso   1.000  C
  H136     1.0000 0.96470  0.41250  0.90580  Biso   1.000  H
  C201     1.0000 0.07450  0.40370  0.89458  Biso   1.000  C
  C202     1.0000 0.07380  0.35370  0.89870  Biso   1.000  C
  N23      1.0000 0.17320  0.85760  0.87380  Biso   1.000  N
  N24      1.0000 0.13580  0.71700  0.88250  Biso   1.000  N
  H137     1.0000 0.16780  0.69870  0.87600  Biso   1.000  H
  N25      1.0000 0.51780  0.91330  0.75920  Biso   1.000  N
  N26      1.0000 0.47470  0.01820  0.99640  Biso   1.000  N
  N27      1.0000 0.10120  0.95230  0.85610  Biso   1.000  N
  N28      1.0000 0.87120  0.00600  0.83480  Biso   1.000  N
  H138     1.0000 0.85010  0.01860  0.84710  Biso   1.000  H
  N29      1.0000 0.20030  0.05810  0.83426  Biso   1.000  N
  H139     1.0000 0.23000  0.05130  0.84790  Biso   1.000  H
  N30      1.0000 0.99020  0.10650  0.85267  Biso   1.000  N
  N31      1.0000 0.97970  0.99060  0.99400  Biso   1.000  N
  N32      1.0000 0.99720  0.33889  0.88638  Biso   1.000  N
  H140     1.0000 0.96230  0.35970  0.88200  Biso   1.000  H
  C203     1.0000 0.88480  0.23784  0.85756  Biso   1.000  C
  H141     1.0000 0.84180  0.23230  0.84550  Biso   1.000  H
  C204     1.0000 0.91020  0.28244  0.86268  Biso   1.000  C
  H142     1.0000 0.88430  0.30670  0.85400  Biso   1.000  H
  C205     1.0000 0.97440  0.29074  0.88076  Biso   1.000  C
  C206     1.0000 0.01320  0.25443  0.89371  Biso   1.000  C
  H143     1.0000 0.05610  0.26000  0.90580  Biso   1.000  H
  C207     1.0000 0.98770  0.20983  0.88858  Biso   1.000  C
  H144     1.0000 0.01370  0.18550  0.89720  Biso   1.000  H
  N33      1.0000 0.92360  0.20154  0.87051  Biso   1.000  N
  O21      1.0000 0.17670  0.05370  0.79140  Biso   1.000  O
  O22      1.0000 0.85390  0.99760  0.79251  Biso   1.000  O
  O23      1.0000 0.27210  0.00900  0.88540  Biso   1.000  O
  O24      1.0000 0.24210  0.94030  0.90179  Biso   1.000  O
  O25      1.0000 0.35690  0.89120  0.86290  Biso   1.000  O
  O26      1.0000 0.26920  0.92230  0.84034  Biso   1.000  O
  O27      1.0000 0.88860  0.11250  0.89762  Biso   1.000  O
  O28      1.0000 0.83960  0.04750  0.88116  Biso   1.000  O
  O29      1.0000 0.01270  0.71440  0.90440  Biso   1.000  O
  O30      1.0000 0.15530  0.33250  0.89510  Biso   1.000  O
  Zn5      1.0000 0.89033  0.13605  0.86365  Biso   1.000  Zn
  Zn6      1.0000 0.20483  0.92240  0.86840  Biso   1.000  Zn
  C208     1.0000 0.66580  0.90790  0.65390  Biso   1.000  C
  C209     1.0000 0.62430  0.90810  0.68070  Biso   1.000  C
  C210     1.0000 0.54140  0.89860  0.67636  Biso   1.000  C
  H145     1.0000 0.51740  0.89110  0.66040  Biso   1.000  H
  C211     1.0000 0.49730  0.90110  0.69680  Biso   1.000  C
  H146     1.0000 0.44290  0.89460  0.69470  Biso   1.000  H
  C212     1.0000 0.53460  0.91320  0.72034  Biso   1.000  C
  C213     1.0000 0.61590  0.92290  0.72344  Biso   1.000  C
  H147     1.0000 0.64080  0.93100  0.73920  Biso   1.000  H
  C214     1.0000 0.66000  0.92050  0.70299  Biso   1.000  C
  H148     1.0000 0.71440  0.92700  0.70510  Biso   1.000  H
  C215     1.0000 0.72140  0.98140  0.59630  Biso   1.000  C
  C216     1.0000 0.67490  0.99090  0.57130  Biso   1.000  C
  C217     1.0000 0.64530  0.95450  0.55570  Biso   1.000  C
  H149     1.0000 0.66110  0.92470  0.55980  Biso   1.000  H
  C218     1.0000 0.59260  0.96270  0.53431  Biso   1.000  C
  H150     1.0000 0.57420  0.93860  0.52390  Biso   1.000  H
  C219     1.0000 0.56740  0.00710  0.52841  Biso   1.000  C
  C220     1.0000 0.59490  0.04320  0.54390  Biso   1.000  C
  H151     1.0000 0.57800  0.07290  0.54000  Biso   1.000  H
  C221     1.0000 0.64760  0.03500  0.56529  Biso   1.000  C
  H152     1.0000 0.66600  0.05920  0.57570  Biso   1.000  H
  C222     1.0000 0.13270  0.06990  0.60120  Biso   1.000  C
  C223     1.0000 0.10500  0.05340  0.57500  Biso   1.000  C
  C224     1.0000 0.12440  0.00740  0.57126  Biso   1.000  C
  H153     1.0000 0.15460  0.99100  0.58380  Biso   1.000  H
  C225     1.0000 0.09770  0.98680  0.54846  Biso   1.000  C
  H154     1.0000 0.10910  0.95620  0.54580  Biso   1.000  H
  C226     1.0000 0.05390  0.01200  0.52968  Biso   1.000  C
  C227     1.0000 0.03680  0.05780  0.53370  Biso   1.000  C
  H155     1.0000 0.00750  0.07470  0.52110  Biso   1.000  H
  C228     1.0000 0.06350  0.07840  0.55650  Biso   1.000  C
  H156     1.0000 0.05210  0.10900  0.55920  Biso   1.000  H
  C229     1.0000 0.75930  0.04810  0.68880  Biso   1.000  C
  C230     1.0000 0.95100  0.09220  0.62937  Biso   1.000  C
  H157     1.0000 0.95910  0.09350  0.61250  Biso   1.000  H
  C231     1.0000 0.87900  0.07560  0.63620  Biso   1.000  C
  H158     1.0000 0.83950  0.06560  0.62390  Biso   1.000  H
  C232     1.0000 0.86630  0.07390  0.66140  Biso   1.000  C
  C233     1.0000 0.92540  0.08880  0.67977  Biso   1.000  C
  H159     1.0000 0.91690  0.08770  0.69660  Biso   1.000  H
  C234     1.0000 0.99730  0.10540  0.67294  Biso   1.000  C
  H160     1.0000 0.03690  0.11540  0.68520  Biso   1.000  H
  C235     1.0000 0.17540  0.00650  0.68890  Biso   1.000  C
  C236     1.0000 0.95090  0.96086  0.62634  Biso   1.000  C
  H161     1.0000 0.93550  0.95490  0.60940  Biso   1.000  H
  C237     1.0000 0.02660  0.97836  0.63385  Biso   1.000  C
  H162     1.0000 0.06160  0.98430  0.62200  Biso   1.000  H
  C238     1.0000 0.05000  0.98695  0.65914  Biso   1.000  C
  C239     1.0000 0.99770  0.97806  0.67691  Biso   1.000  C
  H163     1.0000 0.01330  0.98380  0.69380  Biso   1.000  H
  C240     1.0000 0.92200  0.96057  0.66940  Biso   1.000  C
  H164     1.0000 0.88700  0.95460  0.68130  Biso   1.000  H
  C241     1.0000 0.25580  0.01780  0.68860  Biso   1.000  C
  C242     1.0000 0.29120  0.03212  0.66768  Biso   1.000  C
  H165     1.0000 0.25970  0.03840  0.65270  Biso   1.000  H
  C243     1.0000 0.37370  0.03701  0.66915  Biso   1.000  C
  H166     1.0000 0.39740  0.04660  0.65520  Biso   1.000  H
  C244     1.0000 0.42090  0.02757  0.69155  Biso   1.000  C
  C245     1.0000 0.38540  0.01325  0.71247  Biso   1.000  C
  H167     1.0000 0.41700  0.00690  0.72750  Biso   1.000  H
  C246     1.0000 0.30290  0.00836  0.71099  Biso   1.000  C
  H168     1.0000 0.27920  0.99880  0.72500  Biso   1.000  H
  C247     1.0000 0.51440  0.03001  0.69121  Biso   1.000  C
  C248     1.0000 0.54600  0.02135  0.66878  Biso   1.000  C
  H169     1.0000 0.51290  0.01140  0.65480  Biso   1.000  H
  C249     1.0000 0.62720  0.02760  0.66726  Biso   1.000  C
  H170     1.0000 0.64840  0.02180  0.65230  Biso   1.000  H
  C250     1.0000 0.67670  0.04251  0.68818  Biso   1.000  C
  C251     1.0000 0.64510  0.05116  0.71062  Biso   1.000  C
  H171     1.0000 0.67820  0.06110  0.72460  Biso   1.000  H
  C252     1.0000 0.56390  0.04491  0.71213  Biso   1.000  C
  H172     1.0000 0.54270  0.05070  0.72710  Biso   1.000  H
  C253     1.0000 0.79680  0.82472  0.64200  Biso   1.000  C
  H173     1.0000 0.76730  0.83440  0.65470  Biso   1.000  H
  C254     1.0000 0.80900  0.77828  0.63830  Biso   1.000  C
  H174     1.0000 0.78770  0.75690  0.64860  Biso   1.000  H
  C255     1.0000 0.85300  0.76382  0.61927  Biso   1.000  C
  C256     1.0000 0.88480  0.79579  0.60393  Biso   1.000  C
  H175     1.0000 0.91430  0.78610  0.59120  Biso   1.000  H
  C257     1.0000 0.87270  0.84223  0.60763  Biso   1.000  C
  H176     1.0000 0.89400  0.86360  0.59740  Biso   1.000  H
  C258     1.0000 0.84070  0.62190  0.60091  Biso   1.000  C
  H177     1.0000 0.79240  0.63760  0.59950  Biso   1.000  H
  C259     1.0000 0.91240  0.64594  0.60384  Biso   1.000  C
  C260     1.0000 0.98460  0.62245  0.60597  Biso   1.000  C
  H178     1.0000 0.03260  0.63850  0.60790  Biso   1.000  H
  C261     1.0000 0.98520  0.57492  0.60516  Biso   1.000  C
  H179     1.0000 0.03350  0.55920  0.60660  Biso   1.000  H
  C262     1.0000 0.91350  0.55088  0.60223  Biso   1.000  C
  C263     1.0000 0.84130  0.57437  0.60010  Biso   1.000  C
  H180     1.0000 0.79330  0.55830  0.59810  Biso   1.000  H
  C264     1.0000 0.92880  0.69830  0.60490  Biso   1.000  C
  C265     1.0000 0.85760  0.42680  0.61113  Biso   1.000  C
  H181     1.0000 0.81460  0.41050  0.61610  Biso   1.000  H
  C266     1.0000 0.85420  0.47420  0.60946  Biso   1.000  C
  H182     1.0000 0.80880  0.48970  0.61330  Biso   1.000  H
  C267     1.0000 0.91860  0.49850  0.60207  Biso   1.000  C
  C268     1.0000 0.98650  0.47540  0.59635  Biso   1.000  C
  H183     1.0000 0.02960  0.49170  0.59140  Biso   1.000  H
  C269     1.0000 0.98990  0.42800  0.59803  Biso   1.000  C
  H184     1.0000 0.03530  0.41250  0.59420  Biso   1.000  H
  C270     1.0000 0.92550  0.40370  0.60542  Biso   1.000  C
  C271     1.0000 0.92620  0.35370  0.60130  Biso   1.000  C
  N34      1.0000 0.82680  0.85760  0.62620  Biso   1.000  N
  N35      1.0000 0.86420  0.71700  0.61750  Biso   1.000  N
  H185     1.0000 0.83220  0.69870  0.62400  Biso   1.000  H
  N36      1.0000 0.48220  0.91330  0.74080  Biso   1.000  N
  N37      1.0000 0.52530  0.01820  0.50360  Biso   1.000  N
  N38      1.0000 0.89880  0.95230  0.64390  Biso   1.000  N
  N39      1.0000 0.12880  0.00600  0.66520  Biso   1.000  N
  H186     1.0000 0.14990  0.01860  0.65290  Biso   1.000  H
  N40      1.0000 0.79970  0.05810  0.66574  Biso   1.000  N
  H187     1.0000 0.77000  0.05130  0.65210  Biso   1.000  H
  N41      1.0000 0.00980  0.10650  0.64733  Biso   1.000  N
  N42      1.0000 0.02030  0.99060  0.50600  Biso   1.000  N
  N43      1.0000 0.00280  0.33889  0.61362  Biso   1.000  N
  H188     1.0000 0.03770  0.35970  0.61800  Biso   1.000  H
  C272     1.0000 0.11520  0.23784  0.64244  Biso   1.000  C
  H189     1.0000 0.15820  0.23230  0.65450  Biso   1.000  H
  C273     1.0000 0.08980  0.28244  0.63732  Biso   1.000  C
  H190     1.0000 0.11570  0.30670  0.64600  Biso   1.000  H
  C274     1.0000 0.02560  0.29074  0.61924  Biso   1.000  C
  C275     1.0000 0.98680  0.25443  0.60629  Biso   1.000  C
  H191     1.0000 0.94390  0.26000  0.59420  Biso   1.000  H
  C276     1.0000 0.01230  0.20983  0.61142  Biso   1.000  C
  H192     1.0000 0.98630  0.18550  0.60280  Biso   1.000  H
  N44      1.0000 0.07640  0.20154  0.62949  Biso   1.000  N
  O31      1.0000 0.82330  0.05370  0.70860  Biso   1.000  O
  O32      1.0000 0.14610  0.99760  0.70749  Biso   1.000  O
  O33      1.0000 0.72790  0.00900  0.61460  Biso   1.000  O
  O34      1.0000 0.75790  0.94030  0.59821  Biso   1.000  O
  O35      1.0000 0.64310  0.89120  0.63710  Biso   1.000  O
  O36      1.0000 0.73080  0.92230  0.65966  Biso   1.000  O
  O37      1.0000 0.11140  0.11250  0.60238  Biso   1.000  O
  O38      1.0000 0.16040  0.04750  0.61884  Biso   1.000  O
  O39      1.0000 0.98730  0.71440  0.59560  Biso   1.000  O
  O40      1.0000 0.84470  0.33250  0.60490  Biso   1.000  O
  Zn7      1.0000 0.10967  0.13605  0.63635  Biso   1.000  Zn
  Zn8      1.0000 0.79517  0.92240  0.63160  Biso   1.000  Zn
  C277     1.0000 0.16580  0.59210  0.15390  Biso   1.000  C
  C278     1.0000 0.12430  0.59190  0.18070  Biso   1.000  C
  C279     1.0000 0.04140  0.60140  0.17636  Biso   1.000  C
  H193     1.0000 0.01740  0.60890  0.16040  Biso   1.000  H
  C280     1.0000 0.99730  0.59890  0.19680  Biso   1.000  C
  H194     1.0000 0.94290  0.60540  0.19470  Biso   1.000  H
  C281     1.0000 0.03460  0.58680  0.22034  Biso   1.000  C
  C282     1.0000 0.11590  0.57710  0.22344  Biso   1.000  C
  H195     1.0000 0.14080  0.56900  0.23920  Biso   1.000  H
  C283     1.0000 0.16000  0.57950  0.20299  Biso   1.000  C
  H196     1.0000 0.21440  0.57300  0.20510  Biso   1.000  H
  C284     1.0000 0.22140  0.51860  0.09630  Biso   1.000  C
  C285     1.0000 0.17490  0.50910  0.07130  Biso   1.000  C
  C286     1.0000 0.14530  0.54550  0.05570  Biso   1.000  C
  H197     1.0000 0.16110  0.57530  0.05980  Biso   1.000  H
  C287     1.0000 0.09260  0.53730  0.03431  Biso   1.000  C
  H198     1.0000 0.07420  0.56140  0.02390  Biso   1.000  H
  C288     1.0000 0.06740  0.49290  0.02841  Biso   1.000  C
  C289     1.0000 0.09490  0.45680  0.04390  Biso   1.000  C
  H199     1.0000 0.07800  0.42710  0.04000  Biso   1.000  H
  C290     1.0000 0.14760  0.46500  0.06529  Biso   1.000  C
  H200     1.0000 0.16600  0.44080  0.07570  Biso   1.000  H
  C291     1.0000 0.63270  0.43010  0.10120  Biso   1.000  C
  C292     1.0000 0.60500  0.44660  0.07500  Biso   1.000  C
  C293     1.0000 0.62440  0.49260  0.07126  Biso   1.000  C
  H201     1.0000 0.65460  0.50900  0.08380  Biso   1.000  H
  C294     1.0000 0.59770  0.51320  0.04846  Biso   1.000  C
  H202     1.0000 0.60910  0.54380  0.04580  Biso   1.000  H
  C295     1.0000 0.55390  0.48800  0.02968  Biso   1.000  C
  C296     1.0000 0.53680  0.44220  0.03370  Biso   1.000  C
  H203     1.0000 0.50750  0.42530  0.02110  Biso   1.000  H
  C297     1.0000 0.56350  0.42160  0.05650  Biso   1.000  C
  H204     1.0000 0.55210  0.39100  0.05920  Biso   1.000  H
  C298     1.0000 0.25930  0.45190  0.18880  Biso   1.000  C
  C299     1.0000 0.45100  0.40780  0.12937  Biso   1.000  C
  H205     1.0000 0.45910  0.40650  0.11250  Biso   1.000  H
  C300     1.0000 0.37900  0.42440  0.13620  Biso   1.000  C
  H206     1.0000 0.33950  0.43440  0.12390  Biso   1.000  H
  C301     1.0000 0.36630  0.42610  0.16140  Biso   1.000  C
  C302     1.0000 0.42540  0.41120  0.17977  Biso   1.000  C
  H207     1.0000 0.41690  0.41230  0.19660  Biso   1.000  H
  C303     1.0000 0.49730  0.39460  0.17294  Biso   1.000  C
  H208     1.0000 0.53690  0.38460  0.18520  Biso   1.000  H
  C304     1.0000 0.67540  0.49350  0.18890  Biso   1.000  C
  C305     1.0000 0.45090  0.53914  0.12634  Biso   1.000  C
  H209     1.0000 0.43550  0.54510  0.10940  Biso   1.000  H
  C306     1.0000 0.52660  0.52164  0.13385  Biso   1.000  C
  H210     1.0000 0.56160  0.51570  0.12200  Biso   1.000  H
  C307     1.0000 0.55000  0.51305  0.15914  Biso   1.000  C
  C308     1.0000 0.49770  0.52194  0.17691  Biso   1.000  C
  H211     1.0000 0.51330  0.51620  0.19380  Biso   1.000  H
  C309     1.0000 0.42200  0.53943  0.16940  Biso   1.000  C
  H212     1.0000 0.38700  0.54540  0.18130  Biso   1.000  H
  C310     1.0000 0.75580  0.48220  0.18860  Biso   1.000  C
  C311     1.0000 0.79120  0.46788  0.16768  Biso   1.000  C
  H213     1.0000 0.75970  0.46160  0.15270  Biso   1.000  H
  C312     1.0000 0.87370  0.46299  0.16915  Biso   1.000  C
  H214     1.0000 0.89740  0.45340  0.15520  Biso   1.000  H
  C313     1.0000 0.92090  0.47243  0.19155  Biso   1.000  C
  C314     1.0000 0.88540  0.48675  0.21247  Biso   1.000  C
  H215     1.0000 0.91700  0.49310  0.22750  Biso   1.000  H
  C315     1.0000 0.80290  0.49164  0.21099  Biso   1.000  C
  H216     1.0000 0.77920  0.50120  0.22500  Biso   1.000  H
  C316     1.0000 0.01440  0.46999  0.19121  Biso   1.000  C
  C317     1.0000 0.04600  0.47865  0.16878  Biso   1.000  C
  H217     1.0000 0.01290  0.48860  0.15480  Biso   1.000  H
  C318     1.0000 0.12720  0.47240  0.16726  Biso   1.000  C
  H218     1.0000 0.14840  0.47820  0.15230  Biso   1.000  H
  C319     1.0000 0.17670  0.45749  0.18818  Biso   1.000  C
  C320     1.0000 0.14510  0.44884  0.21062  Biso   1.000  C
  H219     1.0000 0.17820  0.43890  0.22460  Biso   1.000  H
  C321     1.0000 0.06390  0.45509  0.21213  Biso   1.000  C
  H220     1.0000 0.04270  0.44930  0.22710  Biso   1.000  H
  C322     1.0000 0.29680  0.67528  0.14200  Biso   1.000  C
  H221     1.0000 0.26730  0.66560  0.15470  Biso   1.000  H
  C323     1.0000 0.30900  0.72172  0.13830  Biso   1.000  C
  H222     1.0000 0.28770  0.74310  0.14860  Biso   1.000  H
  C324     1.0000 0.35300  0.73618  0.11927  Biso   1.000  C
  C325     1.0000 0.38480  0.70421  0.10393  Biso   1.000  C
  H223     1.0000 0.41430  0.71390  0.09120  Biso   1.000  H
  C326     1.0000 0.37270  0.65777  0.10763  Biso   1.000  C
  H224     1.0000 0.39400  0.63640  0.09740  Biso   1.000  H
  C327     1.0000 0.34070  0.87810  0.10091  Biso   1.000  C
  H225     1.0000 0.29240  0.86240  0.09950  Biso   1.000  H
  C328     1.0000 0.41240  0.85406  0.10384  Biso   1.000  C
  C329     1.0000 0.48460  0.87755  0.10597  Biso   1.000  C
  H226     1.0000 0.53260  0.86150  0.10790  Biso   1.000  H
  C330     1.0000 0.48520  0.92508  0.10516  Biso   1.000  C
  H227     1.0000 0.53350  0.94080  0.10660  Biso   1.000  H
  C331     1.0000 0.41350  0.94912  0.10223  Biso   1.000  C
  C332     1.0000 0.34130  0.92563  0.10010  Biso   1.000  C
  H228     1.0000 0.29330  0.94170  0.09810  Biso   1.000  H
  C333     1.0000 0.42880  0.80170  0.10490  Biso   1.000  C
  C334     1.0000 0.35760  0.07320  0.11113  Biso   1.000  C
  H229     1.0000 0.31460  0.08950  0.11610  Biso   1.000  H
  C335     1.0000 0.35420  0.02580  0.10946  Biso   1.000  C
  H230     1.0000 0.30880  0.01030  0.11330  Biso   1.000  H
  C336     1.0000 0.41860  0.00150  0.10207  Biso   1.000  C
  C337     1.0000 0.48650  0.02460  0.09635  Biso   1.000  C
  H231     1.0000 0.52960  0.00830  0.09140  Biso   1.000  H
  C338     1.0000 0.48990  0.07200  0.09803  Biso   1.000  C
  H232     1.0000 0.53530  0.08750  0.09420  Biso   1.000  H
  C339     1.0000 0.42550  0.09630  0.10542  Biso   1.000  C
  C340     1.0000 0.42620  0.14630  0.10130  Biso   1.000  C
  N45      1.0000 0.32680  0.64240  0.12620  Biso   1.000  N
  N46      1.0000 0.36420  0.78300  0.11750  Biso   1.000  N
  H233     1.0000 0.33220  0.80130  0.12400  Biso   1.000  H
  N47      1.0000 0.98220  0.58670  0.24080  Biso   1.000  N
  N48      1.0000 0.02530  0.48180  0.00360  Biso   1.000  N
  N49      1.0000 0.39880  0.54770  0.14390  Biso   1.000  N
  N50      1.0000 0.62880  0.49400  0.16520  Biso   1.000  N
  H234     1.0000 0.64990  0.48140  0.15290  Biso   1.000  H
  N51      1.0000 0.29970  0.44190  0.16574  Biso   1.000  N
  H235     1.0000 0.27000  0.44870  0.15210  Biso   1.000  H
  N52      1.0000 0.50980  0.39350  0.14733  Biso   1.000  N
  N53      1.0000 0.52030  0.50940  0.00600  Biso   1.000  N
  N54      1.0000 0.50280  0.16111  0.11362  Biso   1.000  N
  H236     1.0000 0.53770  0.14030  0.11800  Biso   1.000  H
  C341     1.0000 0.61520  0.26216  0.14244  Biso   1.000  C
  H237     1.0000 0.65820  0.26770  0.15450  Biso   1.000  H
  C342     1.0000 0.58980  0.21756  0.13732  Biso   1.000  C
  H238     1.0000 0.61570  0.19330  0.14600  Biso   1.000  H
  C343     1.0000 0.52560  0.20926  0.11924  Biso   1.000  C
  C344     1.0000 0.48680  0.24557  0.10629  Biso   1.000  C
  H239     1.0000 0.44390  0.24000  0.09420  Biso   1.000  H
  C345     1.0000 0.51230  0.29017  0.11142  Biso   1.000  C
  H240     1.0000 0.48630  0.31450  0.10280  Biso   1.000  H
  N55      1.0000 0.57640  0.29846  0.12949  Biso   1.000  N
  O41      1.0000 0.32330  0.44630  0.20860  Biso   1.000  O
  O42      1.0000 0.64610  0.50240  0.20749  Biso   1.000  O
  O43      1.0000 0.22790  0.49100  0.11460  Biso   1.000  O
  O44      1.0000 0.25790  0.55970  0.09821  Biso   1.000  O
  O45      1.0000 0.14310  0.60880  0.13710  Biso   1.000  O
  O46      1.0000 0.23080  0.57770  0.15966  Biso   1.000  O
  O47      1.0000 0.61140  0.38750  0.10238  Biso   1.000  O
  O48      1.0000 0.66040  0.45250  0.11884  Biso   1.000  O
  O49      1.0000 0.48730  0.78560  0.09560  Biso   1.000  O
  O50      1.0000 0.34470  0.16750  0.10490  Biso   1.000  O
  Zn9      1.0000 0.60967  0.36395  0.13635  Biso   1.000  Zn
  Zn10     1.0000 0.29517  0.57760  0.13160  Biso   1.000  Zn
  C346     1.0000 0.83420  0.59210  0.34610  Biso   1.000  C
  C347     1.0000 0.87570  0.59190  0.31930  Biso   1.000  C
  C348     1.0000 0.95860  0.60140  0.32364  Biso   1.000  C
  H241     1.0000 0.98260  0.60890  0.33960  Biso   1.000  H
  C349     1.0000 0.00270  0.59890  0.30320  Biso   1.000  C
  H242     1.0000 0.05710  0.60540  0.30530  Biso   1.000  H
  C350     1.0000 0.96540  0.58680  0.27966  Biso   1.000  C
  C351     1.0000 0.88410  0.57710  0.27656  Biso   1.000  C
  H243     1.0000 0.85920  0.56900  0.26080  Biso   1.000  H
  C352     1.0000 0.84000  0.57950  0.29701  Biso   1.000  C
  H244     1.0000 0.78560  0.57300  0.29490  Biso   1.000  H
  C353     1.0000 0.77860  0.51860  0.40370  Biso   1.000  C
  C354     1.0000 0.82510  0.50910  0.42870  Biso   1.000  C
  C355     1.0000 0.85470  0.54550  0.44430  Biso   1.000  C
  H245     1.0000 0.83890  0.57530  0.44020  Biso   1.000  H
  C356     1.0000 0.90740  0.53730  0.46569  Biso   1.000  C
  H246     1.0000 0.92580  0.56140  0.47610  Biso   1.000  H
  C357     1.0000 0.93260  0.49290  0.47159  Biso   1.000  C
  C358     1.0000 0.90510  0.45680  0.45610  Biso   1.000  C
  H247     1.0000 0.92200  0.42710  0.46000  Biso   1.000  H
  C359     1.0000 0.85240  0.46500  0.43471  Biso   1.000  C
  H248     1.0000 0.83400  0.44080  0.42430  Biso   1.000  H
  C360     1.0000 0.36730  0.43010  0.39880  Biso   1.000  C
  C361     1.0000 0.39500  0.44660  0.42500  Biso   1.000  C
  C362     1.0000 0.37560  0.49260  0.42874  Biso   1.000  C
  H249     1.0000 0.34540  0.50900  0.41620  Biso   1.000  H
  C363     1.0000 0.40230  0.51320  0.45154  Biso   1.000  C
  H250     1.0000 0.39090  0.54380  0.45420  Biso   1.000  H
  C364     1.0000 0.44610  0.48800  0.47032  Biso   1.000  C
  C365     1.0000 0.46320  0.44220  0.46630  Biso   1.000  C
  H251     1.0000 0.49250  0.42530  0.47890  Biso   1.000  H
  C366     1.0000 0.43650  0.42160  0.44350  Biso   1.000  C
  H252     1.0000 0.44790  0.39100  0.44080  Biso   1.000  H
  C367     1.0000 0.74070  0.45190  0.31120  Biso   1.000  C
  C368     1.0000 0.54900  0.40780  0.37063  Biso   1.000  C
  H253     1.0000 0.54090  0.40650  0.38750  Biso   1.000  H
  C369     1.0000 0.62100  0.42440  0.36380  Biso   1.000  C
  H254     1.0000 0.66050  0.43440  0.37610  Biso   1.000  H
  C370     1.0000 0.63370  0.42610  0.33860  Biso   1.000  C
  C371     1.0000 0.57460  0.41120  0.32023  Biso   1.000  C
  H255     1.0000 0.58310  0.41230  0.30340  Biso   1.000  H
  C372     1.0000 0.50270  0.39460  0.32706  Biso   1.000  C
  H256     1.0000 0.46310  0.38460  0.31480  Biso   1.000  H
  C373     1.0000 0.32460  0.49350  0.31110  Biso   1.000  C
  C374     1.0000 0.54910  0.53914  0.37366  Biso   1.000  C
  H257     1.0000 0.56450  0.54510  0.39060  Biso   1.000  H
  C375     1.0000 0.47340  0.52164  0.36615  Biso   1.000  C
  H258     1.0000 0.43840  0.51570  0.37800  Biso   1.000  H
  C376     1.0000 0.45000  0.51305  0.34086  Biso   1.000  C
  C377     1.0000 0.50230  0.52194  0.32309  Biso   1.000  C
  H259     1.0000 0.48670  0.51620  0.30620  Biso   1.000  H
  C378     1.0000 0.57800  0.53943  0.33060  Biso   1.000  C
  H260     1.0000 0.61300  0.54540  0.31870  Biso   1.000  H
  C379     1.0000 0.24420  0.48220  0.31140  Biso   1.000  C
  C380     1.0000 0.20880  0.46788  0.33232  Biso   1.000  C
  H261     1.0000 0.24030  0.46160  0.34730  Biso   1.000  H
  C381     1.0000 0.12630  0.46299  0.33085  Biso   1.000  C
  H262     1.0000 0.10260  0.45340  0.34480  Biso   1.000  H
  C382     1.0000 0.07910  0.47243  0.30845  Biso   1.000  C
  C383     1.0000 0.11460  0.48675  0.28753  Biso   1.000  C
  H263     1.0000 0.08300  0.49310  0.27250  Biso   1.000  H
  C384     1.0000 0.19710  0.49164  0.28901  Biso   1.000  C
  H264     1.0000 0.22080  0.50120  0.27500  Biso   1.000  H
  C385     1.0000 0.98560  0.46999  0.30879  Biso   1.000  C
  C386     1.0000 0.95400  0.47865  0.33122  Biso   1.000  C
  H265     1.0000 0.98710  0.48860  0.34520  Biso   1.000  H
  C387     1.0000 0.87280  0.47240  0.33274  Biso   1.000  C
  H266     1.0000 0.85160  0.47820  0.34770  Biso   1.000  H
  C388     1.0000 0.82330  0.45749  0.31182  Biso   1.000  C
  C389     1.0000 0.85490  0.44884  0.28938  Biso   1.000  C
  H267     1.0000 0.82180  0.43890  0.27540  Biso   1.000  H
  C390     1.0000 0.93610  0.45509  0.28787  Biso   1.000  C
  H268     1.0000 0.95730  0.44930  0.27290  Biso   1.000  H
  C391     1.0000 0.70320  0.67528  0.35800  Biso   1.000  C
  H269     1.0000 0.73270  0.66560  0.34530  Biso   1.000  H
  C392     1.0000 0.69100  0.72172  0.36170  Biso   1.000  C
  H270     1.0000 0.71230  0.74310  0.35140  Biso   1.000  H
  C393     1.0000 0.64700  0.73618  0.38073  Biso   1.000  C
  C394     1.0000 0.61520  0.70421  0.39607  Biso   1.000  C
  H271     1.0000 0.58570  0.71390  0.40880  Biso   1.000  H
  C395     1.0000 0.62730  0.65777  0.39237  Biso   1.000  C
  H272     1.0000 0.60600  0.63640  0.40260  Biso   1.000  H
  C396     1.0000 0.65930  0.87810  0.39909  Biso   1.000  C
  H273     1.0000 0.70760  0.86240  0.40050  Biso   1.000  H
  C397     1.0000 0.58760  0.85406  0.39616  Biso   1.000  C
  C398     1.0000 0.51540  0.87755  0.39403  Biso   1.000  C
  H274     1.0000 0.46740  0.86150  0.39210  Biso   1.000  H
  C399     1.0000 0.51480  0.92508  0.39484  Biso   1.000  C
  H275     1.0000 0.46650  0.94080  0.39340  Biso   1.000  H
  C400     1.0000 0.58650  0.94912  0.39777  Biso   1.000  C
  C401     1.0000 0.65870  0.92563  0.39990  Biso   1.000  C
  H276     1.0000 0.70670  0.94170  0.40190  Biso   1.000  H
  C402     1.0000 0.57120  0.80170  0.39510  Biso   1.000  C
  C403     1.0000 0.64240  0.07320  0.38887  Biso   1.000  C
  H277     1.0000 0.68540  0.08950  0.38390  Biso   1.000  H
  C404     1.0000 0.64580  0.02580  0.39054  Biso   1.000  C
  H278     1.0000 0.69120  0.01030  0.38670  Biso   1.000  H
  C405     1.0000 0.58140  0.00150  0.39793  Biso   1.000  C
  C406     1.0000 0.51350  0.02460  0.40365  Biso   1.000  C
  H279     1.0000 0.47040  0.00830  0.40860  Biso   1.000  H
  C407     1.0000 0.51010  0.07200  0.40197  Biso   1.000  C
  H280     1.0000 0.46470  0.08750  0.40580  Biso   1.000  H
  C408     1.0000 0.57450  0.09630  0.39458  Biso   1.000  C
  C409     1.0000 0.57380  0.14630  0.39870  Biso   1.000  C
  N56      1.0000 0.67320  0.64240  0.37380  Biso   1.000  N
  N57      1.0000 0.63580  0.78300  0.38250  Biso   1.000  N
  H281     1.0000 0.66780  0.80130  0.37600  Biso   1.000  H
  N58      1.0000 0.01780  0.58670  0.25920  Biso   1.000  N
  N59      1.0000 0.97470  0.48180  0.49640  Biso   1.000  N
  N60      1.0000 0.60120  0.54770  0.35610  Biso   1.000  N
  N61      1.0000 0.37120  0.49400  0.33480  Biso   1.000  N
  H282     1.0000 0.35010  0.48140  0.34710  Biso   1.000  H
  N62      1.0000 0.70030  0.44190  0.33426  Biso   1.000  N
  H283     1.0000 0.73000  0.44870  0.34790  Biso   1.000  H
  N63      1.0000 0.49020  0.39350  0.35267  Biso   1.000  N
  N64      1.0000 0.47970  0.50940  0.49400  Biso   1.000  N
  N65      1.0000 0.49720  0.16111  0.38638  Biso   1.000  N
  H284     1.0000 0.46230  0.14030  0.38200  Biso   1.000  H
  C410     1.0000 0.38480  0.26216  0.35756  Biso   1.000  C
  H285     1.0000 0.34180  0.26770  0.34550  Biso   1.000  H
  C411     1.0000 0.41020  0.21756  0.36268  Biso   1.000  C
  H286     1.0000 0.38430  0.19330  0.35400  Biso   1.000  H
  C412     1.0000 0.47440  0.20926  0.38076  Biso   1.000  C
  C413     1.0000 0.51320  0.24557  0.39371  Biso   1.000  C
  H287     1.0000 0.55610  0.24000  0.40580  Biso   1.000  H
  C414     1.0000 0.48770  0.29017  0.38858  Biso   1.000  C
  H288     1.0000 0.51370  0.31450  0.39720  Biso   1.000  H
  N66      1.0000 0.42360  0.29846  0.37051  Biso   1.000  N
  O51      1.0000 0.67670  0.44630  0.29140  Biso   1.000  O
  O52      1.0000 0.35390  0.50240  0.29251  Biso   1.000  O
  O53      1.0000 0.77210  0.49100  0.38540  Biso   1.000  O
  O54      1.0000 0.74210  0.55970  0.40179  Biso   1.000  O
  O55      1.0000 0.85690  0.60880  0.36290  Biso   1.000  O
  O56      1.0000 0.76920  0.57770  0.34034  Biso   1.000  O
  O57      1.0000 0.38860  0.38750  0.39762  Biso   1.000  O
  O58      1.0000 0.33960  0.45250  0.38116  Biso   1.000  O
  O59      1.0000 0.51270  0.78560  0.40440  Biso   1.000  O
  O60      1.0000 0.65530  0.16750  0.39510  Biso   1.000  O
  Zn11     1.0000 0.39033  0.36395  0.36365  Biso   1.000  Zn
  Zn12     1.0000 0.70483  0.57760  0.36840  Biso   1.000  Zn
  C415     1.0000 0.83420  0.40790  0.84610  Biso   1.000  C
  C416     1.0000 0.87570  0.40810  0.81930  Biso   1.000  C
  C417     1.0000 0.95860  0.39860  0.82364  Biso   1.000  C
  H289     1.0000 0.98260  0.39110  0.83960  Biso   1.000  H
  C418     1.0000 0.00270  0.40110  0.80320  Biso   1.000  C
  H290     1.0000 0.05710  0.39460  0.80530  Biso   1.000  H
  C419     1.0000 0.96540  0.41320  0.77966  Biso   1.000  C
  C420     1.0000 0.88410  0.42290  0.77656  Biso   1.000  C
  H291     1.0000 0.85920  0.43100  0.76080  Biso   1.000  H
  C421     1.0000 0.84000  0.42050  0.79701  Biso   1.000  C
  H292     1.0000 0.78560  0.42700  0.79490  Biso   1.000  H
  C422     1.0000 0.77860  0.48140  0.90370  Biso   1.000  C
  C423     1.0000 0.82510  0.49090  0.92870  Biso   1.000  C
  C424     1.0000 0.85470  0.45450  0.94430  Biso   1.000  C
  H293     1.0000 0.83890  0.42470  0.94020  Biso   1.000  H
  C425     1.0000 0.90740  0.46270  0.96569  Biso   1.000  C
  H294     1.0000 0.92580  0.43860  0.97610  Biso   1.000  H
  C426     1.0000 0.93260  0.50710  0.97159  Biso   1.000  C
  C427     1.0000 0.90510  0.54320  0.95610  Biso   1.000  C
  H295     1.0000 0.92200  0.57290  0.96000  Biso   1.000  H
  C428     1.0000 0.85240  0.53500  0.93471  Biso   1.000  C
  H296     1.0000 0.83400  0.55920  0.92430  Biso   1.000  H
  C429     1.0000 0.36730  0.56990  0.89880  Biso   1.000  C
  C430     1.0000 0.39500  0.55340  0.92500  Biso   1.000  C
  C431     1.0000 0.37560  0.50740  0.92874  Biso   1.000  C
  H297     1.0000 0.34540  0.49100  0.91620  Biso   1.000  H
  C432     1.0000 0.40230  0.48680  0.95154  Biso   1.000  C
  H298     1.0000 0.39090  0.45620  0.95420  Biso   1.000  H
  C433     1.0000 0.44610  0.51200  0.97032  Biso   1.000  C
  C434     1.0000 0.46320  0.55780  0.96630  Biso   1.000  C
  H299     1.0000 0.49250  0.57470  0.97890  Biso   1.000  H
  C435     1.0000 0.43650  0.57840  0.94350  Biso   1.000  C
  H300     1.0000 0.44790  0.60900  0.94080  Biso   1.000  H
  C436     1.0000 0.74070  0.54810  0.81120  Biso   1.000  C
  C437     1.0000 0.54900  0.59220  0.87063  Biso   1.000  C
  H301     1.0000 0.54090  0.59350  0.88750  Biso   1.000  H
  C438     1.0000 0.62100  0.57560  0.86380  Biso   1.000  C
  H302     1.0000 0.66050  0.56560  0.87610  Biso   1.000  H
  C439     1.0000 0.63370  0.57390  0.83860  Biso   1.000  C
  C440     1.0000 0.57460  0.58880  0.82023  Biso   1.000  C
  H303     1.0000 0.58310  0.58770  0.80340  Biso   1.000  H
  C441     1.0000 0.50270  0.60540  0.82706  Biso   1.000  C
  H304     1.0000 0.46310  0.61540  0.81480  Biso   1.000  H
  C442     1.0000 0.32460  0.50650  0.81110  Biso   1.000  C
  C443     1.0000 0.54910  0.46086  0.87366  Biso   1.000  C
  H305     1.0000 0.56450  0.45490  0.89060  Biso   1.000  H
  C444     1.0000 0.47340  0.47836  0.86615  Biso   1.000  C
  H306     1.0000 0.43840  0.48430  0.87800  Biso   1.000  H
  C445     1.0000 0.45000  0.48695  0.84086  Biso   1.000  C
  C446     1.0000 0.50230  0.47806  0.82309  Biso   1.000  C
  H307     1.0000 0.48670  0.48380  0.80620  Biso   1.000  H
  C447     1.0000 0.57800  0.46057  0.83060  Biso   1.000  C
  H308     1.0000 0.61300  0.45460  0.81870  Biso   1.000  H
  C448     1.0000 0.24420  0.51780  0.81140  Biso   1.000  C
  C449     1.0000 0.20880  0.53212  0.83232  Biso   1.000  C
  H309     1.0000 0.24030  0.53840  0.84730  Biso   1.000  H
  C450     1.0000 0.12630  0.53701  0.83085  Biso   1.000  C
  H310     1.0000 0.10260  0.54660  0.84480  Biso   1.000  H
  C451     1.0000 0.07910  0.52757  0.80845  Biso   1.000  C
  C452     1.0000 0.11460  0.51325  0.78753  Biso   1.000  C
  H311     1.0000 0.08300  0.50690  0.77250  Biso   1.000  H
  C453     1.0000 0.19710  0.50836  0.78901  Biso   1.000  C
  H312     1.0000 0.22080  0.49880  0.77500  Biso   1.000  H
  C454     1.0000 0.98560  0.53001  0.80879  Biso   1.000  C
  C455     1.0000 0.95400  0.52135  0.83122  Biso   1.000  C
  H313     1.0000 0.98710  0.51140  0.84520  Biso   1.000  H
  C456     1.0000 0.87280  0.52760  0.83274  Biso   1.000  C
  H314     1.0000 0.85160  0.52180  0.84770  Biso   1.000  H
  C457     1.0000 0.82330  0.54251  0.81182  Biso   1.000  C
  C458     1.0000 0.85490  0.55116  0.78938  Biso   1.000  C
  H315     1.0000 0.82180  0.56110  0.77540  Biso   1.000  H
  C459     1.0000 0.93610  0.54491  0.78787  Biso   1.000  C
  H316     1.0000 0.95730  0.55070  0.77290  Biso   1.000  H
  C460     1.0000 0.70320  0.32472  0.85800  Biso   1.000  C
  H317     1.0000 0.73270  0.33440  0.84530  Biso   1.000  H
  C461     1.0000 0.69100  0.27828  0.86170  Biso   1.000  C
  H318     1.0000 0.71230  0.25690  0.85140  Biso   1.000  H
  C462     1.0000 0.64700  0.26382  0.88073  Biso   1.000  C
  C463     1.0000 0.61520  0.29579  0.89607  Biso   1.000  C
  H319     1.0000 0.58570  0.28610  0.90880  Biso   1.000  H
  C464     1.0000 0.62730  0.34223  0.89237  Biso   1.000  C
  H320     1.0000 0.60600  0.36360  0.90260  Biso   1.000  H
  C465     1.0000 0.65930  0.12190  0.89909  Biso   1.000  C
  H321     1.0000 0.70760  0.13760  0.90050  Biso   1.000  H
  C466     1.0000 0.58760  0.14594  0.89616  Biso   1.000  C
  C467     1.0000 0.51540  0.12245  0.89403  Biso   1.000  C
  H322     1.0000 0.46740  0.13850  0.89210  Biso   1.000  H
  C468     1.0000 0.51480  0.07492  0.89484  Biso   1.000  C
  H323     1.0000 0.46650  0.05920  0.89340  Biso   1.000  H
  C469     1.0000 0.58650  0.05088  0.89777  Biso   1.000  C
  C470     1.0000 0.65870  0.07437  0.89990  Biso   1.000  C
  H324     1.0000 0.70670  0.05830  0.90190  Biso   1.000  H
  C471     1.0000 0.57120  0.19830  0.89510  Biso   1.000  C
  C472     1.0000 0.64240  0.92680  0.88887  Biso   1.000  C
  H325     1.0000 0.68540  0.91050  0.88390  Biso   1.000  H
  C473     1.0000 0.64580  0.97420  0.89054  Biso   1.000  C
  H326     1.0000 0.69120  0.98970  0.88670  Biso   1.000  H
  C474     1.0000 0.58140  0.99850  0.89793  Biso   1.000  C
  C475     1.0000 0.51350  0.97540  0.90365  Biso   1.000  C
  H327     1.0000 0.47040  0.99170  0.90860  Biso   1.000  H
  C476     1.0000 0.51010  0.92800  0.90197  Biso   1.000  C
  H328     1.0000 0.46470  0.91250  0.90580  Biso   1.000  H
  C477     1.0000 0.57450  0.90370  0.89458  Biso   1.000  C
  C478     1.0000 0.57380  0.85370  0.89870  Biso   1.000  C
  N67      1.0000 0.67320  0.35760  0.87380  Biso   1.000  N
  N68      1.0000 0.63580  0.21700  0.88250  Biso   1.000  N
  H329     1.0000 0.66780  0.19870  0.87600  Biso   1.000  H
  N69      1.0000 0.01780  0.41330  0.75920  Biso   1.000  N
  N70      1.0000 0.97470  0.51820  0.99640  Biso   1.000  N
  N71      1.0000 0.60120  0.45230  0.85610  Biso   1.000  N
  N72      1.0000 0.37120  0.50600  0.83480  Biso   1.000  N
  H330     1.0000 0.35010  0.51860  0.84710  Biso   1.000  H
  N73      1.0000 0.70030  0.55810  0.83426  Biso   1.000  N
  H331     1.0000 0.73000  0.55130  0.84790  Biso   1.000  H
  N74      1.0000 0.49020  0.60650  0.85267  Biso   1.000  N
  N75      1.0000 0.47970  0.49060  0.99400  Biso   1.000  N
  N76      1.0000 0.49720  0.83889  0.88638  Biso   1.000  N
  H332     1.0000 0.46230  0.85970  0.88200  Biso   1.000  H
  C479     1.0000 0.38480  0.73784  0.85756  Biso   1.000  C
  H333     1.0000 0.34180  0.73230  0.84550  Biso   1.000  H
  C480     1.0000 0.41020  0.78244  0.86268  Biso   1.000  C
  H334     1.0000 0.38430  0.80670  0.85400  Biso   1.000  H
  C481     1.0000 0.47440  0.79074  0.88076  Biso   1.000  C
  C482     1.0000 0.51320  0.75443  0.89371  Biso   1.000  C
  H335     1.0000 0.55610  0.76000  0.90580  Biso   1.000  H
  C483     1.0000 0.48770  0.70983  0.88858  Biso   1.000  C
  H336     1.0000 0.51370  0.68550  0.89720  Biso   1.000  H
  N77      1.0000 0.42360  0.70154  0.87051  Biso   1.000  N
  O61      1.0000 0.67670  0.55370  0.79140  Biso   1.000  O
  O62      1.0000 0.35390  0.49760  0.79251  Biso   1.000  O
  O63      1.0000 0.77210  0.50900  0.88540  Biso   1.000  O
  O64      1.0000 0.74210  0.44030  0.90179  Biso   1.000  O
  O65      1.0000 0.85690  0.39120  0.86290  Biso   1.000  O
  O66      1.0000 0.76920  0.42230  0.84034  Biso   1.000  O
  O67      1.0000 0.38860  0.61250  0.89762  Biso   1.000  O
  O68      1.0000 0.33960  0.54750  0.88116  Biso   1.000  O
  O69      1.0000 0.51270  0.21440  0.90440  Biso   1.000  O
  O70      1.0000 0.65530  0.83250  0.89510  Biso   1.000  O
  Zn13     1.0000 0.39033  0.63605  0.86365  Biso   1.000  Zn
  Zn14     1.0000 0.70483  0.42240  0.86840  Biso   1.000  Zn
  C484     1.0000 0.16580  0.40790  0.65390  Biso   1.000  C
  C485     1.0000 0.12430  0.40810  0.68070  Biso   1.000  C
  C486     1.0000 0.04140  0.39860  0.67636  Biso   1.000  C
  H337     1.0000 0.01740  0.39110  0.66040  Biso   1.000  H
  C487     1.0000 0.99730  0.40110  0.69680  Biso   1.000  C
  H338     1.0000 0.94290  0.39460  0.69470  Biso   1.000  H
  C488     1.0000 0.03460  0.41320  0.72034  Biso   1.000  C
  C489     1.0000 0.11590  0.42290  0.72344  Biso   1.000  C
  H339     1.0000 0.14080  0.43100  0.73920  Biso   1.000  H
  C490     1.0000 0.16000  0.42050  0.70299  Biso   1.000  C
  H340     1.0000 0.21440  0.42700  0.70510  Biso   1.000  H
  C491     1.0000 0.22140  0.48140  0.59630  Biso   1.000  C
  C492     1.0000 0.17490  0.49090  0.57130  Biso   1.000  C
  C493     1.0000 0.14530  0.45450  0.55570  Biso   1.000  C
  H341     1.0000 0.16110  0.42470  0.55980  Biso   1.000  H
  C494     1.0000 0.09260  0.46270  0.53431  Biso   1.000  C
  H342     1.0000 0.07420  0.43860  0.52390  Biso   1.000  H
  C495     1.0000 0.06740  0.50710  0.52841  Biso   1.000  C
  C496     1.0000 0.09490  0.54320  0.54390  Biso   1.000  C
  H343     1.0000 0.07800  0.57290  0.54000  Biso   1.000  H
  C497     1.0000 0.14760  0.53500  0.56529  Biso   1.000  C
  H344     1.0000 0.16600  0.55920  0.57570  Biso   1.000  H
  C498     1.0000 0.63270  0.56990  0.60120  Biso   1.000  C
  C499     1.0000 0.60500  0.55340  0.57500  Biso   1.000  C
  C500     1.0000 0.62440  0.50740  0.57126  Biso   1.000  C
  H345     1.0000 0.65460  0.49100  0.58380  Biso   1.000  H
  C501     1.0000 0.59770  0.48680  0.54846  Biso   1.000  C
  H346     1.0000 0.60910  0.45620  0.54580  Biso   1.000  H
  C502     1.0000 0.55390  0.51200  0.52968  Biso   1.000  C
  C503     1.0000 0.53680  0.55780  0.53370  Biso   1.000  C
  H347     1.0000 0.50750  0.57470  0.52110  Biso   1.000  H
  C504     1.0000 0.56350  0.57840  0.55650  Biso   1.000  C
  H348     1.0000 0.55210  0.60900  0.55920  Biso   1.000  H
  C505     1.0000 0.25930  0.54810  0.68880  Biso   1.000  C
  C506     1.0000 0.45100  0.59220  0.62937  Biso   1.000  C
  H349     1.0000 0.45910  0.59350  0.61250  Biso   1.000  H
  C507     1.0000 0.37900  0.57560  0.63620  Biso   1.000  C
  H350     1.0000 0.33950  0.56560  0.62390  Biso   1.000  H
  C508     1.0000 0.36630  0.57390  0.66140  Biso   1.000  C
  C509     1.0000 0.42540  0.58880  0.67977  Biso   1.000  C
  H351     1.0000 0.41690  0.58770  0.69660  Biso   1.000  H
  C510     1.0000 0.49730  0.60540  0.67294  Biso   1.000  C
  H352     1.0000 0.53690  0.61540  0.68520  Biso   1.000  H
  C511     1.0000 0.67540  0.50650  0.68890  Biso   1.000  C
  C512     1.0000 0.45090  0.46086  0.62634  Biso   1.000  C
  H353     1.0000 0.43550  0.45490  0.60940  Biso   1.000  H
  C513     1.0000 0.52660  0.47836  0.63385  Biso   1.000  C
  H354     1.0000 0.56160  0.48430  0.62200  Biso   1.000  H
  C514     1.0000 0.55000  0.48695  0.65914  Biso   1.000  C
  C515     1.0000 0.49770  0.47806  0.67691  Biso   1.000  C
  H355     1.0000 0.51330  0.48380  0.69380  Biso   1.000  H
  C516     1.0000 0.42200  0.46057  0.66940  Biso   1.000  C
  H356     1.0000 0.38700  0.45460  0.68130  Biso   1.000  H
  C517     1.0000 0.75580  0.51780  0.68860  Biso   1.000  C
  C518     1.0000 0.79120  0.53212  0.66768  Biso   1.000  C
  H357     1.0000 0.75970  0.53840  0.65270  Biso   1.000  H
  C519     1.0000 0.87370  0.53701  0.66915  Biso   1.000  C
  H358     1.0000 0.89740  0.54660  0.65520  Biso   1.000  H
  C520     1.0000 0.92090  0.52757  0.69155  Biso   1.000  C
  C521     1.0000 0.88540  0.51325  0.71247  Biso   1.000  C
  H359     1.0000 0.91700  0.50690  0.72750  Biso   1.000  H
  C522     1.0000 0.80290  0.50836  0.71099  Biso   1.000  C
  H360     1.0000 0.77920  0.49880  0.72500  Biso   1.000  H
  C523     1.0000 0.01440  0.53001  0.69121  Biso   1.000  C
  C524     1.0000 0.04600  0.52135  0.66878  Biso   1.000  C
  H361     1.0000 0.01290  0.51140  0.65480  Biso   1.000  H
  C525     1.0000 0.12720  0.52760  0.66726  Biso   1.000  C
  H362     1.0000 0.14840  0.52180  0.65230  Biso   1.000  H
  C526     1.0000 0.17670  0.54251  0.68818  Biso   1.000  C
  C527     1.0000 0.14510  0.55116  0.71062  Biso   1.000  C
  H363     1.0000 0.17820  0.56110  0.72460  Biso   1.000  H
  C528     1.0000 0.06390  0.54491  0.71213  Biso   1.000  C
  H364     1.0000 0.04270  0.55070  0.72710  Biso   1.000  H
  C529     1.0000 0.29680  0.32472  0.64200  Biso   1.000  C
  H365     1.0000 0.26730  0.33440  0.65470  Biso   1.000  H
  C530     1.0000 0.30900  0.27828  0.63830  Biso   1.000  C
  H366     1.0000 0.28770  0.25690  0.64860  Biso   1.000  H
  C531     1.0000 0.35300  0.26382  0.61927  Biso   1.000  C
  C532     1.0000 0.38480  0.29579  0.60393  Biso   1.000  C
  H367     1.0000 0.41430  0.28610  0.59120  Biso   1.000  H
  C533     1.0000 0.37270  0.34223  0.60763  Biso   1.000  C
  H368     1.0000 0.39400  0.36360  0.59740  Biso   1.000  H
  C534     1.0000 0.34070  0.12190  0.60091  Biso   1.000  C
  H369     1.0000 0.29240  0.13760  0.59950  Biso   1.000  H
  C535     1.0000 0.41240  0.14594  0.60384  Biso   1.000  C
  C536     1.0000 0.48460  0.12245  0.60597  Biso   1.000  C
  H370     1.0000 0.53260  0.13850  0.60790  Biso   1.000  H
  C537     1.0000 0.48520  0.07492  0.60516  Biso   1.000  C
  H371     1.0000 0.53350  0.05920  0.60660  Biso   1.000  H
  C538     1.0000 0.41350  0.05088  0.60223  Biso   1.000  C
  C539     1.0000 0.34130  0.07437  0.60010  Biso   1.000  C
  H372     1.0000 0.29330  0.05830  0.59810  Biso   1.000  H
  C540     1.0000 0.42880  0.19830  0.60490  Biso   1.000  C
  C541     1.0000 0.35760  0.92680  0.61113  Biso   1.000  C
  H373     1.0000 0.31460  0.91050  0.61610  Biso   1.000  H
  C542     1.0000 0.35420  0.97420  0.60946  Biso   1.000  C
  H374     1.0000 0.30880  0.98970  0.61330  Biso   1.000  H
  C543     1.0000 0.41860  0.99850  0.60207  Biso   1.000  C
  C544     1.0000 0.48650  0.97540  0.59635  Biso   1.000  C
  H375     1.0000 0.52960  0.99170  0.59140  Biso   1.000  H
  C545     1.0000 0.48990  0.92800  0.59803  Biso   1.000  C
  H376     1.0000 0.53530  0.91250  0.59420  Biso   1.000  H
  C546     1.0000 0.42550  0.90370  0.60542  Biso   1.000  C
  C547     1.0000 0.42620  0.85370  0.60130  Biso   1.000  C
  N78      1.0000 0.32680  0.35760  0.62620  Biso   1.000  N
  N79      1.0000 0.36420  0.21700  0.61750  Biso   1.000  N
  H377     1.0000 0.33220  0.19870  0.62400  Biso   1.000  H
  N80      1.0000 0.98220  0.41330  0.74080  Biso   1.000  N
  N81      1.0000 0.02530  0.51820  0.50360  Biso   1.000  N
  N82      1.0000 0.39880  0.45230  0.64390  Biso   1.000  N
  N83      1.0000 0.62880  0.50600  0.66520  Biso   1.000  N
  H378     1.0000 0.64990  0.51860  0.65290  Biso   1.000  H
  N84      1.0000 0.29970  0.55810  0.66574  Biso   1.000  N
  H379     1.0000 0.27000  0.55130  0.65210  Biso   1.000  H
  N85      1.0000 0.50980  0.60650  0.64733  Biso   1.000  N
  N86      1.0000 0.52030  0.49060  0.50600  Biso   1.000  N
  N87      1.0000 0.50280  0.83889  0.61362  Biso   1.000  N
  H380     1.0000 0.53770  0.85970  0.61800  Biso   1.000  H
  C548     1.0000 0.61520  0.73784  0.64244  Biso   1.000  C
  H381     1.0000 0.65820  0.73230  0.65450  Biso   1.000  H
  C549     1.0000 0.58980  0.78244  0.63732  Biso   1.000  C
  H382     1.0000 0.61570  0.80670  0.64600  Biso   1.000  H
  C550     1.0000 0.52560  0.79074  0.61924  Biso   1.000  C
  C551     1.0000 0.48680  0.75443  0.60629  Biso   1.000  C
  H383     1.0000 0.44390  0.76000  0.59420  Biso   1.000  H
  C552     1.0000 0.51230  0.70983  0.61142  Biso   1.000  C
  H384     1.0000 0.48630  0.68550  0.60280  Biso   1.000  H
  N88      1.0000 0.57640  0.70154  0.62949  Biso   1.000  N
  O71      1.0000 0.32330  0.55370  0.70860  Biso   1.000  O
  O72      1.0000 0.64610  0.49760  0.70749  Biso   1.000  O
  O73      1.0000 0.22790  0.50900  0.61460  Biso   1.000  O
  O74      1.0000 0.25790  0.44030  0.59821  Biso   1.000  O
  O75      1.0000 0.14310  0.39120  0.63710  Biso   1.000  O
  O76      1.0000 0.23080  0.42230  0.65966  Biso   1.000  O
  O77      1.0000 0.61140  0.61250  0.60238  Biso   1.000  O
  O78      1.0000 0.66040  0.54750  0.61884  Biso   1.000  O
  O79      1.0000 0.48730  0.21440  0.59560  Biso   1.000  O
  O80      1.0000 0.34470  0.83250  0.60490  Biso   1.000  O
  Zn15     1.0000 0.60967  0.63605  0.63635  Biso   1.000  Zn
  Zn16     1.0000 0.29517  0.42240  0.63160  Biso   1.000  Zn
