data_image0
_cell_length_a       20.542
_cell_length_b       28.488
_cell_length_c       20.519
_cell_angle_alpha    90
_cell_angle_beta     99.776
_cell_angle_gamma    90

_symmetry_space_group_name_H-M    "P 1"
_symmetry_int_tables_number       1

loop_
  _symmetry_equiv_pos_as_xyz
  'x, y, z'

loop_
  _atom_site_label
  _atom_site_occupancy
  _atom_site_fract_x
  _atom_site_fract_y
  _atom_site_fract_z
  _atom_site_thermal_displace_type
  _atom_site_B_iso_or_equiv
  _atom_site_type_symbol
  Cd1      1.0000 0.69783  0.88190  0.41284  Biso   1.000  Cd
  Cd2      1.0000 0.81652  0.91770  0.65610  Biso   1.000  Cd
  N1       1.0000 0.76550  0.82830  0.37030  Biso   1.000  N
  N2       1.0000 0.63370  0.82090  0.36430  Biso   1.000  N
  N3       1.0000 0.66210  0.92720  0.31440  Biso   1.000  N
  N4       1.0000 0.76240  0.94910  0.41350  Biso   1.000  N
  N5       1.0000 0.74100  0.97460  0.60990  Biso   1.000  N
  N6       1.0000 0.84150  0.99060  0.71170  Biso   1.000  N
  C1       1.0000 0.83030  0.83270  0.37460  Biso   1.000  C
  H1       1.0000 0.85060  0.85960  0.39420  Biso   1.000  H
  C2       1.0000 0.86880  0.79930  0.35110  Biso   1.000  C
  H2       1.0000 0.91420  0.80340  0.35440  Biso   1.000  H
  C3       1.0000 0.83730  0.75860  0.32190  Biso   1.000  C
  H3       1.0000 0.86210  0.73490  0.30700  Biso   1.000  H
  C4       1.0000 0.77160  0.75420  0.31560  Biso   1.000  C
  H4       1.0000 0.75030  0.72820  0.29460  Biso   1.000  H
  C5       1.0000 0.73540  0.78910  0.34100  Biso   1.000  C
  C6       1.0000 0.66400  0.78630  0.33810  Biso   1.000  C
  C7       1.0000 0.61720  0.75220  0.31250  Biso   1.000  C
  H5       1.0000 0.62510  0.72450  0.29120  Biso   1.000  H
  C8       1.0000 0.55730  0.76790  0.32510  Biso   1.000  C
  H6       1.0000 0.51660  0.75300  0.31470  Biso   1.000  H
  N7       1.0000 0.57050  0.80980  0.35590  Biso   1.000  N
  H7       1.0000 0.54080  0.82730  0.36850  Biso   1.000  H
  C9       1.0000 0.61290  0.91660  0.26620  Biso   1.000  C
  H8       1.0000 0.59300  0.88740  0.26760  Biso   1.000  H
  C10      1.0000 0.58910  0.94550  0.21430  Biso   1.000  C
  H9       1.0000 0.55310  0.93680  0.18270  Biso   1.000  H
  C11      1.0000 0.61970  0.98730  0.21040  Biso   1.000  C
  H10      1.0000 0.60620  0.00720  0.17480  Biso   1.000  H
  C12      1.0000 0.67070  0.00010  0.25910  Biso   1.000  C
  H11      1.0000 0.69110  0.02920  0.25780  Biso   1.000  H
  C13      1.0000 0.69110  0.96940  0.30980  Biso   1.000  C
  C14      1.0000 0.74580  0.98080  0.36470  Biso   1.000  C
  C15      1.0000 0.78480  0.02010  0.37580  Biso   1.000  C
  H12      1.0000 0.78320  0.04700  0.34990  Biso   1.000  H
  C16      1.0000 0.82580  0.01100  0.43270  Biso   1.000  C
  H13      1.0000 0.85880  0.03100  0.45310  Biso   1.000  H
  N8       1.0000 0.81230  0.96940  0.45530  Biso   1.000  N
  H14      1.0000 0.83230  0.95710  0.49150  Biso   1.000  H
  C17      1.0000 0.76860  0.84410  0.55650  Biso   1.000  C
  C18      1.0000 0.75900  0.79530  0.52720  Biso   1.000  C
  C19      1.0000 0.69490  0.77590  0.51530  Biso   1.000  C
  C20      1.0000 0.63830  0.79980  0.53040  Biso   1.000  C
  H15      1.0000 0.64320  0.82960  0.54930  Biso   1.000  H
  C21      1.0000 0.57660  0.77950  0.51740  Biso   1.000  C
  H16      1.0000 0.54030  0.79570  0.52750  Biso   1.000  H
  C22      1.0000 0.56810  0.73580  0.48970  Biso   1.000  C
  H17      1.0000 0.52600  0.72270  0.48120  Biso   1.000  H
  C23      1.0000 0.62060  0.71110  0.47440  Biso   1.000  C
  H18      1.0000 0.61340  0.68140  0.45550  Biso   1.000  H
  C24      1.0000 0.81420  0.77050  0.51350  Biso   1.000  C
  C25      1.0000 0.55940  0.92050  0.44240  Biso   1.000  C
  C26      1.0000 0.52750  0.96180  0.47220  Biso   1.000  C
  C27      1.0000 0.52210  0.00460  0.43910  Biso   1.000  C
  C28      1.0000 0.54610  0.01190  0.37730  Biso   1.000  C
  H19      1.0000 0.56430  0.98680  0.35770  Biso   1.000  H
  C29      1.0000 0.54240  0.05470  0.34750  Biso   1.000  C
  H20      1.0000 0.55830  0.05890  0.30810  Biso   1.000  H
  C30      1.0000 0.51430  0.09240  0.37710  Biso   1.000  C
  H21      1.0000 0.51140  0.12160  0.35650  Biso   1.000  H
  C31      1.0000 0.49140  0.08750  0.43450  Biso   1.000  C
  H22      1.0000 0.47320  0.11340  0.45260  Biso   1.000  H
  C32      1.0000 0.50560  0.95560  0.53250  Biso   1.000  C
  C33      1.0000 0.93740  0.94930  0.59660  Biso   1.000  C
  C34      1.0000 0.97020  0.97470  0.54640  Biso   1.000  C
  C35      1.0000 0.97340  0.02480  0.54930  Biso   1.000  C
  C36      1.0000 0.94570  0.05170  0.59660  Biso   1.000  C
  H23      1.0000 0.92480  0.03610  0.62710  Biso   1.000  H
  C37      1.0000 0.94890  0.09920  0.59830  Biso   1.000  C
  H24      1.0000 0.93030  0.11590  0.62950  Biso   1.000  H
  C38      1.0000 0.98050  0.12280  0.55280  Biso   1.000  C
  H25      1.0000 0.98450  0.15530  0.55550  Biso   1.000  H
  C39      1.0000 0.00540  0.09990  0.50510  Biso   1.000  C
  H26      1.0000 0.02380  0.11710  0.47420  Biso   1.000  H
  C40      1.0000 0.99580  0.95050  0.49910  Biso   1.000  C
  N9       1.0000 0.69140  0.97790  0.55750  Biso   1.000  N
  H27      1.0000 0.67380  0.95430  0.53480  Biso   1.000  H
  C41      1.0000 0.67380  0.02130  0.54580  Biso   1.000  C
  H28      1.0000 0.64040  0.03150  0.51240  Biso   1.000  H
  C42      1.0000 0.71150  0.04930  0.58980  Biso   1.000  C
  H29      1.0000 0.70990  0.08180  0.59290  Biso   1.000  H
  C43      1.0000 0.75310  0.01880  0.62930  Biso   1.000  C
  C44      1.0000 0.80690  0.02750  0.68680  Biso   1.000  C
  C45      1.0000 0.81970  0.07260  0.70910  Biso   1.000  C
  H30      1.0000 0.79480  0.09780  0.68980  Biso   1.000  H
  C46      1.0000 0.87000  0.07900  0.76050  Biso   1.000  C
  H31      1.0000 0.88090  0.10910  0.77630  Biso   1.000  H
  C47      1.0000 0.90590  0.04020  0.78990  Biso   1.000  C
  H32      1.0000 0.93900  0.04360  0.82660  Biso   1.000  H
  C48      1.0000 0.88980  0.99700  0.76200  Biso   1.000  C
  H33      1.0000 0.91410  0.97110  0.77950  Biso   1.000  H
  O1       1.0000 0.75100  0.87884  0.52040  Biso   1.000  O
  O2       1.0000 0.79620  0.84620  0.61530  Biso   1.000  O
  O3       1.0000 0.62130  0.91632  0.46330  Biso   1.000  O
  O4       1.0000 0.52680  0.89480  0.40190  Biso   1.000  O
  O5       1.0000 0.87700  0.93859  0.57790  Biso   1.000  O
  O6       1.0000 0.96970  0.94200  0.65360  Biso   1.000  O
  N10      1.0000 0.88360  0.87960  0.74610  Biso   1.000  N
  N11      1.0000 0.95040  0.87100  0.76660  Biso   1.000  N
  H34      1.0000 0.98190  0.88090  0.74750  Biso   1.000  H
  C49      1.0000 0.95730  0.84360  0.82320  Biso   1.000  C
  H35      1.0000 0.99690  0.83280  0.84720  Biso   1.000  H
  C50      1.0000 0.89480  0.83530  0.83770  Biso   1.000  C
  H36      1.0000 0.88520  0.81790  0.87320  Biso   1.000  H
  C51      1.0000 0.84930  0.85750  0.79010  Biso   1.000  C
  N12      1.0000 0.74520  0.88650  0.72850  Biso   1.000  N
  C52      1.0000 0.77730  0.86030  0.78160  Biso   1.000  C
  C53      1.0000 0.74100  0.83220  0.81760  Biso   1.000  C
  H37      1.0000 0.76250  0.81470  0.85310  Biso   1.000  H
  C54      1.0000 0.67260  0.83030  0.80060  Biso   1.000  C
  H38      1.0000 0.64830  0.81150  0.82480  Biso   1.000  H
  C55      1.0000 0.64050  0.85650  0.74760  Biso   1.000  C
  H39      1.0000 0.59470  0.85520  0.73620  Biso   1.000  H
  C56      1.0000 0.67680  0.88460  0.71150  Biso   1.000  C
  H40      1.0000 0.65530  0.90210  0.67600  Biso   1.000  H
  Cd3      1.0000 0.19783  0.38190  0.41284  Biso   1.000  Cd
  Cd4      1.0000 0.31652  0.41770  0.65610  Biso   1.000  Cd
  N13      1.0000 0.26550  0.32830  0.37030  Biso   1.000  N
  N14      1.0000 0.13370  0.32090  0.36430  Biso   1.000  N
  N15      1.0000 0.16210  0.42720  0.31440  Biso   1.000  N
  N16      1.0000 0.26240  0.44910  0.41350  Biso   1.000  N
  N17      1.0000 0.24100  0.47460  0.60990  Biso   1.000  N
  N18      1.0000 0.34150  0.49060  0.71170  Biso   1.000  N
  C57      1.0000 0.33030  0.33270  0.37460  Biso   1.000  C
  H41      1.0000 0.35060  0.35960  0.39420  Biso   1.000  H
  C58      1.0000 0.36880  0.29930  0.35110  Biso   1.000  C
  H42      1.0000 0.41420  0.30340  0.35440  Biso   1.000  H
  C59      1.0000 0.33730  0.25860  0.32190  Biso   1.000  C
  H43      1.0000 0.36210  0.23490  0.30700  Biso   1.000  H
  C60      1.0000 0.27160  0.25420  0.31560  Biso   1.000  C
  H44      1.0000 0.25030  0.22820  0.29460  Biso   1.000  H
  C61      1.0000 0.23540  0.28910  0.34100  Biso   1.000  C
  C62      1.0000 0.16400  0.28630  0.33810  Biso   1.000  C
  C63      1.0000 0.11720  0.25220  0.31250  Biso   1.000  C
  H45      1.0000 0.12510  0.22450  0.29120  Biso   1.000  H
  C64      1.0000 0.05730  0.26790  0.32510  Biso   1.000  C
  H46      1.0000 0.01660  0.25300  0.31470  Biso   1.000  H
  N19      1.0000 0.07050  0.30980  0.35590  Biso   1.000  N
  H47      1.0000 0.04080  0.32730  0.36850  Biso   1.000  H
  C65      1.0000 0.11290  0.41660  0.26620  Biso   1.000  C
  H48      1.0000 0.09300  0.38740  0.26760  Biso   1.000  H
  C66      1.0000 0.08910  0.44550  0.21430  Biso   1.000  C
  H49      1.0000 0.05310  0.43680  0.18270  Biso   1.000  H
  C67      1.0000 0.11970  0.48730  0.21040  Biso   1.000  C
  H50      1.0000 0.10620  0.50720  0.17480  Biso   1.000  H
  C68      1.0000 0.17070  0.50010  0.25910  Biso   1.000  C
  H51      1.0000 0.19110  0.52920  0.25780  Biso   1.000  H
  C69      1.0000 0.19110  0.46940  0.30980  Biso   1.000  C
  C70      1.0000 0.24580  0.48080  0.36470  Biso   1.000  C
  C71      1.0000 0.28480  0.52010  0.37580  Biso   1.000  C
  H52      1.0000 0.28320  0.54700  0.34990  Biso   1.000  H
  C72      1.0000 0.32580  0.51100  0.43270  Biso   1.000  C
  H53      1.0000 0.35880  0.53100  0.45310  Biso   1.000  H
  N20      1.0000 0.31230  0.46940  0.45530  Biso   1.000  N
  H54      1.0000 0.33230  0.45710  0.49150  Biso   1.000  H
  C73      1.0000 0.26860  0.34410  0.55650  Biso   1.000  C
  C74      1.0000 0.25900  0.29530  0.52720  Biso   1.000  C
  C75      1.0000 0.19490  0.27590  0.51530  Biso   1.000  C
  C76      1.0000 0.13830  0.29980  0.53040  Biso   1.000  C
  H55      1.0000 0.14320  0.32960  0.54930  Biso   1.000  H
  C77      1.0000 0.07660  0.27950  0.51740  Biso   1.000  C
  H56      1.0000 0.04030  0.29570  0.52750  Biso   1.000  H
  C78      1.0000 0.06810  0.23580  0.48970  Biso   1.000  C
  H57      1.0000 0.02600  0.22270  0.48120  Biso   1.000  H
  C79      1.0000 0.12060  0.21110  0.47440  Biso   1.000  C
  H58      1.0000 0.11340  0.18140  0.45550  Biso   1.000  H
  C80      1.0000 0.31420  0.27050  0.51350  Biso   1.000  C
  C81      1.0000 0.05940  0.42050  0.44240  Biso   1.000  C
  C82      1.0000 0.02750  0.46180  0.47220  Biso   1.000  C
  C83      1.0000 0.02210  0.50460  0.43910  Biso   1.000  C
  C84      1.0000 0.04610  0.51190  0.37730  Biso   1.000  C
  H59      1.0000 0.06430  0.48680  0.35770  Biso   1.000  H
  C85      1.0000 0.04240  0.55470  0.34750  Biso   1.000  C
  H60      1.0000 0.05830  0.55890  0.30810  Biso   1.000  H
  C86      1.0000 0.01430  0.59240  0.37710  Biso   1.000  C
  H61      1.0000 0.01140  0.62160  0.35650  Biso   1.000  H
  C87      1.0000 0.99140  0.58750  0.43450  Biso   1.000  C
  H62      1.0000 0.97320  0.61340  0.45260  Biso   1.000  H
  C88      1.0000 0.00560  0.45560  0.53250  Biso   1.000  C
  C89      1.0000 0.43740  0.44930  0.59660  Biso   1.000  C
  C90      1.0000 0.47020  0.47470  0.54640  Biso   1.000  C
  C91      1.0000 0.47340  0.52480  0.54930  Biso   1.000  C
  C92      1.0000 0.44570  0.55170  0.59660  Biso   1.000  C
  H63      1.0000 0.42480  0.53610  0.62710  Biso   1.000  H
  C93      1.0000 0.44890  0.59920  0.59830  Biso   1.000  C
  H64      1.0000 0.43030  0.61590  0.62950  Biso   1.000  H
  C94      1.0000 0.48050  0.62280  0.55280  Biso   1.000  C
  H65      1.0000 0.48450  0.65530  0.55550  Biso   1.000  H
  C95      1.0000 0.50540  0.59990  0.50510  Biso   1.000  C
  H66      1.0000 0.52380  0.61710  0.47420  Biso   1.000  H
  C96      1.0000 0.49580  0.45050  0.49910  Biso   1.000  C
  N21      1.0000 0.19140  0.47790  0.55750  Biso   1.000  N
  H67      1.0000 0.17380  0.45430  0.53480  Biso   1.000  H
  C97      1.0000 0.17380  0.52130  0.54580  Biso   1.000  C
  H68      1.0000 0.14040  0.53150  0.51240  Biso   1.000  H
  C98      1.0000 0.21150  0.54930  0.58980  Biso   1.000  C
  H69      1.0000 0.20990  0.58180  0.59290  Biso   1.000  H
  C99      1.0000 0.25310  0.51880  0.62930  Biso   1.000  C
  C100     1.0000 0.30690  0.52750  0.68680  Biso   1.000  C
  C101     1.0000 0.31970  0.57260  0.70910  Biso   1.000  C
  H70      1.0000 0.29480  0.59780  0.68980  Biso   1.000  H
  C102     1.0000 0.37000  0.57900  0.76050  Biso   1.000  C
  H71      1.0000 0.38090  0.60910  0.77630  Biso   1.000  H
  C103     1.0000 0.40590  0.54020  0.78990  Biso   1.000  C
  H72      1.0000 0.43900  0.54360  0.82660  Biso   1.000  H
  C104     1.0000 0.38980  0.49700  0.76200  Biso   1.000  C
  H73      1.0000 0.41410  0.47110  0.77950  Biso   1.000  H
  O7       1.0000 0.25100  0.37884  0.52040  Biso   1.000  O
  O8       1.0000 0.29620  0.34620  0.61530  Biso   1.000  O
  O9       1.0000 0.12130  0.41632  0.46330  Biso   1.000  O
  O10      1.0000 0.02680  0.39480  0.40190  Biso   1.000  O
  O11      1.0000 0.37700  0.43859  0.57790  Biso   1.000  O
  O12      1.0000 0.46970  0.44200  0.65360  Biso   1.000  O
  N22      1.0000 0.38360  0.37960  0.74610  Biso   1.000  N
  N23      1.0000 0.45040  0.37100  0.76660  Biso   1.000  N
  H74      1.0000 0.48190  0.38090  0.74750  Biso   1.000  H
  C105     1.0000 0.45730  0.34360  0.82320  Biso   1.000  C
  H75      1.0000 0.49690  0.33280  0.84720  Biso   1.000  H
  C106     1.0000 0.39480  0.33530  0.83770  Biso   1.000  C
  H76      1.0000 0.38520  0.31790  0.87320  Biso   1.000  H
  C107     1.0000 0.34930  0.35750  0.79010  Biso   1.000  C
  N24      1.0000 0.24520  0.38650  0.72850  Biso   1.000  N
  C108     1.0000 0.27730  0.36030  0.78160  Biso   1.000  C
  C109     1.0000 0.24100  0.33220  0.81760  Biso   1.000  C
  H77      1.0000 0.26250  0.31470  0.85310  Biso   1.000  H
  C110     1.0000 0.17260  0.33030  0.80060  Biso   1.000  C
  H78      1.0000 0.14830  0.31150  0.82480  Biso   1.000  H
  C111     1.0000 0.14050  0.35650  0.74760  Biso   1.000  C
  H79      1.0000 0.09470  0.35520  0.73620  Biso   1.000  H
  C112     1.0000 0.17680  0.38460  0.71150  Biso   1.000  C
  H80      1.0000 0.15530  0.40210  0.67600  Biso   1.000  H
  Cd5      1.0000 0.30217  0.88190  0.08716  Biso   1.000  Cd
  Cd6      1.0000 0.18348  0.91770  0.84390  Biso   1.000  Cd
  N25      1.0000 0.23450  0.82830  0.12970  Biso   1.000  N
  N26      1.0000 0.36630  0.82090  0.13570  Biso   1.000  N
  N27      1.0000 0.33790  0.92720  0.18560  Biso   1.000  N
  N28      1.0000 0.23760  0.94910  0.08650  Biso   1.000  N
  N29      1.0000 0.25900  0.97460  0.89010  Biso   1.000  N
  N30      1.0000 0.15850  0.99060  0.78830  Biso   1.000  N
  C113     1.0000 0.16970  0.83270  0.12540  Biso   1.000  C
  H81      1.0000 0.14940  0.85960  0.10580  Biso   1.000  H
  C114     1.0000 0.13120  0.79930  0.14890  Biso   1.000  C
  H82      1.0000 0.08580  0.80340  0.14560  Biso   1.000  H
  C115     1.0000 0.16270  0.75860  0.17810  Biso   1.000  C
  H83      1.0000 0.13790  0.73490  0.19300  Biso   1.000  H
  C116     1.0000 0.22840  0.75420  0.18440  Biso   1.000  C
  H84      1.0000 0.24970  0.72820  0.20540  Biso   1.000  H
  C117     1.0000 0.26460  0.78910  0.15900  Biso   1.000  C
  C118     1.0000 0.33600  0.78630  0.16190  Biso   1.000  C
  C119     1.0000 0.38280  0.75220  0.18750  Biso   1.000  C
  H85      1.0000 0.37490  0.72450  0.20880  Biso   1.000  H
  C120     1.0000 0.44270  0.76790  0.17490  Biso   1.000  C
  H86      1.0000 0.48340  0.75300  0.18530  Biso   1.000  H
  N31      1.0000 0.42950  0.80980  0.14410  Biso   1.000  N
  H87      1.0000 0.45920  0.82730  0.13150  Biso   1.000  H
  C121     1.0000 0.38710  0.91660  0.23380  Biso   1.000  C
  H88      1.0000 0.40700  0.88740  0.23240  Biso   1.000  H
  C122     1.0000 0.41090  0.94550  0.28570  Biso   1.000  C
  H89      1.0000 0.44690  0.93680  0.31730  Biso   1.000  H
  C123     1.0000 0.38030  0.98730  0.28960  Biso   1.000  C
  H90      1.0000 0.39380  0.00720  0.32520  Biso   1.000  H
  C124     1.0000 0.32930  0.00010  0.24090  Biso   1.000  C
  H91      1.0000 0.30890  0.02920  0.24220  Biso   1.000  H
  C125     1.0000 0.30890  0.96940  0.19020  Biso   1.000  C
  C126     1.0000 0.25420  0.98080  0.13530  Biso   1.000  C
  C127     1.0000 0.21520  0.02010  0.12420  Biso   1.000  C
  H92      1.0000 0.21680  0.04700  0.15010  Biso   1.000  H
  C128     1.0000 0.17420  0.01100  0.06730  Biso   1.000  C
  H93      1.0000 0.14120  0.03100  0.04690  Biso   1.000  H
  N32      1.0000 0.18770  0.96940  0.04470  Biso   1.000  N
  H94      1.0000 0.16770  0.95710  0.00850  Biso   1.000  H
  C129     1.0000 0.23140  0.84410  0.94350  Biso   1.000  C
  C130     1.0000 0.24100  0.79530  0.97280  Biso   1.000  C
  C131     1.0000 0.30510  0.77590  0.98470  Biso   1.000  C
  C132     1.0000 0.36170  0.79980  0.96960  Biso   1.000  C
  H95      1.0000 0.35680  0.82960  0.95070  Biso   1.000  H
  C133     1.0000 0.42340  0.77950  0.98260  Biso   1.000  C
  H96      1.0000 0.45970  0.79570  0.97250  Biso   1.000  H
  C134     1.0000 0.43190  0.73580  0.01030  Biso   1.000  C
  H97      1.0000 0.47400  0.72270  0.01880  Biso   1.000  H
  C135     1.0000 0.37940  0.71110  0.02560  Biso   1.000  C
  H98      1.0000 0.38660  0.68140  0.04450  Biso   1.000  H
  C136     1.0000 0.18580  0.77050  0.98650  Biso   1.000  C
  C137     1.0000 0.44060  0.92050  0.05760  Biso   1.000  C
  C138     1.0000 0.47250  0.96180  0.02780  Biso   1.000  C
  C139     1.0000 0.47790  0.00460  0.06090  Biso   1.000  C
  C140     1.0000 0.45390  0.01190  0.12270  Biso   1.000  C
  H99      1.0000 0.43570  0.98680  0.14230  Biso   1.000  H
  C141     1.0000 0.45760  0.05470  0.15250  Biso   1.000  C
  H100     1.0000 0.44170  0.05890  0.19190  Biso   1.000  H
  C142     1.0000 0.48570  0.09240  0.12290  Biso   1.000  C
  H101     1.0000 0.48860  0.12160  0.14350  Biso   1.000  H
  C143     1.0000 0.50860  0.08750  0.06550  Biso   1.000  C
  H102     1.0000 0.52680  0.11340  0.04740  Biso   1.000  H
  C144     1.0000 0.49440  0.95560  0.96750  Biso   1.000  C
  C145     1.0000 0.06260  0.94930  0.90340  Biso   1.000  C
  C146     1.0000 0.02980  0.97470  0.95360  Biso   1.000  C
  C147     1.0000 0.02660  0.02480  0.95070  Biso   1.000  C
  C148     1.0000 0.05430  0.05170  0.90340  Biso   1.000  C
  H103     1.0000 0.07520  0.03610  0.87290  Biso   1.000  H
  C149     1.0000 0.05110  0.09920  0.90170  Biso   1.000  C
  H104     1.0000 0.06970  0.11590  0.87050  Biso   1.000  H
  C150     1.0000 0.01950  0.12280  0.94720  Biso   1.000  C
  H105     1.0000 0.01550  0.15530  0.94450  Biso   1.000  H
  C151     1.0000 0.99460  0.09990  0.99490  Biso   1.000  C
  H106     1.0000 0.97620  0.11710  0.02580  Biso   1.000  H
  C152     1.0000 0.00420  0.95050  0.00090  Biso   1.000  C
  N33      1.0000 0.30860  0.97790  0.94250  Biso   1.000  N
  H107     1.0000 0.32620  0.95430  0.96520  Biso   1.000  H
  C153     1.0000 0.32620  0.02130  0.95420  Biso   1.000  C
  H108     1.0000 0.35960  0.03150  0.98760  Biso   1.000  H
  C154     1.0000 0.28850  0.04930  0.91020  Biso   1.000  C
  H109     1.0000 0.29010  0.08180  0.90710  Biso   1.000  H
  C155     1.0000 0.24690  0.01880  0.87070  Biso   1.000  C
  C156     1.0000 0.19310  0.02750  0.81320  Biso   1.000  C
  C157     1.0000 0.18030  0.07260  0.79090  Biso   1.000  C
  H110     1.0000 0.20520  0.09780  0.81020  Biso   1.000  H
  C158     1.0000 0.13000  0.07900  0.73950  Biso   1.000  C
  H111     1.0000 0.11910  0.10910  0.72370  Biso   1.000  H
  C159     1.0000 0.09410  0.04020  0.71010  Biso   1.000  C
  H112     1.0000 0.06100  0.04360  0.67340  Biso   1.000  H
  C160     1.0000 0.11020  0.99700  0.73800  Biso   1.000  C
  H113     1.0000 0.08590  0.97110  0.72050  Biso   1.000  H
  O13      1.0000 0.24900  0.87884  0.97960  Biso   1.000  O
  O14      1.0000 0.20380  0.84620  0.88470  Biso   1.000  O
  O15      1.0000 0.37870  0.91632  0.03670  Biso   1.000  O
  O16      1.0000 0.47320  0.89480  0.09810  Biso   1.000  O
  O17      1.0000 0.12300  0.93859  0.92210  Biso   1.000  O
  O18      1.0000 0.03030  0.94200  0.84640  Biso   1.000  O
  N34      1.0000 0.11640  0.87960  0.75390  Biso   1.000  N
  N35      1.0000 0.04960  0.87100  0.73340  Biso   1.000  N
  H114     1.0000 0.01810  0.88090  0.75250  Biso   1.000  H
  C161     1.0000 0.04270  0.84360  0.67680  Biso   1.000  C
  H115     1.0000 0.00310  0.83280  0.65280  Biso   1.000  H
  C162     1.0000 0.10520  0.83530  0.66230  Biso   1.000  C
  H116     1.0000 0.11480  0.81790  0.62680  Biso   1.000  H
  C163     1.0000 0.15070  0.85750  0.70990  Biso   1.000  C
  N36      1.0000 0.25480  0.88650  0.77150  Biso   1.000  N
  C164     1.0000 0.22270  0.86030  0.71840  Biso   1.000  C
  C165     1.0000 0.25900  0.83220  0.68240  Biso   1.000  C
  H117     1.0000 0.23750  0.81470  0.64690  Biso   1.000  H
  C166     1.0000 0.32740  0.83030  0.69940  Biso   1.000  C
  H118     1.0000 0.35170  0.81150  0.67520  Biso   1.000  H
  C167     1.0000 0.35950  0.85650  0.75240  Biso   1.000  C
  H119     1.0000 0.40530  0.85520  0.76380  Biso   1.000  H
  C168     1.0000 0.32320  0.88460  0.78850  Biso   1.000  C
  H120     1.0000 0.34470  0.90210  0.82400  Biso   1.000  H
  Cd7      1.0000 0.80217  0.38190  0.08716  Biso   1.000  Cd
  Cd8      1.0000 0.68348  0.41770  0.84390  Biso   1.000  Cd
  N37      1.0000 0.73450  0.32830  0.12970  Biso   1.000  N
  N38      1.0000 0.86630  0.32090  0.13570  Biso   1.000  N
  N39      1.0000 0.83790  0.42720  0.18560  Biso   1.000  N
  N40      1.0000 0.73760  0.44910  0.08650  Biso   1.000  N
  N41      1.0000 0.75900  0.47460  0.89010  Biso   1.000  N
  N42      1.0000 0.65850  0.49060  0.78830  Biso   1.000  N
  C169     1.0000 0.66970  0.33270  0.12540  Biso   1.000  C
  H121     1.0000 0.64940  0.35960  0.10580  Biso   1.000  H
  C170     1.0000 0.63120  0.29930  0.14890  Biso   1.000  C
  H122     1.0000 0.58580  0.30340  0.14560  Biso   1.000  H
  C171     1.0000 0.66270  0.25860  0.17810  Biso   1.000  C
  H123     1.0000 0.63790  0.23490  0.19300  Biso   1.000  H
  C172     1.0000 0.72840  0.25420  0.18440  Biso   1.000  C
  H124     1.0000 0.74970  0.22820  0.20540  Biso   1.000  H
  C173     1.0000 0.76460  0.28910  0.15900  Biso   1.000  C
  C174     1.0000 0.83600  0.28630  0.16190  Biso   1.000  C
  C175     1.0000 0.88280  0.25220  0.18750  Biso   1.000  C
  H125     1.0000 0.87490  0.22450  0.20880  Biso   1.000  H
  C176     1.0000 0.94270  0.26790  0.17490  Biso   1.000  C
  H126     1.0000 0.98340  0.25300  0.18530  Biso   1.000  H
  N43      1.0000 0.92950  0.30980  0.14410  Biso   1.000  N
  H127     1.0000 0.95920  0.32730  0.13150  Biso   1.000  H
  C177     1.0000 0.88710  0.41660  0.23380  Biso   1.000  C
  H128     1.0000 0.90700  0.38740  0.23240  Biso   1.000  H
  C178     1.0000 0.91090  0.44550  0.28570  Biso   1.000  C
  H129     1.0000 0.94690  0.43680  0.31730  Biso   1.000  H
  C179     1.0000 0.88030  0.48730  0.28960  Biso   1.000  C
  H130     1.0000 0.89380  0.50720  0.32520  Biso   1.000  H
  C180     1.0000 0.82930  0.50010  0.24090  Biso   1.000  C
  H131     1.0000 0.80890  0.52920  0.24220  Biso   1.000  H
  C181     1.0000 0.80890  0.46940  0.19020  Biso   1.000  C
  C182     1.0000 0.75420  0.48080  0.13530  Biso   1.000  C
  C183     1.0000 0.71520  0.52010  0.12420  Biso   1.000  C
  H132     1.0000 0.71680  0.54700  0.15010  Biso   1.000  H
  C184     1.0000 0.67420  0.51100  0.06730  Biso   1.000  C
  H133     1.0000 0.64120  0.53100  0.04690  Biso   1.000  H
  N44      1.0000 0.68770  0.46940  0.04470  Biso   1.000  N
  H134     1.0000 0.66770  0.45710  0.00850  Biso   1.000  H
  C185     1.0000 0.73140  0.34410  0.94350  Biso   1.000  C
  C186     1.0000 0.74100  0.29530  0.97280  Biso   1.000  C
  C187     1.0000 0.80510  0.27590  0.98470  Biso   1.000  C
  C188     1.0000 0.86170  0.29980  0.96960  Biso   1.000  C
  H135     1.0000 0.85680  0.32960  0.95070  Biso   1.000  H
  C189     1.0000 0.92340  0.27950  0.98260  Biso   1.000  C
  H136     1.0000 0.95970  0.29570  0.97250  Biso   1.000  H
  C190     1.0000 0.93190  0.23580  0.01030  Biso   1.000  C
  H137     1.0000 0.97400  0.22270  0.01880  Biso   1.000  H
  C191     1.0000 0.87940  0.21110  0.02560  Biso   1.000  C
  H138     1.0000 0.88660  0.18140  0.04450  Biso   1.000  H
  C192     1.0000 0.68580  0.27050  0.98650  Biso   1.000  C
  C193     1.0000 0.94060  0.42050  0.05760  Biso   1.000  C
  C194     1.0000 0.97250  0.46180  0.02780  Biso   1.000  C
  C195     1.0000 0.97790  0.50460  0.06090  Biso   1.000  C
  C196     1.0000 0.95390  0.51190  0.12270  Biso   1.000  C
  H139     1.0000 0.93570  0.48680  0.14230  Biso   1.000  H
  C197     1.0000 0.95760  0.55470  0.15250  Biso   1.000  C
  H140     1.0000 0.94170  0.55890  0.19190  Biso   1.000  H
  C198     1.0000 0.98570  0.59240  0.12290  Biso   1.000  C
  H141     1.0000 0.98860  0.62160  0.14350  Biso   1.000  H
  C199     1.0000 0.00860  0.58750  0.06550  Biso   1.000  C
  H142     1.0000 0.02680  0.61340  0.04740  Biso   1.000  H
  C200     1.0000 0.99440  0.45560  0.96750  Biso   1.000  C
  C201     1.0000 0.56260  0.44930  0.90340  Biso   1.000  C
  C202     1.0000 0.52980  0.47470  0.95360  Biso   1.000  C
  C203     1.0000 0.52660  0.52480  0.95070  Biso   1.000  C
  C204     1.0000 0.55430  0.55170  0.90340  Biso   1.000  C
  H143     1.0000 0.57520  0.53610  0.87290  Biso   1.000  H
  C205     1.0000 0.55110  0.59920  0.90170  Biso   1.000  C
  H144     1.0000 0.56970  0.61590  0.87050  Biso   1.000  H
  C206     1.0000 0.51950  0.62280  0.94720  Biso   1.000  C
  H145     1.0000 0.51550  0.65530  0.94450  Biso   1.000  H
  C207     1.0000 0.49460  0.59990  0.99490  Biso   1.000  C
  H146     1.0000 0.47620  0.61710  0.02580  Biso   1.000  H
  C208     1.0000 0.50420  0.45050  0.00090  Biso   1.000  C
  N45      1.0000 0.80860  0.47790  0.94250  Biso   1.000  N
  H147     1.0000 0.82620  0.45430  0.96520  Biso   1.000  H
  C209     1.0000 0.82620  0.52130  0.95420  Biso   1.000  C
  H148     1.0000 0.85960  0.53150  0.98760  Biso   1.000  H
  C210     1.0000 0.78850  0.54930  0.91020  Biso   1.000  C
  H149     1.0000 0.79010  0.58180  0.90710  Biso   1.000  H
  C211     1.0000 0.74690  0.51880  0.87070  Biso   1.000  C
  C212     1.0000 0.69310  0.52750  0.81320  Biso   1.000  C
  C213     1.0000 0.68030  0.57260  0.79090  Biso   1.000  C
  H150     1.0000 0.70520  0.59780  0.81020  Biso   1.000  H
  C214     1.0000 0.63000  0.57900  0.73950  Biso   1.000  C
  H151     1.0000 0.61910  0.60910  0.72370  Biso   1.000  H
  C215     1.0000 0.59410  0.54020  0.71010  Biso   1.000  C
  H152     1.0000 0.56100  0.54360  0.67340  Biso   1.000  H
  C216     1.0000 0.61020  0.49700  0.73800  Biso   1.000  C
  H153     1.0000 0.58590  0.47110  0.72050  Biso   1.000  H
  O19      1.0000 0.74900  0.37884  0.97960  Biso   1.000  O
  O20      1.0000 0.70380  0.34620  0.88470  Biso   1.000  O
  O21      1.0000 0.87870  0.41632  0.03670  Biso   1.000  O
  O22      1.0000 0.97320  0.39480  0.09810  Biso   1.000  O
  O23      1.0000 0.62300  0.43859  0.92210  Biso   1.000  O
  O24      1.0000 0.53030  0.44200  0.84640  Biso   1.000  O
  N46      1.0000 0.61640  0.37960  0.75390  Biso   1.000  N
  N47      1.0000 0.54960  0.37100  0.73340  Biso   1.000  N
  H154     1.0000 0.51810  0.38090  0.75250  Biso   1.000  H
  C217     1.0000 0.54270  0.34360  0.67680  Biso   1.000  C
  H155     1.0000 0.50310  0.33280  0.65280  Biso   1.000  H
  C218     1.0000 0.60520  0.33530  0.66230  Biso   1.000  C
  H156     1.0000 0.61480  0.31790  0.62680  Biso   1.000  H
  C219     1.0000 0.65070  0.35750  0.70990  Biso   1.000  C
  N48      1.0000 0.75480  0.38650  0.77150  Biso   1.000  N
  C220     1.0000 0.72270  0.36030  0.71840  Biso   1.000  C
  C221     1.0000 0.75900  0.33220  0.68240  Biso   1.000  C
  H157     1.0000 0.73750  0.31470  0.64690  Biso   1.000  H
  C222     1.0000 0.82740  0.33030  0.69940  Biso   1.000  C
  H158     1.0000 0.85170  0.31150  0.67520  Biso   1.000  H
  C223     1.0000 0.85950  0.35650  0.75240  Biso   1.000  C
  H159     1.0000 0.90530  0.35520  0.76380  Biso   1.000  H
  C224     1.0000 0.82320  0.38460  0.78850  Biso   1.000  C
  H160     1.0000 0.84470  0.40210  0.82400  Biso   1.000  H
  Cd9      1.0000 0.30217  0.11810  0.58716  Biso   1.000  Cd
  Cd10     1.0000 0.18348  0.08230  0.34390  Biso   1.000  Cd
  N49      1.0000 0.23450  0.17170  0.62970  Biso   1.000  N
  N50      1.0000 0.36630  0.17910  0.63570  Biso   1.000  N
  N51      1.0000 0.33790  0.07280  0.68560  Biso   1.000  N
  N52      1.0000 0.23760  0.05090  0.58650  Biso   1.000  N
  N53      1.0000 0.25900  0.02540  0.39010  Biso   1.000  N
  N54      1.0000 0.15850  0.00940  0.28830  Biso   1.000  N
  C225     1.0000 0.16970  0.16730  0.62540  Biso   1.000  C
  H161     1.0000 0.14940  0.14040  0.60580  Biso   1.000  H
  C226     1.0000 0.13120  0.20070  0.64890  Biso   1.000  C
  H162     1.0000 0.08580  0.19660  0.64560  Biso   1.000  H
  C227     1.0000 0.16270  0.24140  0.67810  Biso   1.000  C
  H163     1.0000 0.13790  0.26510  0.69300  Biso   1.000  H
  C228     1.0000 0.22840  0.24580  0.68440  Biso   1.000  C
  H164     1.0000 0.24970  0.27180  0.70540  Biso   1.000  H
  C229     1.0000 0.26460  0.21090  0.65900  Biso   1.000  C
  C230     1.0000 0.33600  0.21370  0.66190  Biso   1.000  C
  C231     1.0000 0.38280  0.24780  0.68750  Biso   1.000  C
  H165     1.0000 0.37490  0.27550  0.70880  Biso   1.000  H
  C232     1.0000 0.44270  0.23210  0.67490  Biso   1.000  C
  H166     1.0000 0.48340  0.24700  0.68530  Biso   1.000  H
  N55      1.0000 0.42950  0.19020  0.64410  Biso   1.000  N
  H167     1.0000 0.45920  0.17270  0.63150  Biso   1.000  H
  C233     1.0000 0.38710  0.08340  0.73380  Biso   1.000  C
  H168     1.0000 0.40700  0.11260  0.73240  Biso   1.000  H
  C234     1.0000 0.41090  0.05450  0.78570  Biso   1.000  C
  H169     1.0000 0.44690  0.06320  0.81730  Biso   1.000  H
  C235     1.0000 0.38030  0.01270  0.78960  Biso   1.000  C
  H170     1.0000 0.39380  0.99280  0.82520  Biso   1.000  H
  C236     1.0000 0.32930  0.99990  0.74090  Biso   1.000  C
  H171     1.0000 0.30890  0.97080  0.74220  Biso   1.000  H
  C237     1.0000 0.30890  0.03060  0.69020  Biso   1.000  C
  C238     1.0000 0.25420  0.01920  0.63530  Biso   1.000  C
  C239     1.0000 0.21520  0.97990  0.62420  Biso   1.000  C
  H172     1.0000 0.21680  0.95300  0.65010  Biso   1.000  H
  C240     1.0000 0.17420  0.98900  0.56730  Biso   1.000  C
  H173     1.0000 0.14120  0.96900  0.54690  Biso   1.000  H
  N56      1.0000 0.18770  0.03060  0.54470  Biso   1.000  N
  H174     1.0000 0.16770  0.04290  0.50850  Biso   1.000  H
  C241     1.0000 0.23140  0.15590  0.44350  Biso   1.000  C
  C242     1.0000 0.24100  0.20470  0.47280  Biso   1.000  C
  C243     1.0000 0.30510  0.22410  0.48470  Biso   1.000  C
  C244     1.0000 0.36170  0.20020  0.46960  Biso   1.000  C
  H175     1.0000 0.35680  0.17040  0.45070  Biso   1.000  H
  C245     1.0000 0.42340  0.22050  0.48260  Biso   1.000  C
  H176     1.0000 0.45970  0.20430  0.47250  Biso   1.000  H
  C246     1.0000 0.43190  0.26420  0.51030  Biso   1.000  C
  H177     1.0000 0.47400  0.27730  0.51880  Biso   1.000  H
  C247     1.0000 0.37940  0.28890  0.52560  Biso   1.000  C
  H178     1.0000 0.38660  0.31860  0.54450  Biso   1.000  H
  C248     1.0000 0.18580  0.22950  0.48650  Biso   1.000  C
  C249     1.0000 0.44060  0.07950  0.55760  Biso   1.000  C
  C250     1.0000 0.47250  0.03820  0.52780  Biso   1.000  C
  C251     1.0000 0.47790  0.99540  0.56090  Biso   1.000  C
  C252     1.0000 0.45390  0.98810  0.62270  Biso   1.000  C
  H179     1.0000 0.43570  0.01320  0.64230  Biso   1.000  H
  C253     1.0000 0.45760  0.94530  0.65250  Biso   1.000  C
  H180     1.0000 0.44170  0.94110  0.69190  Biso   1.000  H
  C254     1.0000 0.48570  0.90760  0.62290  Biso   1.000  C
  H181     1.0000 0.48860  0.87840  0.64350  Biso   1.000  H
  C255     1.0000 0.50860  0.91250  0.56550  Biso   1.000  C
  H182     1.0000 0.52680  0.88660  0.54740  Biso   1.000  H
  C256     1.0000 0.49440  0.04440  0.46750  Biso   1.000  C
  C257     1.0000 0.06260  0.05070  0.40340  Biso   1.000  C
  C258     1.0000 0.02980  0.02530  0.45360  Biso   1.000  C
  C259     1.0000 0.02660  0.97520  0.45070  Biso   1.000  C
  C260     1.0000 0.05430  0.94830  0.40340  Biso   1.000  C
  H183     1.0000 0.07520  0.96390  0.37290  Biso   1.000  H
  C261     1.0000 0.05110  0.90080  0.40170  Biso   1.000  C
  H184     1.0000 0.06970  0.88410  0.37050  Biso   1.000  H
  C262     1.0000 0.01950  0.87720  0.44720  Biso   1.000  C
  H185     1.0000 0.01550  0.84470  0.44450  Biso   1.000  H
  C263     1.0000 0.99460  0.90010  0.49490  Biso   1.000  C
  H186     1.0000 0.97620  0.88290  0.52580  Biso   1.000  H
  C264     1.0000 0.00420  0.04950  0.50090  Biso   1.000  C
  N57      1.0000 0.30860  0.02210  0.44250  Biso   1.000  N
  H187     1.0000 0.32620  0.04570  0.46520  Biso   1.000  H
  C265     1.0000 0.32620  0.97870  0.45420  Biso   1.000  C
  H188     1.0000 0.35960  0.96850  0.48760  Biso   1.000  H
  C266     1.0000 0.28850  0.95070  0.41020  Biso   1.000  C
  H189     1.0000 0.29010  0.91820  0.40710  Biso   1.000  H
  C267     1.0000 0.24690  0.98120  0.37070  Biso   1.000  C
  C268     1.0000 0.19310  0.97250  0.31320  Biso   1.000  C
  C269     1.0000 0.18030  0.92740  0.29090  Biso   1.000  C
  H190     1.0000 0.20520  0.90220  0.31020  Biso   1.000  H
  C270     1.0000 0.13000  0.92100  0.23950  Biso   1.000  C
  H191     1.0000 0.11910  0.89090  0.22370  Biso   1.000  H
  C271     1.0000 0.09410  0.95980  0.21010  Biso   1.000  C
  H192     1.0000 0.06100  0.95640  0.17340  Biso   1.000  H
  C272     1.0000 0.11020  0.00300  0.23800  Biso   1.000  C
  H193     1.0000 0.08590  0.02890  0.22050  Biso   1.000  H
  O25      1.0000 0.24900  0.12116  0.47960  Biso   1.000  O
  O26      1.0000 0.20380  0.15380  0.38470  Biso   1.000  O
  O27      1.0000 0.37870  0.08368  0.53670  Biso   1.000  O
  O28      1.0000 0.47320  0.10520  0.59810  Biso   1.000  O
  O29      1.0000 0.12300  0.06141  0.42210  Biso   1.000  O
  O30      1.0000 0.03030  0.05800  0.34640  Biso   1.000  O
  N58      1.0000 0.11640  0.12040  0.25390  Biso   1.000  N
  N59      1.0000 0.04960  0.12900  0.23340  Biso   1.000  N
  H194     1.0000 0.01810  0.11910  0.25250  Biso   1.000  H
  C273     1.0000 0.04270  0.15640  0.17680  Biso   1.000  C
  H195     1.0000 0.00310  0.16720  0.15280  Biso   1.000  H
  C274     1.0000 0.10520  0.16470  0.16230  Biso   1.000  C
  H196     1.0000 0.11480  0.18210  0.12680  Biso   1.000  H
  C275     1.0000 0.15070  0.14250  0.20990  Biso   1.000  C
  N60      1.0000 0.25480  0.11350  0.27150  Biso   1.000  N
  C276     1.0000 0.22270  0.13970  0.21840  Biso   1.000  C
  C277     1.0000 0.25900  0.16780  0.18240  Biso   1.000  C
  H197     1.0000 0.23750  0.18530  0.14690  Biso   1.000  H
  C278     1.0000 0.32740  0.16970  0.19940  Biso   1.000  C
  H198     1.0000 0.35170  0.18850  0.17520  Biso   1.000  H
  C279     1.0000 0.35950  0.14350  0.25240  Biso   1.000  C
  H199     1.0000 0.40530  0.14480  0.26380  Biso   1.000  H
  C280     1.0000 0.32320  0.11540  0.28850  Biso   1.000  C
  H200     1.0000 0.34470  0.09790  0.32400  Biso   1.000  H
  Cd11     1.0000 0.80217  0.61810  0.58716  Biso   1.000  Cd
  Cd12     1.0000 0.68348  0.58230  0.34390  Biso   1.000  Cd
  N61      1.0000 0.73450  0.67170  0.62970  Biso   1.000  N
  N62      1.0000 0.86630  0.67910  0.63570  Biso   1.000  N
  N63      1.0000 0.83790  0.57280  0.68560  Biso   1.000  N
  N64      1.0000 0.73760  0.55090  0.58650  Biso   1.000  N
  N65      1.0000 0.75900  0.52540  0.39010  Biso   1.000  N
  N66      1.0000 0.65850  0.50940  0.28830  Biso   1.000  N
  C281     1.0000 0.66970  0.66730  0.62540  Biso   1.000  C
  H201     1.0000 0.64940  0.64040  0.60580  Biso   1.000  H
  C282     1.0000 0.63120  0.70070  0.64890  Biso   1.000  C
  H202     1.0000 0.58580  0.69660  0.64560  Biso   1.000  H
  C283     1.0000 0.66270  0.74140  0.67810  Biso   1.000  C
  H203     1.0000 0.63790  0.76510  0.69300  Biso   1.000  H
  C284     1.0000 0.72840  0.74580  0.68440  Biso   1.000  C
  H204     1.0000 0.74970  0.77180  0.70540  Biso   1.000  H
  C285     1.0000 0.76460  0.71090  0.65900  Biso   1.000  C
  C286     1.0000 0.83600  0.71370  0.66190  Biso   1.000  C
  C287     1.0000 0.88280  0.74780  0.68750  Biso   1.000  C
  H205     1.0000 0.87490  0.77550  0.70880  Biso   1.000  H
  C288     1.0000 0.94270  0.73210  0.67490  Biso   1.000  C
  H206     1.0000 0.98340  0.74700  0.68530  Biso   1.000  H
  N67      1.0000 0.92950  0.69020  0.64410  Biso   1.000  N
  H207     1.0000 0.95920  0.67270  0.63150  Biso   1.000  H
  C289     1.0000 0.88710  0.58340  0.73380  Biso   1.000  C
  H208     1.0000 0.90700  0.61260  0.73240  Biso   1.000  H
  C290     1.0000 0.91090  0.55450  0.78570  Biso   1.000  C
  H209     1.0000 0.94690  0.56320  0.81730  Biso   1.000  H
  C291     1.0000 0.88030  0.51270  0.78960  Biso   1.000  C
  H210     1.0000 0.89380  0.49280  0.82520  Biso   1.000  H
  C292     1.0000 0.82930  0.49990  0.74090  Biso   1.000  C
  H211     1.0000 0.80890  0.47080  0.74220  Biso   1.000  H
  C293     1.0000 0.80890  0.53060  0.69020  Biso   1.000  C
  C294     1.0000 0.75420  0.51920  0.63530  Biso   1.000  C
  C295     1.0000 0.71520  0.47990  0.62420  Biso   1.000  C
  H212     1.0000 0.71680  0.45300  0.65010  Biso   1.000  H
  C296     1.0000 0.67420  0.48900  0.56730  Biso   1.000  C
  H213     1.0000 0.64120  0.46900  0.54690  Biso   1.000  H
  N68      1.0000 0.68770  0.53060  0.54470  Biso   1.000  N
  H214     1.0000 0.66770  0.54290  0.50850  Biso   1.000  H
  C297     1.0000 0.73140  0.65590  0.44350  Biso   1.000  C
  C298     1.0000 0.74100  0.70470  0.47280  Biso   1.000  C
  C299     1.0000 0.80510  0.72410  0.48470  Biso   1.000  C
  C300     1.0000 0.86170  0.70020  0.46960  Biso   1.000  C
  H215     1.0000 0.85680  0.67040  0.45070  Biso   1.000  H
  C301     1.0000 0.92340  0.72050  0.48260  Biso   1.000  C
  H216     1.0000 0.95970  0.70430  0.47250  Biso   1.000  H
  C302     1.0000 0.93190  0.76420  0.51030  Biso   1.000  C
  H217     1.0000 0.97400  0.77730  0.51880  Biso   1.000  H
  C303     1.0000 0.87940  0.78890  0.52560  Biso   1.000  C
  H218     1.0000 0.88660  0.81860  0.54450  Biso   1.000  H
  C304     1.0000 0.68580  0.72950  0.48650  Biso   1.000  C
  C305     1.0000 0.94060  0.57950  0.55760  Biso   1.000  C
  C306     1.0000 0.97250  0.53820  0.52780  Biso   1.000  C
  C307     1.0000 0.97790  0.49540  0.56090  Biso   1.000  C
  C308     1.0000 0.95390  0.48810  0.62270  Biso   1.000  C
  H219     1.0000 0.93570  0.51320  0.64230  Biso   1.000  H
  C309     1.0000 0.95760  0.44530  0.65250  Biso   1.000  C
  H220     1.0000 0.94170  0.44110  0.69190  Biso   1.000  H
  C310     1.0000 0.98570  0.40760  0.62290  Biso   1.000  C
  H221     1.0000 0.98860  0.37840  0.64350  Biso   1.000  H
  C311     1.0000 0.00860  0.41250  0.56550  Biso   1.000  C
  H222     1.0000 0.02680  0.38660  0.54740  Biso   1.000  H
  C312     1.0000 0.99440  0.54440  0.46750  Biso   1.000  C
  C313     1.0000 0.56260  0.55070  0.40340  Biso   1.000  C
  C314     1.0000 0.52980  0.52530  0.45360  Biso   1.000  C
  C315     1.0000 0.52660  0.47520  0.45070  Biso   1.000  C
  C316     1.0000 0.55430  0.44830  0.40340  Biso   1.000  C
  H223     1.0000 0.57520  0.46390  0.37290  Biso   1.000  H
  C317     1.0000 0.55110  0.40080  0.40170  Biso   1.000  C
  H224     1.0000 0.56970  0.38410  0.37050  Biso   1.000  H
  C318     1.0000 0.51950  0.37720  0.44720  Biso   1.000  C
  H225     1.0000 0.51550  0.34470  0.44450  Biso   1.000  H
  C319     1.0000 0.49460  0.40010  0.49490  Biso   1.000  C
  H226     1.0000 0.47620  0.38290  0.52580  Biso   1.000  H
  C320     1.0000 0.50420  0.54950  0.50090  Biso   1.000  C
  N69      1.0000 0.80860  0.52210  0.44250  Biso   1.000  N
  H227     1.0000 0.82620  0.54570  0.46520  Biso   1.000  H
  C321     1.0000 0.82620  0.47870  0.45420  Biso   1.000  C
  H228     1.0000 0.85960  0.46850  0.48760  Biso   1.000  H
  C322     1.0000 0.78850  0.45070  0.41020  Biso   1.000  C
  H229     1.0000 0.79010  0.41820  0.40710  Biso   1.000  H
  C323     1.0000 0.74690  0.48120  0.37070  Biso   1.000  C
  C324     1.0000 0.69310  0.47250  0.31320  Biso   1.000  C
  C325     1.0000 0.68030  0.42740  0.29090  Biso   1.000  C
  H230     1.0000 0.70520  0.40220  0.31020  Biso   1.000  H
  C326     1.0000 0.63000  0.42100  0.23950  Biso   1.000  C
  H231     1.0000 0.61910  0.39090  0.22370  Biso   1.000  H
  C327     1.0000 0.59410  0.45980  0.21010  Biso   1.000  C
  H232     1.0000 0.56100  0.45640  0.17340  Biso   1.000  H
  C328     1.0000 0.61020  0.50300  0.23800  Biso   1.000  C
  H233     1.0000 0.58590  0.52890  0.22050  Biso   1.000  H
  O31      1.0000 0.74900  0.62116  0.47960  Biso   1.000  O
  O32      1.0000 0.70380  0.65380  0.38470  Biso   1.000  O
  O33      1.0000 0.87870  0.58368  0.53670  Biso   1.000  O
  O34      1.0000 0.97320  0.60520  0.59810  Biso   1.000  O
  O35      1.0000 0.62300  0.56141  0.42210  Biso   1.000  O
  O36      1.0000 0.53030  0.55800  0.34640  Biso   1.000  O
  N70      1.0000 0.61640  0.62040  0.25390  Biso   1.000  N
  N71      1.0000 0.54960  0.62900  0.23340  Biso   1.000  N
  H234     1.0000 0.51810  0.61910  0.25250  Biso   1.000  H
  C329     1.0000 0.54270  0.65640  0.17680  Biso   1.000  C
  H235     1.0000 0.50310  0.66720  0.15280  Biso   1.000  H
  C330     1.0000 0.60520  0.66470  0.16230  Biso   1.000  C
  H236     1.0000 0.61480  0.68210  0.12680  Biso   1.000  H
  C331     1.0000 0.65070  0.64250  0.20990  Biso   1.000  C
  N72      1.0000 0.75480  0.61350  0.27150  Biso   1.000  N
  C332     1.0000 0.72270  0.63970  0.21840  Biso   1.000  C
  C333     1.0000 0.75900  0.66780  0.18240  Biso   1.000  C
  H237     1.0000 0.73750  0.68530  0.14690  Biso   1.000  H
  C334     1.0000 0.82740  0.66970  0.19940  Biso   1.000  C
  H238     1.0000 0.85170  0.68850  0.17520  Biso   1.000  H
  C335     1.0000 0.85950  0.64350  0.25240  Biso   1.000  C
  H239     1.0000 0.90530  0.64480  0.26380  Biso   1.000  H
  C336     1.0000 0.82320  0.61540  0.28850  Biso   1.000  C
  H240     1.0000 0.84470  0.59790  0.32400  Biso   1.000  H
  Cd13     1.0000 0.69783  0.11810  0.91284  Biso   1.000  Cd
  Cd14     1.0000 0.81652  0.08230  0.15610  Biso   1.000  Cd
  N73      1.0000 0.76550  0.17170  0.87030  Biso   1.000  N
  N74      1.0000 0.63370  0.17910  0.86430  Biso   1.000  N
  N75      1.0000 0.66210  0.07280  0.81440  Biso   1.000  N
  N76      1.0000 0.76240  0.05090  0.91350  Biso   1.000  N
  N77      1.0000 0.74100  0.02540  0.10990  Biso   1.000  N
  N78      1.0000 0.84150  0.00940  0.21170  Biso   1.000  N
  C337     1.0000 0.83030  0.16730  0.87460  Biso   1.000  C
  H241     1.0000 0.85060  0.14040  0.89420  Biso   1.000  H
  C338     1.0000 0.86880  0.20070  0.85110  Biso   1.000  C
  H242     1.0000 0.91420  0.19660  0.85440  Biso   1.000  H
  C339     1.0000 0.83730  0.24140  0.82190  Biso   1.000  C
  H243     1.0000 0.86210  0.26510  0.80700  Biso   1.000  H
  C340     1.0000 0.77160  0.24580  0.81560  Biso   1.000  C
  H244     1.0000 0.75030  0.27180  0.79460  Biso   1.000  H
  C341     1.0000 0.73540  0.21090  0.84100  Biso   1.000  C
  C342     1.0000 0.66400  0.21370  0.83810  Biso   1.000  C
  C343     1.0000 0.61720  0.24780  0.81250  Biso   1.000  C
  H245     1.0000 0.62510  0.27550  0.79120  Biso   1.000  H
  C344     1.0000 0.55730  0.23210  0.82510  Biso   1.000  C
  H246     1.0000 0.51660  0.24700  0.81470  Biso   1.000  H
  N79      1.0000 0.57050  0.19020  0.85590  Biso   1.000  N
  H247     1.0000 0.54080  0.17270  0.86850  Biso   1.000  H
  C345     1.0000 0.61290  0.08340  0.76620  Biso   1.000  C
  H248     1.0000 0.59300  0.11260  0.76760  Biso   1.000  H
  C346     1.0000 0.58910  0.05450  0.71430  Biso   1.000  C
  H249     1.0000 0.55310  0.06320  0.68270  Biso   1.000  H
  C347     1.0000 0.61970  0.01270  0.71040  Biso   1.000  C
  H250     1.0000 0.60620  0.99280  0.67480  Biso   1.000  H
  C348     1.0000 0.67070  0.99990  0.75910  Biso   1.000  C
  H251     1.0000 0.69110  0.97080  0.75780  Biso   1.000  H
  C349     1.0000 0.69110  0.03060  0.80980  Biso   1.000  C
  C350     1.0000 0.74580  0.01920  0.86470  Biso   1.000  C
  C351     1.0000 0.78480  0.97990  0.87580  Biso   1.000  C
  H252     1.0000 0.78320  0.95300  0.84990  Biso   1.000  H
  C352     1.0000 0.82580  0.98900  0.93270  Biso   1.000  C
  H253     1.0000 0.85880  0.96900  0.95310  Biso   1.000  H
  N80      1.0000 0.81230  0.03060  0.95530  Biso   1.000  N
  H254     1.0000 0.83230  0.04290  0.99150  Biso   1.000  H
  C353     1.0000 0.76860  0.15590  0.05650  Biso   1.000  C
  C354     1.0000 0.75900  0.20470  0.02720  Biso   1.000  C
  C355     1.0000 0.69490  0.22410  0.01530  Biso   1.000  C
  C356     1.0000 0.63830  0.20020  0.03040  Biso   1.000  C
  H255     1.0000 0.64320  0.17040  0.04930  Biso   1.000  H
  C357     1.0000 0.57660  0.22050  0.01740  Biso   1.000  C
  H256     1.0000 0.54030  0.20430  0.02750  Biso   1.000  H
  C358     1.0000 0.56810  0.26420  0.98970  Biso   1.000  C
  H257     1.0000 0.52600  0.27730  0.98120  Biso   1.000  H
  C359     1.0000 0.62060  0.28890  0.97440  Biso   1.000  C
  H258     1.0000 0.61340  0.31860  0.95550  Biso   1.000  H
  C360     1.0000 0.81420  0.22950  0.01350  Biso   1.000  C
  C361     1.0000 0.55940  0.07950  0.94240  Biso   1.000  C
  C362     1.0000 0.52750  0.03820  0.97220  Biso   1.000  C
  C363     1.0000 0.52210  0.99540  0.93910  Biso   1.000  C
  C364     1.0000 0.54610  0.98810  0.87730  Biso   1.000  C
  H259     1.0000 0.56430  0.01320  0.85770  Biso   1.000  H
  C365     1.0000 0.54240  0.94530  0.84750  Biso   1.000  C
  H260     1.0000 0.55830  0.94110  0.80810  Biso   1.000  H
  C366     1.0000 0.51430  0.90760  0.87710  Biso   1.000  C
  H261     1.0000 0.51140  0.87840  0.85650  Biso   1.000  H
  C367     1.0000 0.49140  0.91250  0.93450  Biso   1.000  C
  H262     1.0000 0.47320  0.88660  0.95260  Biso   1.000  H
  C368     1.0000 0.50560  0.04440  0.03250  Biso   1.000  C
  C369     1.0000 0.93740  0.05070  0.09660  Biso   1.000  C
  C370     1.0000 0.97020  0.02530  0.04640  Biso   1.000  C
  C371     1.0000 0.97340  0.97520  0.04930  Biso   1.000  C
  C372     1.0000 0.94570  0.94830  0.09660  Biso   1.000  C
  H263     1.0000 0.92480  0.96390  0.12710  Biso   1.000  H
  C373     1.0000 0.94890  0.90080  0.09830  Biso   1.000  C
  H264     1.0000 0.93030  0.88410  0.12950  Biso   1.000  H
  C374     1.0000 0.98050  0.87720  0.05280  Biso   1.000  C
  H265     1.0000 0.98450  0.84470  0.05550  Biso   1.000  H
  C375     1.0000 0.00540  0.90010  0.00510  Biso   1.000  C
  H266     1.0000 0.02380  0.88290  0.97420  Biso   1.000  H
  C376     1.0000 0.99580  0.04950  0.99910  Biso   1.000  C
  N81      1.0000 0.69140  0.02210  0.05750  Biso   1.000  N
  H267     1.0000 0.67380  0.04570  0.03480  Biso   1.000  H
  C377     1.0000 0.67380  0.97870  0.04580  Biso   1.000  C
  H268     1.0000 0.64040  0.96850  0.01240  Biso   1.000  H
  C378     1.0000 0.71150  0.95070  0.08980  Biso   1.000  C
  H269     1.0000 0.70990  0.91820  0.09290  Biso   1.000  H
  C379     1.0000 0.75310  0.98120  0.12930  Biso   1.000  C
  C380     1.0000 0.80690  0.97250  0.18680  Biso   1.000  C
  C381     1.0000 0.81970  0.92740  0.20910  Biso   1.000  C
  H270     1.0000 0.79480  0.90220  0.18980  Biso   1.000  H
  C382     1.0000 0.87000  0.92100  0.26050  Biso   1.000  C
  H271     1.0000 0.88090  0.89090  0.27630  Biso   1.000  H
  C383     1.0000 0.90590  0.95980  0.28990  Biso   1.000  C
  H272     1.0000 0.93900  0.95640  0.32660  Biso   1.000  H
  C384     1.0000 0.88980  0.00300  0.26200  Biso   1.000  C
  H273     1.0000 0.91410  0.02890  0.27950  Biso   1.000  H
  O37      1.0000 0.75100  0.12116  0.02040  Biso   1.000  O
  O38      1.0000 0.79620  0.15380  0.11530  Biso   1.000  O
  O39      1.0000 0.62130  0.08368  0.96330  Biso   1.000  O
  O40      1.0000 0.52680  0.10520  0.90190  Biso   1.000  O
  O41      1.0000 0.87700  0.06141  0.07790  Biso   1.000  O
  O42      1.0000 0.96970  0.05800  0.15360  Biso   1.000  O
  N82      1.0000 0.88360  0.12040  0.24610  Biso   1.000  N
  N83      1.0000 0.95040  0.12900  0.26660  Biso   1.000  N
  H274     1.0000 0.98190  0.11910  0.24750  Biso   1.000  H
  C385     1.0000 0.95730  0.15640  0.32320  Biso   1.000  C
  H275     1.0000 0.99690  0.16720  0.34720  Biso   1.000  H
  C386     1.0000 0.89480  0.16470  0.33770  Biso   1.000  C
  H276     1.0000 0.88520  0.18210  0.37320  Biso   1.000  H
  C387     1.0000 0.84930  0.14250  0.29010  Biso   1.000  C
  N84      1.0000 0.74520  0.11350  0.22850  Biso   1.000  N
  C388     1.0000 0.77730  0.13970  0.28160  Biso   1.000  C
  C389     1.0000 0.74100  0.16780  0.31760  Biso   1.000  C
  H277     1.0000 0.76250  0.18530  0.35310  Biso   1.000  H
  C390     1.0000 0.67260  0.16970  0.30060  Biso   1.000  C
  H278     1.0000 0.64830  0.18850  0.32480  Biso   1.000  H
  C391     1.0000 0.64050  0.14350  0.24760  Biso   1.000  C
  H279     1.0000 0.59470  0.14480  0.23620  Biso   1.000  H
  C392     1.0000 0.67680  0.11540  0.21150  Biso   1.000  C
  H280     1.0000 0.65530  0.09790  0.17600  Biso   1.000  H
  Cd15     1.0000 0.19783  0.61810  0.91284  Biso   1.000  Cd
  Cd16     1.0000 0.31652  0.58230  0.15610  Biso   1.000  Cd
  N85      1.0000 0.26550  0.67170  0.87030  Biso   1.000  N
  N86      1.0000 0.13370  0.67910  0.86430  Biso   1.000  N
  N87      1.0000 0.16210  0.57280  0.81440  Biso   1.000  N
  N88      1.0000 0.26240  0.55090  0.91350  Biso   1.000  N
  N89      1.0000 0.24100  0.52540  0.10990  Biso   1.000  N
  N90      1.0000 0.34150  0.50940  0.21170  Biso   1.000  N
  C393     1.0000 0.33030  0.66730  0.87460  Biso   1.000  C
  H281     1.0000 0.35060  0.64040  0.89420  Biso   1.000  H
  C394     1.0000 0.36880  0.70070  0.85110  Biso   1.000  C
  H282     1.0000 0.41420  0.69660  0.85440  Biso   1.000  H
  C395     1.0000 0.33730  0.74140  0.82190  Biso   1.000  C
  H283     1.0000 0.36210  0.76510  0.80700  Biso   1.000  H
  C396     1.0000 0.27160  0.74580  0.81560  Biso   1.000  C
  H284     1.0000 0.25030  0.77180  0.79460  Biso   1.000  H
  C397     1.0000 0.23540  0.71090  0.84100  Biso   1.000  C
  C398     1.0000 0.16400  0.71370  0.83810  Biso   1.000  C
  C399     1.0000 0.11720  0.74780  0.81250  Biso   1.000  C
  H285     1.0000 0.12510  0.77550  0.79120  Biso   1.000  H
  C400     1.0000 0.05730  0.73210  0.82510  Biso   1.000  C
  H286     1.0000 0.01660  0.74700  0.81470  Biso   1.000  H
  N91      1.0000 0.07050  0.69020  0.85590  Biso   1.000  N
  H287     1.0000 0.04080  0.67270  0.86850  Biso   1.000  H
  C401     1.0000 0.11290  0.58340  0.76620  Biso   1.000  C
  H288     1.0000 0.09300  0.61260  0.76760  Biso   1.000  H
  C402     1.0000 0.08910  0.55450  0.71430  Biso   1.000  C
  H289     1.0000 0.05310  0.56320  0.68270  Biso   1.000  H
  C403     1.0000 0.11970  0.51270  0.71040  Biso   1.000  C
  H290     1.0000 0.10620  0.49280  0.67480  Biso   1.000  H
  C404     1.0000 0.17070  0.49990  0.75910  Biso   1.000  C
  H291     1.0000 0.19110  0.47080  0.75780  Biso   1.000  H
  C405     1.0000 0.19110  0.53060  0.80980  Biso   1.000  C
  C406     1.0000 0.24580  0.51920  0.86470  Biso   1.000  C
  C407     1.0000 0.28480  0.47990  0.87580  Biso   1.000  C
  H292     1.0000 0.28320  0.45300  0.84990  Biso   1.000  H
  C408     1.0000 0.32580  0.48900  0.93270  Biso   1.000  C
  H293     1.0000 0.35880  0.46900  0.95310  Biso   1.000  H
  N92      1.0000 0.31230  0.53060  0.95530  Biso   1.000  N
  H294     1.0000 0.33230  0.54290  0.99150  Biso   1.000  H
  C409     1.0000 0.26860  0.65590  0.05650  Biso   1.000  C
  C410     1.0000 0.25900  0.70470  0.02720  Biso   1.000  C
  C411     1.0000 0.19490  0.72410  0.01530  Biso   1.000  C
  C412     1.0000 0.13830  0.70020  0.03040  Biso   1.000  C
  H295     1.0000 0.14320  0.67040  0.04930  Biso   1.000  H
  C413     1.0000 0.07660  0.72050  0.01740  Biso   1.000  C
  H296     1.0000 0.04030  0.70430  0.02750  Biso   1.000  H
  C414     1.0000 0.06810  0.76420  0.98970  Biso   1.000  C
  H297     1.0000 0.02600  0.77730  0.98120  Biso   1.000  H
  C415     1.0000 0.12060  0.78890  0.97440  Biso   1.000  C
  H298     1.0000 0.11340  0.81860  0.95550  Biso   1.000  H
  C416     1.0000 0.31420  0.72950  0.01350  Biso   1.000  C
  C417     1.0000 0.05940  0.57950  0.94240  Biso   1.000  C
  C418     1.0000 0.02750  0.53820  0.97220  Biso   1.000  C
  C419     1.0000 0.02210  0.49540  0.93910  Biso   1.000  C
  C420     1.0000 0.04610  0.48810  0.87730  Biso   1.000  C
  H299     1.0000 0.06430  0.51320  0.85770  Biso   1.000  H
  C421     1.0000 0.04240  0.44530  0.84750  Biso   1.000  C
  H300     1.0000 0.05830  0.44110  0.80810  Biso   1.000  H
  C422     1.0000 0.01430  0.40760  0.87710  Biso   1.000  C
  H301     1.0000 0.01140  0.37840  0.85650  Biso   1.000  H
  C423     1.0000 0.99140  0.41250  0.93450  Biso   1.000  C
  H302     1.0000 0.97320  0.38660  0.95260  Biso   1.000  H
  C424     1.0000 0.00560  0.54440  0.03250  Biso   1.000  C
  C425     1.0000 0.43740  0.55070  0.09660  Biso   1.000  C
  C426     1.0000 0.47020  0.52530  0.04640  Biso   1.000  C
  C427     1.0000 0.47340  0.47520  0.04930  Biso   1.000  C
  C428     1.0000 0.44570  0.44830  0.09660  Biso   1.000  C
  H303     1.0000 0.42480  0.46390  0.12710  Biso   1.000  H
  C429     1.0000 0.44890  0.40080  0.09830  Biso   1.000  C
  H304     1.0000 0.43030  0.38410  0.12950  Biso   1.000  H
  C430     1.0000 0.48050  0.37720  0.05280  Biso   1.000  C
  H305     1.0000 0.48450  0.34470  0.05550  Biso   1.000  H
  C431     1.0000 0.50540  0.40010  0.00510  Biso   1.000  C
  H306     1.0000 0.52380  0.38290  0.97420  Biso   1.000  H
  C432     1.0000 0.49580  0.54950  0.99910  Biso   1.000  C
  N93      1.0000 0.19140  0.52210  0.05750  Biso   1.000  N
  H307     1.0000 0.17380  0.54570  0.03480  Biso   1.000  H
  C433     1.0000 0.17380  0.47870  0.04580  Biso   1.000  C
  H308     1.0000 0.14040  0.46850  0.01240  Biso   1.000  H
  C434     1.0000 0.21150  0.45070  0.08980  Biso   1.000  C
  H309     1.0000 0.20990  0.41820  0.09290  Biso   1.000  H
  C435     1.0000 0.25310  0.48120  0.12930  Biso   1.000  C
  C436     1.0000 0.30690  0.47250  0.18680  Biso   1.000  C
  C437     1.0000 0.31970  0.42740  0.20910  Biso   1.000  C
  H310     1.0000 0.29480  0.40220  0.18980  Biso   1.000  H
  C438     1.0000 0.37000  0.42100  0.26050  Biso   1.000  C
  H311     1.0000 0.38090  0.39090  0.27630  Biso   1.000  H
  C439     1.0000 0.40590  0.45980  0.28990  Biso   1.000  C
  H312     1.0000 0.43900  0.45640  0.32660  Biso   1.000  H
  C440     1.0000 0.38980  0.50300  0.26200  Biso   1.000  C
  H313     1.0000 0.41410  0.52890  0.27950  Biso   1.000  H
  O43      1.0000 0.25100  0.62116  0.02040  Biso   1.000  O
  O44      1.0000 0.29620  0.65380  0.11530  Biso   1.000  O
  O45      1.0000 0.12130  0.58368  0.96330  Biso   1.000  O
  O46      1.0000 0.02680  0.60520  0.90190  Biso   1.000  O
  O47      1.0000 0.37700  0.56141  0.07790  Biso   1.000  O
  O48      1.0000 0.46970  0.55800  0.15360  Biso   1.000  O
  N94      1.0000 0.38360  0.62040  0.24610  Biso   1.000  N
  N95      1.0000 0.45040  0.62900  0.26660  Biso   1.000  N
  H314     1.0000 0.48190  0.61910  0.24750  Biso   1.000  H
  C441     1.0000 0.45730  0.65640  0.32320  Biso   1.000  C
  H315     1.0000 0.49690  0.66720  0.34720  Biso   1.000  H
  C442     1.0000 0.39480  0.66470  0.33770  Biso   1.000  C
  H316     1.0000 0.38520  0.68210  0.37320  Biso   1.000  H
  C443     1.0000 0.34930  0.64250  0.29010  Biso   1.000  C
  N96      1.0000 0.24520  0.61350  0.22850  Biso   1.000  N
  C444     1.0000 0.27730  0.63970  0.28160  Biso   1.000  C
  C445     1.0000 0.24100  0.66780  0.31760  Biso   1.000  C
  H317     1.0000 0.26250  0.68530  0.35310  Biso   1.000  H
  C446     1.0000 0.17260  0.66970  0.30060  Biso   1.000  C
  H318     1.0000 0.14830  0.68850  0.32480  Biso   1.000  H
  C447     1.0000 0.14050  0.64350  0.24760  Biso   1.000  C
  H319     1.0000 0.09470  0.64480  0.23620  Biso   1.000  H
  C448     1.0000 0.17680  0.61540  0.21150  Biso   1.000  C
  H320     1.0000 0.15530  0.59790  0.17600  Biso   1.000  H
