data_image0
_cell_length_a       41.286
_cell_length_b       41.286
_cell_length_c       41.286
_cell_angle_alpha    90
_cell_angle_beta     90
_cell_angle_gamma    90

_symmetry_space_group_name_H-M    "P 1"
_symmetry_int_tables_number       1

loop_
  _symmetry_equiv_pos_as_xyz
  'x, y, z'

loop_
  _atom_site_label
  _atom_site_occupancy
  _atom_site_fract_x
  _atom_site_fract_y
  _atom_site_fract_z
  _atom_site_thermal_displace_type
  _atom_site_B_iso_or_equiv
  _atom_site_type_symbol
  O1       1.0000 0.71200  0.37077  0.67080  Biso   1.000  O
  O2       1.0000 0.66600  0.41680  0.62740  Biso   1.000  O
  C1       1.0000 0.75862  0.37862  0.71783  Biso   1.000  C
  H1       1.0000 0.76460  0.37870  0.69590  Biso   1.000  H
  C2       1.0000 0.66653  0.48333  0.62560  Biso   1.000  C
  H2       1.0000 0.68000  0.47200  0.61110  Biso   1.000  H
  O3       1.0000 0.70730  0.38231  0.67310  Biso   1.000  O
  O4       1.0000 0.67270  0.41700  0.63610  Biso   1.000  O
  O5       1.0000 0.71200  0.87077  0.17080  Biso   1.000  O
  O6       1.0000 0.66600  0.91680  0.12740  Biso   1.000  O
  C3       1.0000 0.75862  0.87862  0.21783  Biso   1.000  C
  H3       1.0000 0.76460  0.87870  0.19590  Biso   1.000  H
  C4       1.0000 0.66653  0.98333  0.12560  Biso   1.000  C
  H4       1.0000 0.68000  0.97200  0.11110  Biso   1.000  H
  O7       1.0000 0.70730  0.88231  0.17310  Biso   1.000  O
  O8       1.0000 0.67270  0.91700  0.13610  Biso   1.000  O
  O9       1.0000 0.21200  0.37077  0.17080  Biso   1.000  O
  O10      1.0000 0.16600  0.41680  0.12740  Biso   1.000  O
  C5       1.0000 0.25862  0.37862  0.21783  Biso   1.000  C
  H5       1.0000 0.26460  0.37870  0.19590  Biso   1.000  H
  C6       1.0000 0.16653  0.48333  0.12560  Biso   1.000  C
  H6       1.0000 0.18000  0.47200  0.11110  Biso   1.000  H
  O11      1.0000 0.20730  0.38231  0.17310  Biso   1.000  O
  O12      1.0000 0.17270  0.41700  0.13610  Biso   1.000  O
  O13      1.0000 0.21200  0.87077  0.67080  Biso   1.000  O
  O14      1.0000 0.16600  0.91680  0.62740  Biso   1.000  O
  C7       1.0000 0.25862  0.87862  0.71783  Biso   1.000  C
  H7       1.0000 0.26460  0.87870  0.69590  Biso   1.000  H
  C8       1.0000 0.16653  0.98333  0.62560  Biso   1.000  C
  H8       1.0000 0.18000  0.97200  0.61110  Biso   1.000  H
  O15      1.0000 0.20730  0.88231  0.67310  Biso   1.000  O
  O16      1.0000 0.17270  0.91700  0.63610  Biso   1.000  O
  O17      1.0000 0.28800  0.62923  0.67080  Biso   1.000  O
  O18      1.0000 0.33400  0.58320  0.62740  Biso   1.000  O
  C9       1.0000 0.24138  0.62138  0.71783  Biso   1.000  C
  H9       1.0000 0.23540  0.62130  0.69590  Biso   1.000  H
  C10      1.0000 0.33347  0.51667  0.62560  Biso   1.000  C
  H10      1.0000 0.32000  0.52800  0.61110  Biso   1.000  H
  O19      1.0000 0.29270  0.61769  0.67310  Biso   1.000  O
  O20      1.0000 0.32730  0.58300  0.63610  Biso   1.000  O
  O21      1.0000 0.28800  0.12923  0.17080  Biso   1.000  O
  O22      1.0000 0.33400  0.08320  0.12740  Biso   1.000  O
  C11      1.0000 0.24138  0.12138  0.21783  Biso   1.000  C
  H11      1.0000 0.23540  0.12130  0.19590  Biso   1.000  H
  C12      1.0000 0.33347  0.01667  0.12560  Biso   1.000  C
  H12      1.0000 0.32000  0.02800  0.11110  Biso   1.000  H
  O23      1.0000 0.29270  0.11769  0.17310  Biso   1.000  O
  O24      1.0000 0.32730  0.08300  0.13610  Biso   1.000  O
  O25      1.0000 0.78800  0.62923  0.17080  Biso   1.000  O
  O26      1.0000 0.83400  0.58320  0.12740  Biso   1.000  O
  C13      1.0000 0.74138  0.62138  0.21783  Biso   1.000  C
  H13      1.0000 0.73540  0.62130  0.19590  Biso   1.000  H
  C14      1.0000 0.83347  0.51667  0.12560  Biso   1.000  C
  H14      1.0000 0.82000  0.52800  0.11110  Biso   1.000  H
  O27      1.0000 0.79270  0.61769  0.17310  Biso   1.000  O
  O28      1.0000 0.82730  0.58300  0.13610  Biso   1.000  O
  O29      1.0000 0.78800  0.12923  0.67080  Biso   1.000  O
  O30      1.0000 0.83400  0.08320  0.62740  Biso   1.000  O
  C15      1.0000 0.74138  0.12138  0.71783  Biso   1.000  C
  H15      1.0000 0.73540  0.12130  0.69590  Biso   1.000  H
  C16      1.0000 0.83347  0.01667  0.62560  Biso   1.000  C
  H16      1.0000 0.82000  0.02800  0.61110  Biso   1.000  H
  O31      1.0000 0.79270  0.11769  0.67310  Biso   1.000  O
  O32      1.0000 0.82730  0.08300  0.63610  Biso   1.000  O
  O33      1.0000 0.28800  0.37077  0.32920  Biso   1.000  O
  O34      1.0000 0.33400  0.41680  0.37260  Biso   1.000  O
  C17      1.0000 0.24138  0.37862  0.28217  Biso   1.000  C
  H17      1.0000 0.23540  0.37870  0.30410  Biso   1.000  H
  C18      1.0000 0.33347  0.48333  0.37440  Biso   1.000  C
  H18      1.0000 0.32000  0.47200  0.38890  Biso   1.000  H
  O35      1.0000 0.29270  0.38231  0.32690  Biso   1.000  O
  O36      1.0000 0.32730  0.41700  0.36390  Biso   1.000  O
  O37      1.0000 0.28800  0.87077  0.82920  Biso   1.000  O
  O38      1.0000 0.33400  0.91680  0.87260  Biso   1.000  O
  C19      1.0000 0.24138  0.87862  0.78217  Biso   1.000  C
  H19      1.0000 0.23540  0.87870  0.80410  Biso   1.000  H
  C20      1.0000 0.33347  0.98333  0.87440  Biso   1.000  C
  H20      1.0000 0.32000  0.97200  0.88890  Biso   1.000  H
  O39      1.0000 0.29270  0.88231  0.82690  Biso   1.000  O
  O40      1.0000 0.32730  0.91700  0.86390  Biso   1.000  O
  O41      1.0000 0.78800  0.37077  0.82920  Biso   1.000  O
  O42      1.0000 0.83400  0.41680  0.87260  Biso   1.000  O
  C21      1.0000 0.74138  0.37862  0.78217  Biso   1.000  C
  H21      1.0000 0.73540  0.37870  0.80410  Biso   1.000  H
  C22      1.0000 0.83347  0.48333  0.87440  Biso   1.000  C
  H22      1.0000 0.82000  0.47200  0.88890  Biso   1.000  H
  O43      1.0000 0.79270  0.38231  0.82690  Biso   1.000  O
  O44      1.0000 0.82730  0.41700  0.86390  Biso   1.000  O
  O45      1.0000 0.78800  0.87077  0.32920  Biso   1.000  O
  O46      1.0000 0.83400  0.91680  0.37260  Biso   1.000  O
  C23      1.0000 0.74138  0.87862  0.28217  Biso   1.000  C
  H23      1.0000 0.73540  0.87870  0.30410  Biso   1.000  H
  C24      1.0000 0.83347  0.98333  0.37440  Biso   1.000  C
  H24      1.0000 0.82000  0.97200  0.38890  Biso   1.000  H
  O47      1.0000 0.79270  0.88231  0.32690  Biso   1.000  O
  O48      1.0000 0.82730  0.91700  0.36390  Biso   1.000  O
  O49      1.0000 0.71200  0.62923  0.32920  Biso   1.000  O
  O50      1.0000 0.66600  0.58320  0.37260  Biso   1.000  O
  C25      1.0000 0.75862  0.62138  0.28217  Biso   1.000  C
  H25      1.0000 0.76460  0.62130  0.30410  Biso   1.000  H
  C26      1.0000 0.66653  0.51667  0.37440  Biso   1.000  C
  H26      1.0000 0.68000  0.52800  0.38890  Biso   1.000  H
  O51      1.0000 0.70730  0.61769  0.32690  Biso   1.000  O
  O52      1.0000 0.67270  0.58300  0.36390  Biso   1.000  O
  O53      1.0000 0.71200  0.12923  0.82920  Biso   1.000  O
  O54      1.0000 0.66600  0.08320  0.87260  Biso   1.000  O
  C27      1.0000 0.75862  0.12138  0.78217  Biso   1.000  C
  H27      1.0000 0.76460  0.12130  0.80410  Biso   1.000  H
  C28      1.0000 0.66653  0.01667  0.87440  Biso   1.000  C
  H28      1.0000 0.68000  0.02800  0.88890  Biso   1.000  H
  O55      1.0000 0.70730  0.11769  0.82690  Biso   1.000  O
  O56      1.0000 0.67270  0.08300  0.86390  Biso   1.000  O
  O57      1.0000 0.21200  0.62923  0.82920  Biso   1.000  O
  O58      1.0000 0.16600  0.58320  0.87260  Biso   1.000  O
  C29      1.0000 0.25862  0.62138  0.78217  Biso   1.000  C
  H29      1.0000 0.26460  0.62130  0.80410  Biso   1.000  H
  C30      1.0000 0.16653  0.51667  0.87440  Biso   1.000  C
  H30      1.0000 0.18000  0.52800  0.88890  Biso   1.000  H
  O59      1.0000 0.20730  0.61769  0.82690  Biso   1.000  O
  O60      1.0000 0.17270  0.58300  0.86390  Biso   1.000  O
  O61      1.0000 0.21200  0.12923  0.32920  Biso   1.000  O
  O62      1.0000 0.16600  0.08320  0.37260  Biso   1.000  O
  C31      1.0000 0.25862  0.12138  0.28217  Biso   1.000  C
  H31      1.0000 0.26460  0.12130  0.30410  Biso   1.000  H
  C32      1.0000 0.16653  0.01667  0.37440  Biso   1.000  C
  H32      1.0000 0.18000  0.02800  0.38890  Biso   1.000  H
  O63      1.0000 0.20730  0.11769  0.32690  Biso   1.000  O
  O64      1.0000 0.17270  0.08300  0.36390  Biso   1.000  O
  O65      1.0000 0.67080  0.71200  0.37077  Biso   1.000  O
  O66      1.0000 0.62740  0.66600  0.41680  Biso   1.000  O
  C33      1.0000 0.71783  0.75862  0.37862  Biso   1.000  C
  H33      1.0000 0.69590  0.76460  0.37870  Biso   1.000  H
  C34      1.0000 0.62560  0.66653  0.48333  Biso   1.000  C
  H34      1.0000 0.61110  0.68000  0.47200  Biso   1.000  H
  O67      1.0000 0.67310  0.70730  0.38231  Biso   1.000  O
  O68      1.0000 0.63610  0.67270  0.41700  Biso   1.000  O
  O69      1.0000 0.67080  0.21200  0.87077  Biso   1.000  O
  O70      1.0000 0.62740  0.16600  0.91680  Biso   1.000  O
  C35      1.0000 0.71783  0.25862  0.87862  Biso   1.000  C
  H35      1.0000 0.69590  0.26460  0.87870  Biso   1.000  H
  C36      1.0000 0.62560  0.16653  0.98333  Biso   1.000  C
  H36      1.0000 0.61110  0.18000  0.97200  Biso   1.000  H
  O71      1.0000 0.67310  0.20730  0.88231  Biso   1.000  O
  O72      1.0000 0.63610  0.17270  0.91700  Biso   1.000  O
  O73      1.0000 0.17080  0.71200  0.87077  Biso   1.000  O
  O74      1.0000 0.12740  0.66600  0.91680  Biso   1.000  O
  C37      1.0000 0.21783  0.75862  0.87862  Biso   1.000  C
  H37      1.0000 0.19590  0.76460  0.87870  Biso   1.000  H
  C38      1.0000 0.12560  0.66653  0.98333  Biso   1.000  C
  H38      1.0000 0.11110  0.68000  0.97200  Biso   1.000  H
  O75      1.0000 0.17310  0.70730  0.88231  Biso   1.000  O
  O76      1.0000 0.13610  0.67270  0.91700  Biso   1.000  O
  O77      1.0000 0.17080  0.21200  0.37077  Biso   1.000  O
  O78      1.0000 0.12740  0.16600  0.41680  Biso   1.000  O
  C39      1.0000 0.21783  0.25862  0.37862  Biso   1.000  C
  H39      1.0000 0.19590  0.26460  0.37870  Biso   1.000  H
  C40      1.0000 0.12560  0.16653  0.48333  Biso   1.000  C
  H40      1.0000 0.11110  0.18000  0.47200  Biso   1.000  H
  O79      1.0000 0.17310  0.20730  0.38231  Biso   1.000  O
  O80      1.0000 0.13610  0.17270  0.41700  Biso   1.000  O
  O81      1.0000 0.67080  0.28800  0.62923  Biso   1.000  O
  O82      1.0000 0.62740  0.33400  0.58320  Biso   1.000  O
  C41      1.0000 0.71783  0.24138  0.62138  Biso   1.000  C
  H41      1.0000 0.69590  0.23540  0.62130  Biso   1.000  H
  C42      1.0000 0.62560  0.33347  0.51667  Biso   1.000  C
  H42      1.0000 0.61110  0.32000  0.52800  Biso   1.000  H
  O83      1.0000 0.67310  0.29270  0.61769  Biso   1.000  O
  O84      1.0000 0.63610  0.32730  0.58300  Biso   1.000  O
  O85      1.0000 0.67080  0.78800  0.12923  Biso   1.000  O
  O86      1.0000 0.62740  0.83400  0.08320  Biso   1.000  O
  C43      1.0000 0.71783  0.74138  0.12138  Biso   1.000  C
  H43      1.0000 0.69590  0.73540  0.12130  Biso   1.000  H
  C44      1.0000 0.62560  0.83347  0.01667  Biso   1.000  C
  H44      1.0000 0.61110  0.82000  0.02800  Biso   1.000  H
  O87      1.0000 0.67310  0.79270  0.11769  Biso   1.000  O
  O88      1.0000 0.63610  0.82730  0.08300  Biso   1.000  O
  O89      1.0000 0.17080  0.28800  0.12923  Biso   1.000  O
  O90      1.0000 0.12740  0.33400  0.08320  Biso   1.000  O
  C45      1.0000 0.21783  0.24138  0.12138  Biso   1.000  C
  H45      1.0000 0.19590  0.23540  0.12130  Biso   1.000  H
  C46      1.0000 0.12560  0.33347  0.01667  Biso   1.000  C
  H46      1.0000 0.11110  0.32000  0.02800  Biso   1.000  H
  O91      1.0000 0.17310  0.29270  0.11769  Biso   1.000  O
  O92      1.0000 0.13610  0.32730  0.08300  Biso   1.000  O
  O93      1.0000 0.17080  0.78800  0.62923  Biso   1.000  O
  O94      1.0000 0.12740  0.83400  0.58320  Biso   1.000  O
  C47      1.0000 0.21783  0.74138  0.62138  Biso   1.000  C
  H47      1.0000 0.19590  0.73540  0.62130  Biso   1.000  H
  C48      1.0000 0.12560  0.83347  0.51667  Biso   1.000  C
  H48      1.0000 0.11110  0.82000  0.52800  Biso   1.000  H
  O95      1.0000 0.17310  0.79270  0.61769  Biso   1.000  O
  O96      1.0000 0.13610  0.82730  0.58300  Biso   1.000  O
  O97      1.0000 0.32920  0.28800  0.37077  Biso   1.000  O
  O98      1.0000 0.37260  0.33400  0.41680  Biso   1.000  O
  C49      1.0000 0.28217  0.24138  0.37862  Biso   1.000  C
  H49      1.0000 0.30410  0.23540  0.37870  Biso   1.000  H
  C50      1.0000 0.37440  0.33347  0.48333  Biso   1.000  C
  H50      1.0000 0.38890  0.32000  0.47200  Biso   1.000  H
  O99      1.0000 0.32690  0.29270  0.38231  Biso   1.000  O
  O100     1.0000 0.36390  0.32730  0.41700  Biso   1.000  O
  O101     1.0000 0.32920  0.78800  0.87077  Biso   1.000  O
  O102     1.0000 0.37260  0.83400  0.91680  Biso   1.000  O
  C51      1.0000 0.28217  0.74138  0.87862  Biso   1.000  C
  H51      1.0000 0.30410  0.73540  0.87870  Biso   1.000  H
  C52      1.0000 0.37440  0.83347  0.98333  Biso   1.000  C
  H52      1.0000 0.38890  0.82000  0.97200  Biso   1.000  H
  O103     1.0000 0.32690  0.79270  0.88231  Biso   1.000  O
  O104     1.0000 0.36390  0.82730  0.91700  Biso   1.000  O
  O105     1.0000 0.82920  0.28800  0.87077  Biso   1.000  O
  O106     1.0000 0.87260  0.33400  0.91680  Biso   1.000  O
  C53      1.0000 0.78217  0.24138  0.87862  Biso   1.000  C
  H53      1.0000 0.80410  0.23540  0.87870  Biso   1.000  H
  C54      1.0000 0.87440  0.33347  0.98333  Biso   1.000  C
  H54      1.0000 0.88890  0.32000  0.97200  Biso   1.000  H
  O107     1.0000 0.82690  0.29270  0.88231  Biso   1.000  O
  O108     1.0000 0.86390  0.32730  0.91700  Biso   1.000  O
  O109     1.0000 0.82920  0.78800  0.37077  Biso   1.000  O
  O110     1.0000 0.87260  0.83400  0.41680  Biso   1.000  O
  C55      1.0000 0.78217  0.74138  0.37862  Biso   1.000  C
  H55      1.0000 0.80410  0.73540  0.37870  Biso   1.000  H
  C56      1.0000 0.87440  0.83347  0.48333  Biso   1.000  C
  H56      1.0000 0.88890  0.82000  0.47200  Biso   1.000  H
  O111     1.0000 0.82690  0.79270  0.38231  Biso   1.000  O
  O112     1.0000 0.86390  0.82730  0.41700  Biso   1.000  O
  O113     1.0000 0.32920  0.71200  0.62923  Biso   1.000  O
  O114     1.0000 0.37260  0.66600  0.58320  Biso   1.000  O
  C57      1.0000 0.28217  0.75862  0.62138  Biso   1.000  C
  H57      1.0000 0.30410  0.76460  0.62130  Biso   1.000  H
  C58      1.0000 0.37440  0.66653  0.51667  Biso   1.000  C
  H58      1.0000 0.38890  0.68000  0.52800  Biso   1.000  H
  O115     1.0000 0.32690  0.70730  0.61769  Biso   1.000  O
  O116     1.0000 0.36390  0.67270  0.58300  Biso   1.000  O
  O117     1.0000 0.32920  0.21200  0.12923  Biso   1.000  O
  O118     1.0000 0.37260  0.16600  0.08320  Biso   1.000  O
  C59      1.0000 0.28217  0.25862  0.12138  Biso   1.000  C
  H59      1.0000 0.30410  0.26460  0.12130  Biso   1.000  H
  C60      1.0000 0.37440  0.16653  0.01667  Biso   1.000  C
  H60      1.0000 0.38890  0.18000  0.02800  Biso   1.000  H
  O119     1.0000 0.32690  0.20730  0.11769  Biso   1.000  O
  O120     1.0000 0.36390  0.17270  0.08300  Biso   1.000  O
  O121     1.0000 0.82920  0.71200  0.12923  Biso   1.000  O
  O122     1.0000 0.87260  0.66600  0.08320  Biso   1.000  O
  C61      1.0000 0.78217  0.75862  0.12138  Biso   1.000  C
  H61      1.0000 0.80410  0.76460  0.12130  Biso   1.000  H
  C62      1.0000 0.87440  0.66653  0.01667  Biso   1.000  C
  H62      1.0000 0.88890  0.68000  0.02800  Biso   1.000  H
  O123     1.0000 0.82690  0.70730  0.11769  Biso   1.000  O
  O124     1.0000 0.86390  0.67270  0.08300  Biso   1.000  O
  O125     1.0000 0.82920  0.21200  0.62923  Biso   1.000  O
  O126     1.0000 0.87260  0.16600  0.58320  Biso   1.000  O
  C63      1.0000 0.78217  0.25862  0.62138  Biso   1.000  C
  H63      1.0000 0.80410  0.26460  0.62130  Biso   1.000  H
  C64      1.0000 0.87440  0.16653  0.51667  Biso   1.000  C
  H64      1.0000 0.88890  0.18000  0.52800  Biso   1.000  H
  O127     1.0000 0.82690  0.20730  0.61769  Biso   1.000  O
  O128     1.0000 0.86390  0.17270  0.58300  Biso   1.000  O
  O129     1.0000 0.37077  0.67080  0.71200  Biso   1.000  O
  O130     1.0000 0.41680  0.62740  0.66600  Biso   1.000  O
  C65      1.0000 0.37862  0.71783  0.75862  Biso   1.000  C
  H65      1.0000 0.37870  0.69590  0.76460  Biso   1.000  H
  C66      1.0000 0.48333  0.62560  0.66653  Biso   1.000  C
  H66      1.0000 0.47200  0.61110  0.68000  Biso   1.000  H
  O131     1.0000 0.38231  0.67310  0.70730  Biso   1.000  O
  O132     1.0000 0.41700  0.63610  0.67270  Biso   1.000  O
  O133     1.0000 0.37077  0.17080  0.21200  Biso   1.000  O
  O134     1.0000 0.41680  0.12740  0.16600  Biso   1.000  O
  C67      1.0000 0.37862  0.21783  0.25862  Biso   1.000  C
  H67      1.0000 0.37870  0.19590  0.26460  Biso   1.000  H
  C68      1.0000 0.48333  0.12560  0.16653  Biso   1.000  C
  H68      1.0000 0.47200  0.11110  0.18000  Biso   1.000  H
  O135     1.0000 0.38231  0.17310  0.20730  Biso   1.000  O
  O136     1.0000 0.41700  0.13610  0.17270  Biso   1.000  O
  O137     1.0000 0.87077  0.67080  0.21200  Biso   1.000  O
  O138     1.0000 0.91680  0.62740  0.16600  Biso   1.000  O
  C69      1.0000 0.87862  0.71783  0.25862  Biso   1.000  C
  H69      1.0000 0.87870  0.69590  0.26460  Biso   1.000  H
  C70      1.0000 0.98333  0.62560  0.16653  Biso   1.000  C
  H70      1.0000 0.97200  0.61110  0.18000  Biso   1.000  H
  O139     1.0000 0.88231  0.67310  0.20730  Biso   1.000  O
  O140     1.0000 0.91700  0.63610  0.17270  Biso   1.000  O
  O141     1.0000 0.87077  0.17080  0.71200  Biso   1.000  O
  O142     1.0000 0.91680  0.12740  0.66600  Biso   1.000  O
  C71      1.0000 0.87862  0.21783  0.75862  Biso   1.000  C
  H71      1.0000 0.87870  0.19590  0.76460  Biso   1.000  H
  C72      1.0000 0.98333  0.12560  0.66653  Biso   1.000  C
  H72      1.0000 0.97200  0.11110  0.68000  Biso   1.000  H
  O143     1.0000 0.88231  0.17310  0.70730  Biso   1.000  O
  O144     1.0000 0.91700  0.13610  0.67270  Biso   1.000  O
  O145     1.0000 0.62923  0.67080  0.28800  Biso   1.000  O
  O146     1.0000 0.58320  0.62740  0.33400  Biso   1.000  O
  C73      1.0000 0.62138  0.71783  0.24138  Biso   1.000  C
  H73      1.0000 0.62130  0.69590  0.23540  Biso   1.000  H
  C74      1.0000 0.51667  0.62560  0.33347  Biso   1.000  C
  H74      1.0000 0.52800  0.61110  0.32000  Biso   1.000  H
  O147     1.0000 0.61769  0.67310  0.29270  Biso   1.000  O
  O148     1.0000 0.58300  0.63610  0.32730  Biso   1.000  O
  O149     1.0000 0.62923  0.17080  0.78800  Biso   1.000  O
  O150     1.0000 0.58320  0.12740  0.83400  Biso   1.000  O
  C75      1.0000 0.62138  0.21783  0.74138  Biso   1.000  C
  H75      1.0000 0.62130  0.19590  0.73540  Biso   1.000  H
  C76      1.0000 0.51667  0.12560  0.83347  Biso   1.000  C
  H76      1.0000 0.52800  0.11110  0.82000  Biso   1.000  H
  O151     1.0000 0.61769  0.17310  0.79270  Biso   1.000  O
  O152     1.0000 0.58300  0.13610  0.82730  Biso   1.000  O
  O153     1.0000 0.12923  0.67080  0.78800  Biso   1.000  O
  O154     1.0000 0.08320  0.62740  0.83400  Biso   1.000  O
  C77      1.0000 0.12138  0.71783  0.74138  Biso   1.000  C
  H77      1.0000 0.12130  0.69590  0.73540  Biso   1.000  H
  C78      1.0000 0.01667  0.62560  0.83347  Biso   1.000  C
  H78      1.0000 0.02800  0.61110  0.82000  Biso   1.000  H
  O155     1.0000 0.11769  0.67310  0.79270  Biso   1.000  O
  O156     1.0000 0.08300  0.63610  0.82730  Biso   1.000  O
  O157     1.0000 0.12923  0.17080  0.28800  Biso   1.000  O
  O158     1.0000 0.08320  0.12740  0.33400  Biso   1.000  O
  C79      1.0000 0.12138  0.21783  0.24138  Biso   1.000  C
  H79      1.0000 0.12130  0.19590  0.23540  Biso   1.000  H
  C80      1.0000 0.01667  0.12560  0.33347  Biso   1.000  C
  H80      1.0000 0.02800  0.11110  0.32000  Biso   1.000  H
  O159     1.0000 0.11769  0.17310  0.29270  Biso   1.000  O
  O160     1.0000 0.08300  0.13610  0.32730  Biso   1.000  O
  O161     1.0000 0.37077  0.32920  0.28800  Biso   1.000  O
  O162     1.0000 0.41680  0.37260  0.33400  Biso   1.000  O
  C81      1.0000 0.37862  0.28217  0.24138  Biso   1.000  C
  H81      1.0000 0.37870  0.30410  0.23540  Biso   1.000  H
  C82      1.0000 0.48333  0.37440  0.33347  Biso   1.000  C
  H82      1.0000 0.47200  0.38890  0.32000  Biso   1.000  H
  O163     1.0000 0.38231  0.32690  0.29270  Biso   1.000  O
  O164     1.0000 0.41700  0.36390  0.32730  Biso   1.000  O
  O165     1.0000 0.37077  0.82920  0.78800  Biso   1.000  O
  O166     1.0000 0.41680  0.87260  0.83400  Biso   1.000  O
  C83      1.0000 0.37862  0.78217  0.74138  Biso   1.000  C
  H83      1.0000 0.37870  0.80410  0.73540  Biso   1.000  H
  C84      1.0000 0.48333  0.87440  0.83347  Biso   1.000  C
  H84      1.0000 0.47200  0.88890  0.82000  Biso   1.000  H
  O167     1.0000 0.38231  0.82690  0.79270  Biso   1.000  O
  O168     1.0000 0.41700  0.86390  0.82730  Biso   1.000  O
  O169     1.0000 0.87077  0.32920  0.78800  Biso   1.000  O
  O170     1.0000 0.91680  0.37260  0.83400  Biso   1.000  O
  C85      1.0000 0.87862  0.28217  0.74138  Biso   1.000  C
  H85      1.0000 0.87870  0.30410  0.73540  Biso   1.000  H
  C86      1.0000 0.98333  0.37440  0.83347  Biso   1.000  C
  H86      1.0000 0.97200  0.38890  0.82000  Biso   1.000  H
  O171     1.0000 0.88231  0.32690  0.79270  Biso   1.000  O
  O172     1.0000 0.91700  0.36390  0.82730  Biso   1.000  O
  O173     1.0000 0.87077  0.82920  0.28800  Biso   1.000  O
  O174     1.0000 0.91680  0.87260  0.33400  Biso   1.000  O
  C87      1.0000 0.87862  0.78217  0.24138  Biso   1.000  C
  H87      1.0000 0.87870  0.80410  0.23540  Biso   1.000  H
  C88      1.0000 0.98333  0.87440  0.33347  Biso   1.000  C
  H88      1.0000 0.97200  0.88890  0.32000  Biso   1.000  H
  O175     1.0000 0.88231  0.82690  0.29270  Biso   1.000  O
  O176     1.0000 0.91700  0.86390  0.32730  Biso   1.000  O
  O177     1.0000 0.62923  0.32920  0.71200  Biso   1.000  O
  O178     1.0000 0.58320  0.37260  0.66600  Biso   1.000  O
  C89      1.0000 0.62138  0.28217  0.75862  Biso   1.000  C
  H89      1.0000 0.62130  0.30410  0.76460  Biso   1.000  H
  C90      1.0000 0.51667  0.37440  0.66653  Biso   1.000  C
  H90      1.0000 0.52800  0.38890  0.68000  Biso   1.000  H
  O179     1.0000 0.61769  0.32690  0.70730  Biso   1.000  O
  O180     1.0000 0.58300  0.36390  0.67270  Biso   1.000  O
  O181     1.0000 0.62923  0.82920  0.21200  Biso   1.000  O
  O182     1.0000 0.58320  0.87260  0.16600  Biso   1.000  O
  C91      1.0000 0.62138  0.78217  0.25862  Biso   1.000  C
  H91      1.0000 0.62130  0.80410  0.26460  Biso   1.000  H
  C92      1.0000 0.51667  0.87440  0.16653  Biso   1.000  C
  H92      1.0000 0.52800  0.88890  0.18000  Biso   1.000  H
  O183     1.0000 0.61769  0.82690  0.20730  Biso   1.000  O
  O184     1.0000 0.58300  0.86390  0.17270  Biso   1.000  O
  O185     1.0000 0.12923  0.32920  0.21200  Biso   1.000  O
  O186     1.0000 0.08320  0.37260  0.16600  Biso   1.000  O
  C93      1.0000 0.12138  0.28217  0.25862  Biso   1.000  C
  H93      1.0000 0.12130  0.30410  0.26460  Biso   1.000  H
  C94      1.0000 0.01667  0.37440  0.16653  Biso   1.000  C
  H94      1.0000 0.02800  0.38890  0.18000  Biso   1.000  H
  O187     1.0000 0.11769  0.32690  0.20730  Biso   1.000  O
  O188     1.0000 0.08300  0.36390  0.17270  Biso   1.000  O
  O189     1.0000 0.12923  0.82920  0.71200  Biso   1.000  O
  O190     1.0000 0.08320  0.87260  0.66600  Biso   1.000  O
  C95      1.0000 0.12138  0.78217  0.75862  Biso   1.000  C
  H95      1.0000 0.12130  0.80410  0.76460  Biso   1.000  H
  C96      1.0000 0.01667  0.87440  0.66653  Biso   1.000  C
  H96      1.0000 0.02800  0.88890  0.68000  Biso   1.000  H
  O191     1.0000 0.11769  0.82690  0.70730  Biso   1.000  O
  O192     1.0000 0.08300  0.86390  0.67270  Biso   1.000  O
  O193     1.0000 0.37077  0.71200  0.32920  Biso   1.000  O
  O194     1.0000 0.41680  0.66600  0.37260  Biso   1.000  O
  C97      1.0000 0.37862  0.75862  0.28217  Biso   1.000  C
  H97      1.0000 0.37870  0.76460  0.30410  Biso   1.000  H
  C98      1.0000 0.48333  0.66653  0.37440  Biso   1.000  C
  H98      1.0000 0.47200  0.68000  0.38890  Biso   1.000  H
  O195     1.0000 0.38231  0.70730  0.32690  Biso   1.000  O
  O196     1.0000 0.41700  0.67270  0.36390  Biso   1.000  O
  O197     1.0000 0.37077  0.21200  0.82920  Biso   1.000  O
  O198     1.0000 0.41680  0.16600  0.87260  Biso   1.000  O
  C99      1.0000 0.37862  0.25862  0.78217  Biso   1.000  C
  H99      1.0000 0.37870  0.26460  0.80410  Biso   1.000  H
  C100     1.0000 0.48333  0.16653  0.87440  Biso   1.000  C
  H100     1.0000 0.47200  0.18000  0.88890  Biso   1.000  H
  O199     1.0000 0.38231  0.20730  0.82690  Biso   1.000  O
  O200     1.0000 0.41700  0.17270  0.86390  Biso   1.000  O
  O201     1.0000 0.87077  0.71200  0.82920  Biso   1.000  O
  O202     1.0000 0.91680  0.66600  0.87260  Biso   1.000  O
  C101     1.0000 0.87862  0.75862  0.78217  Biso   1.000  C
  H101     1.0000 0.87870  0.76460  0.80410  Biso   1.000  H
  C102     1.0000 0.98333  0.66653  0.87440  Biso   1.000  C
  H102     1.0000 0.97200  0.68000  0.88890  Biso   1.000  H
  O203     1.0000 0.88231  0.70730  0.82690  Biso   1.000  O
  O204     1.0000 0.91700  0.67270  0.86390  Biso   1.000  O
  O205     1.0000 0.87077  0.21200  0.32920  Biso   1.000  O
  O206     1.0000 0.91680  0.16600  0.37260  Biso   1.000  O
  C103     1.0000 0.87862  0.25862  0.28217  Biso   1.000  C
  H103     1.0000 0.87870  0.26460  0.30410  Biso   1.000  H
  C104     1.0000 0.98333  0.16653  0.37440  Biso   1.000  C
  H104     1.0000 0.97200  0.18000  0.38890  Biso   1.000  H
  O207     1.0000 0.88231  0.20730  0.32690  Biso   1.000  O
  O208     1.0000 0.91700  0.17270  0.36390  Biso   1.000  O
  O209     1.0000 0.62923  0.28800  0.32920  Biso   1.000  O
  O210     1.0000 0.58320  0.33400  0.37260  Biso   1.000  O
  C105     1.0000 0.62138  0.24138  0.28217  Biso   1.000  C
  H105     1.0000 0.62130  0.23540  0.30410  Biso   1.000  H
  C106     1.0000 0.51667  0.33347  0.37440  Biso   1.000  C
  H106     1.0000 0.52800  0.32000  0.38890  Biso   1.000  H
  O211     1.0000 0.61769  0.29270  0.32690  Biso   1.000  O
  O212     1.0000 0.58300  0.32730  0.36390  Biso   1.000  O
  O213     1.0000 0.62923  0.78800  0.82920  Biso   1.000  O
  O214     1.0000 0.58320  0.83400  0.87260  Biso   1.000  O
  C107     1.0000 0.62138  0.74138  0.78217  Biso   1.000  C
  H107     1.0000 0.62130  0.73540  0.80410  Biso   1.000  H
  C108     1.0000 0.51667  0.83347  0.87440  Biso   1.000  C
  H108     1.0000 0.52800  0.82000  0.88890  Biso   1.000  H
  O215     1.0000 0.61769  0.79270  0.82690  Biso   1.000  O
  O216     1.0000 0.58300  0.82730  0.86390  Biso   1.000  O
  O217     1.0000 0.12923  0.28800  0.82920  Biso   1.000  O
  O218     1.0000 0.08320  0.33400  0.87260  Biso   1.000  O
  C109     1.0000 0.12138  0.24138  0.78217  Biso   1.000  C
  H109     1.0000 0.12130  0.23540  0.80410  Biso   1.000  H
  C110     1.0000 0.01667  0.33347  0.87440  Biso   1.000  C
  H110     1.0000 0.02800  0.32000  0.88890  Biso   1.000  H
  O219     1.0000 0.11769  0.29270  0.82690  Biso   1.000  O
  O220     1.0000 0.08300  0.32730  0.86390  Biso   1.000  O
  O221     1.0000 0.12923  0.78800  0.32920  Biso   1.000  O
  O222     1.0000 0.08320  0.83400  0.37260  Biso   1.000  O
  C111     1.0000 0.12138  0.74138  0.28217  Biso   1.000  C
  H111     1.0000 0.12130  0.73540  0.30410  Biso   1.000  H
  C112     1.0000 0.01667  0.83347  0.37440  Biso   1.000  C
  H112     1.0000 0.02800  0.82000  0.38890  Biso   1.000  H
  O223     1.0000 0.11769  0.79270  0.32690  Biso   1.000  O
  O224     1.0000 0.08300  0.82730  0.36390  Biso   1.000  O
  O225     1.0000 0.37077  0.28800  0.67080  Biso   1.000  O
  O226     1.0000 0.41680  0.33400  0.62740  Biso   1.000  O
  C113     1.0000 0.37862  0.24138  0.71783  Biso   1.000  C
  H113     1.0000 0.37870  0.23540  0.69590  Biso   1.000  H
  C114     1.0000 0.48333  0.33347  0.62560  Biso   1.000  C
  H114     1.0000 0.47200  0.32000  0.61110  Biso   1.000  H
  O227     1.0000 0.38231  0.29270  0.67310  Biso   1.000  O
  O228     1.0000 0.41700  0.32730  0.63610  Biso   1.000  O
  O229     1.0000 0.37077  0.78800  0.17080  Biso   1.000  O
  O230     1.0000 0.41680  0.83400  0.12740  Biso   1.000  O
  C115     1.0000 0.37862  0.74138  0.21783  Biso   1.000  C
  H115     1.0000 0.37870  0.73540  0.19590  Biso   1.000  H
  C116     1.0000 0.48333  0.83347  0.12560  Biso   1.000  C
  H116     1.0000 0.47200  0.82000  0.11110  Biso   1.000  H
  O231     1.0000 0.38231  0.79270  0.17310  Biso   1.000  O
  O232     1.0000 0.41700  0.82730  0.13610  Biso   1.000  O
  O233     1.0000 0.87077  0.28800  0.17080  Biso   1.000  O
  O234     1.0000 0.91680  0.33400  0.12740  Biso   1.000  O
  C117     1.0000 0.87862  0.24138  0.21783  Biso   1.000  C
  H117     1.0000 0.87870  0.23540  0.19590  Biso   1.000  H
  C118     1.0000 0.98333  0.33347  0.12560  Biso   1.000  C
  H118     1.0000 0.97200  0.32000  0.11110  Biso   1.000  H
  O235     1.0000 0.88231  0.29270  0.17310  Biso   1.000  O
  O236     1.0000 0.91700  0.32730  0.13610  Biso   1.000  O
  O237     1.0000 0.87077  0.78800  0.67080  Biso   1.000  O
  O238     1.0000 0.91680  0.83400  0.62740  Biso   1.000  O
  C119     1.0000 0.87862  0.74138  0.71783  Biso   1.000  C
  H119     1.0000 0.87870  0.73540  0.69590  Biso   1.000  H
  C120     1.0000 0.98333  0.83347  0.62560  Biso   1.000  C
  H120     1.0000 0.97200  0.82000  0.61110  Biso   1.000  H
  O239     1.0000 0.88231  0.79270  0.67310  Biso   1.000  O
  O240     1.0000 0.91700  0.82730  0.63610  Biso   1.000  O
  O241     1.0000 0.62923  0.71200  0.67080  Biso   1.000  O
  O242     1.0000 0.58320  0.66600  0.62740  Biso   1.000  O
  C121     1.0000 0.62138  0.75862  0.71783  Biso   1.000  C
  H121     1.0000 0.62130  0.76460  0.69590  Biso   1.000  H
  C122     1.0000 0.51667  0.66653  0.62560  Biso   1.000  C
  H122     1.0000 0.52800  0.68000  0.61110  Biso   1.000  H
  O243     1.0000 0.61769  0.70730  0.67310  Biso   1.000  O
  O244     1.0000 0.58300  0.67270  0.63610  Biso   1.000  O
  O245     1.0000 0.62923  0.21200  0.17080  Biso   1.000  O
  O246     1.0000 0.58320  0.16600  0.12740  Biso   1.000  O
  C123     1.0000 0.62138  0.25862  0.21783  Biso   1.000  C
  H123     1.0000 0.62130  0.26460  0.19590  Biso   1.000  H
  C124     1.0000 0.51667  0.16653  0.12560  Biso   1.000  C
  H124     1.0000 0.52800  0.18000  0.11110  Biso   1.000  H
  O247     1.0000 0.61769  0.20730  0.17310  Biso   1.000  O
  O248     1.0000 0.58300  0.17270  0.13610  Biso   1.000  O
  O249     1.0000 0.12923  0.71200  0.17080  Biso   1.000  O
  O250     1.0000 0.08320  0.66600  0.12740  Biso   1.000  O
  C125     1.0000 0.12138  0.75862  0.21783  Biso   1.000  C
  H125     1.0000 0.12130  0.76460  0.19590  Biso   1.000  H
  C126     1.0000 0.01667  0.66653  0.12560  Biso   1.000  C
  H126     1.0000 0.02800  0.68000  0.11110  Biso   1.000  H
  O251     1.0000 0.11769  0.70730  0.17310  Biso   1.000  O
  O252     1.0000 0.08300  0.67270  0.13610  Biso   1.000  O
  O253     1.0000 0.12923  0.21200  0.67080  Biso   1.000  O
  O254     1.0000 0.08320  0.16600  0.62740  Biso   1.000  O
  C127     1.0000 0.12138  0.25862  0.71783  Biso   1.000  C
  H127     1.0000 0.12130  0.26460  0.69590  Biso   1.000  H
  C128     1.0000 0.01667  0.16653  0.62560  Biso   1.000  C
  H128     1.0000 0.02800  0.18000  0.61110  Biso   1.000  H
  O255     1.0000 0.11769  0.20730  0.67310  Biso   1.000  O
  O256     1.0000 0.08300  0.17270  0.63610  Biso   1.000  O
  O257     1.0000 0.71200  0.67080  0.62923  Biso   1.000  O
  O258     1.0000 0.66600  0.62740  0.58320  Biso   1.000  O
  C129     1.0000 0.75862  0.71783  0.62138  Biso   1.000  C
  H129     1.0000 0.76460  0.69590  0.62130  Biso   1.000  H
  C130     1.0000 0.66653  0.62560  0.51667  Biso   1.000  C
  H130     1.0000 0.68000  0.61110  0.52800  Biso   1.000  H
  O259     1.0000 0.70730  0.67310  0.61769  Biso   1.000  O
  O260     1.0000 0.67270  0.63610  0.58300  Biso   1.000  O
  O261     1.0000 0.71200  0.17080  0.12923  Biso   1.000  O
  O262     1.0000 0.66600  0.12740  0.08320  Biso   1.000  O
  C131     1.0000 0.75862  0.21783  0.12138  Biso   1.000  C
  H131     1.0000 0.76460  0.19590  0.12130  Biso   1.000  H
  C132     1.0000 0.66653  0.12560  0.01667  Biso   1.000  C
  H132     1.0000 0.68000  0.11110  0.02800  Biso   1.000  H
  O263     1.0000 0.70730  0.17310  0.11769  Biso   1.000  O
  O264     1.0000 0.67270  0.13610  0.08300  Biso   1.000  O
  O265     1.0000 0.21200  0.67080  0.12923  Biso   1.000  O
  O266     1.0000 0.16600  0.62740  0.08320  Biso   1.000  O
  C133     1.0000 0.25862  0.71783  0.12138  Biso   1.000  C
  H133     1.0000 0.26460  0.69590  0.12130  Biso   1.000  H
  C134     1.0000 0.16653  0.62560  0.01667  Biso   1.000  C
  H134     1.0000 0.18000  0.61110  0.02800  Biso   1.000  H
  O267     1.0000 0.20730  0.67310  0.11769  Biso   1.000  O
  O268     1.0000 0.17270  0.63610  0.08300  Biso   1.000  O
  O269     1.0000 0.21200  0.17080  0.62923  Biso   1.000  O
  O270     1.0000 0.16600  0.12740  0.58320  Biso   1.000  O
  C135     1.0000 0.25862  0.21783  0.62138  Biso   1.000  C
  H135     1.0000 0.26460  0.19590  0.62130  Biso   1.000  H
  C136     1.0000 0.16653  0.12560  0.51667  Biso   1.000  C
  H136     1.0000 0.18000  0.11110  0.52800  Biso   1.000  H
  O271     1.0000 0.20730  0.17310  0.61769  Biso   1.000  O
  O272     1.0000 0.17270  0.13610  0.58300  Biso   1.000  O
  O273     1.0000 0.28800  0.67080  0.37077  Biso   1.000  O
  O274     1.0000 0.33400  0.62740  0.41680  Biso   1.000  O
  C137     1.0000 0.24138  0.71783  0.37862  Biso   1.000  C
  H137     1.0000 0.23540  0.69590  0.37870  Biso   1.000  H
  C138     1.0000 0.33347  0.62560  0.48333  Biso   1.000  C
  H138     1.0000 0.32000  0.61110  0.47200  Biso   1.000  H
  O275     1.0000 0.29270  0.67310  0.38231  Biso   1.000  O
  O276     1.0000 0.32730  0.63610  0.41700  Biso   1.000  O
  O277     1.0000 0.28800  0.17080  0.87077  Biso   1.000  O
  O278     1.0000 0.33400  0.12740  0.91680  Biso   1.000  O
  C139     1.0000 0.24138  0.21783  0.87862  Biso   1.000  C
  H139     1.0000 0.23540  0.19590  0.87870  Biso   1.000  H
  C140     1.0000 0.33347  0.12560  0.98333  Biso   1.000  C
  H140     1.0000 0.32000  0.11110  0.97200  Biso   1.000  H
  O279     1.0000 0.29270  0.17310  0.88231  Biso   1.000  O
  O280     1.0000 0.32730  0.13610  0.91700  Biso   1.000  O
  O281     1.0000 0.78800  0.67080  0.87077  Biso   1.000  O
  O282     1.0000 0.83400  0.62740  0.91680  Biso   1.000  O
  C141     1.0000 0.74138  0.71783  0.87862  Biso   1.000  C
  H141     1.0000 0.73540  0.69590  0.87870  Biso   1.000  H
  C142     1.0000 0.83347  0.62560  0.98333  Biso   1.000  C
  H142     1.0000 0.82000  0.61110  0.97200  Biso   1.000  H
  O283     1.0000 0.79270  0.67310  0.88231  Biso   1.000  O
  O284     1.0000 0.82730  0.63610  0.91700  Biso   1.000  O
  O285     1.0000 0.78800  0.17080  0.37077  Biso   1.000  O
  O286     1.0000 0.83400  0.12740  0.41680  Biso   1.000  O
  C143     1.0000 0.74138  0.21783  0.37862  Biso   1.000  C
  H143     1.0000 0.73540  0.19590  0.37870  Biso   1.000  H
  C144     1.0000 0.83347  0.12560  0.48333  Biso   1.000  C
  H144     1.0000 0.82000  0.11110  0.47200  Biso   1.000  H
  O287     1.0000 0.79270  0.17310  0.38231  Biso   1.000  O
  O288     1.0000 0.82730  0.13610  0.41700  Biso   1.000  O
  O289     1.0000 0.28800  0.32920  0.62923  Biso   1.000  O
  O290     1.0000 0.33400  0.37260  0.58320  Biso   1.000  O
  C145     1.0000 0.24138  0.28217  0.62138  Biso   1.000  C
  H145     1.0000 0.23540  0.30410  0.62130  Biso   1.000  H
  C146     1.0000 0.33347  0.37440  0.51667  Biso   1.000  C
  H146     1.0000 0.32000  0.38890  0.52800  Biso   1.000  H
  O291     1.0000 0.29270  0.32690  0.61769  Biso   1.000  O
  O292     1.0000 0.32730  0.36390  0.58300  Biso   1.000  O
  O293     1.0000 0.28800  0.82920  0.12923  Biso   1.000  O
  O294     1.0000 0.33400  0.87260  0.08320  Biso   1.000  O
  C147     1.0000 0.24138  0.78217  0.12138  Biso   1.000  C
  H147     1.0000 0.23540  0.80410  0.12130  Biso   1.000  H
  C148     1.0000 0.33347  0.87440  0.01667  Biso   1.000  C
  H148     1.0000 0.32000  0.88890  0.02800  Biso   1.000  H
  O295     1.0000 0.29270  0.82690  0.11769  Biso   1.000  O
  O296     1.0000 0.32730  0.86390  0.08300  Biso   1.000  O
  O297     1.0000 0.78800  0.32920  0.12923  Biso   1.000  O
  O298     1.0000 0.83400  0.37260  0.08320  Biso   1.000  O
  C149     1.0000 0.74138  0.28217  0.12138  Biso   1.000  C
  H149     1.0000 0.73540  0.30410  0.12130  Biso   1.000  H
  C150     1.0000 0.83347  0.37440  0.01667  Biso   1.000  C
  H150     1.0000 0.82000  0.38890  0.02800  Biso   1.000  H
  O299     1.0000 0.79270  0.32690  0.11769  Biso   1.000  O
  O300     1.0000 0.82730  0.36390  0.08300  Biso   1.000  O
  O301     1.0000 0.78800  0.82920  0.62923  Biso   1.000  O
  O302     1.0000 0.83400  0.87260  0.58320  Biso   1.000  O
  C151     1.0000 0.74138  0.78217  0.62138  Biso   1.000  C
  H151     1.0000 0.73540  0.80410  0.62130  Biso   1.000  H
  C152     1.0000 0.83347  0.87440  0.51667  Biso   1.000  C
  H152     1.0000 0.82000  0.88890  0.52800  Biso   1.000  H
  O303     1.0000 0.79270  0.82690  0.61769  Biso   1.000  O
  O304     1.0000 0.82730  0.86390  0.58300  Biso   1.000  O
  O305     1.0000 0.71200  0.32920  0.37077  Biso   1.000  O
  O306     1.0000 0.66600  0.37260  0.41680  Biso   1.000  O
  C153     1.0000 0.75862  0.28217  0.37862  Biso   1.000  C
  H153     1.0000 0.76460  0.30410  0.37870  Biso   1.000  H
  C154     1.0000 0.66653  0.37440  0.48333  Biso   1.000  C
  H154     1.0000 0.68000  0.38890  0.47200  Biso   1.000  H
  O307     1.0000 0.70730  0.32690  0.38231  Biso   1.000  O
  O308     1.0000 0.67270  0.36390  0.41700  Biso   1.000  O
  O309     1.0000 0.71200  0.82920  0.87077  Biso   1.000  O
  O310     1.0000 0.66600  0.87260  0.91680  Biso   1.000  O
  C155     1.0000 0.75862  0.78217  0.87862  Biso   1.000  C
  H155     1.0000 0.76460  0.80410  0.87870  Biso   1.000  H
  C156     1.0000 0.66653  0.87440  0.98333  Biso   1.000  C
  H156     1.0000 0.68000  0.88890  0.97200  Biso   1.000  H
  O311     1.0000 0.70730  0.82690  0.88231  Biso   1.000  O
  O312     1.0000 0.67270  0.86390  0.91700  Biso   1.000  O
  O313     1.0000 0.21200  0.32920  0.87077  Biso   1.000  O
  O314     1.0000 0.16600  0.37260  0.91680  Biso   1.000  O
  C157     1.0000 0.25862  0.28217  0.87862  Biso   1.000  C
  H157     1.0000 0.26460  0.30410  0.87870  Biso   1.000  H
  C158     1.0000 0.16653  0.37440  0.98333  Biso   1.000  C
  H158     1.0000 0.18000  0.38890  0.97200  Biso   1.000  H
  O315     1.0000 0.20730  0.32690  0.88231  Biso   1.000  O
  O316     1.0000 0.17270  0.36390  0.91700  Biso   1.000  O
  O317     1.0000 0.21200  0.82920  0.37077  Biso   1.000  O
  O318     1.0000 0.16600  0.87260  0.41680  Biso   1.000  O
  C159     1.0000 0.25862  0.78217  0.37862  Biso   1.000  C
  H159     1.0000 0.26460  0.80410  0.37870  Biso   1.000  H
  C160     1.0000 0.16653  0.87440  0.48333  Biso   1.000  C
  H160     1.0000 0.18000  0.88890  0.47200  Biso   1.000  H
  O319     1.0000 0.20730  0.82690  0.38231  Biso   1.000  O
  O320     1.0000 0.17270  0.86390  0.41700  Biso   1.000  O
  O321     1.0000 0.67080  0.37077  0.28800  Biso   1.000  O
  O322     1.0000 0.62740  0.41680  0.33400  Biso   1.000  O
  C161     1.0000 0.71783  0.37862  0.24138  Biso   1.000  C
  H161     1.0000 0.69590  0.37870  0.23540  Biso   1.000  H
  C162     1.0000 0.62560  0.48333  0.33347  Biso   1.000  C
  H162     1.0000 0.61110  0.47200  0.32000  Biso   1.000  H
  O323     1.0000 0.67310  0.38231  0.29270  Biso   1.000  O
  O324     1.0000 0.63610  0.41700  0.32730  Biso   1.000  O
  O325     1.0000 0.67080  0.87077  0.78800  Biso   1.000  O
  O326     1.0000 0.62740  0.91680  0.83400  Biso   1.000  O
  C163     1.0000 0.71783  0.87862  0.74138  Biso   1.000  C
  H163     1.0000 0.69590  0.87870  0.73540  Biso   1.000  H
  C164     1.0000 0.62560  0.98333  0.83347  Biso   1.000  C
  H164     1.0000 0.61110  0.97200  0.82000  Biso   1.000  H
  O327     1.0000 0.67310  0.88231  0.79270  Biso   1.000  O
  O328     1.0000 0.63610  0.91700  0.82730  Biso   1.000  O
  O329     1.0000 0.17080  0.37077  0.78800  Biso   1.000  O
  O330     1.0000 0.12740  0.41680  0.83400  Biso   1.000  O
  C165     1.0000 0.21783  0.37862  0.74138  Biso   1.000  C
  H165     1.0000 0.19590  0.37870  0.73540  Biso   1.000  H
  C166     1.0000 0.12560  0.48333  0.83347  Biso   1.000  C
  H166     1.0000 0.11110  0.47200  0.82000  Biso   1.000  H
  O331     1.0000 0.17310  0.38231  0.79270  Biso   1.000  O
  O332     1.0000 0.13610  0.41700  0.82730  Biso   1.000  O
  O333     1.0000 0.17080  0.87077  0.28800  Biso   1.000  O
  O334     1.0000 0.12740  0.91680  0.33400  Biso   1.000  O
  C167     1.0000 0.21783  0.87862  0.24138  Biso   1.000  C
  H167     1.0000 0.19590  0.87870  0.23540  Biso   1.000  H
  C168     1.0000 0.12560  0.98333  0.33347  Biso   1.000  C
  H168     1.0000 0.11110  0.97200  0.32000  Biso   1.000  H
  O335     1.0000 0.17310  0.88231  0.29270  Biso   1.000  O
  O336     1.0000 0.13610  0.91700  0.32730  Biso   1.000  O
  O337     1.0000 0.67080  0.62923  0.71200  Biso   1.000  O
  O338     1.0000 0.62740  0.58320  0.66600  Biso   1.000  O
  C169     1.0000 0.71783  0.62138  0.75862  Biso   1.000  C
  H169     1.0000 0.69590  0.62130  0.76460  Biso   1.000  H
  C170     1.0000 0.62560  0.51667  0.66653  Biso   1.000  C
  H170     1.0000 0.61110  0.52800  0.68000  Biso   1.000  H
  O339     1.0000 0.67310  0.61769  0.70730  Biso   1.000  O
  O340     1.0000 0.63610  0.58300  0.67270  Biso   1.000  O
  O341     1.0000 0.67080  0.12923  0.21200  Biso   1.000  O
  O342     1.0000 0.62740  0.08320  0.16600  Biso   1.000  O
  C171     1.0000 0.71783  0.12138  0.25862  Biso   1.000  C
  H171     1.0000 0.69590  0.12130  0.26460  Biso   1.000  H
  C172     1.0000 0.62560  0.01667  0.16653  Biso   1.000  C
  H172     1.0000 0.61110  0.02800  0.18000  Biso   1.000  H
  O343     1.0000 0.67310  0.11769  0.20730  Biso   1.000  O
  O344     1.0000 0.63610  0.08300  0.17270  Biso   1.000  O
  O345     1.0000 0.17080  0.62923  0.21200  Biso   1.000  O
  O346     1.0000 0.12740  0.58320  0.16600  Biso   1.000  O
  C173     1.0000 0.21783  0.62138  0.25862  Biso   1.000  C
  H173     1.0000 0.19590  0.62130  0.26460  Biso   1.000  H
  C174     1.0000 0.12560  0.51667  0.16653  Biso   1.000  C
  H174     1.0000 0.11110  0.52800  0.18000  Biso   1.000  H
  O347     1.0000 0.17310  0.61769  0.20730  Biso   1.000  O
  O348     1.0000 0.13610  0.58300  0.17270  Biso   1.000  O
  O349     1.0000 0.17080  0.12923  0.71200  Biso   1.000  O
  O350     1.0000 0.12740  0.08320  0.66600  Biso   1.000  O
  C175     1.0000 0.21783  0.12138  0.75862  Biso   1.000  C
  H175     1.0000 0.19590  0.12130  0.76460  Biso   1.000  H
  C176     1.0000 0.12560  0.01667  0.66653  Biso   1.000  C
  H176     1.0000 0.11110  0.02800  0.68000  Biso   1.000  H
  O351     1.0000 0.17310  0.11769  0.70730  Biso   1.000  O
  O352     1.0000 0.13610  0.08300  0.67270  Biso   1.000  O
  O353     1.0000 0.32920  0.37077  0.71200  Biso   1.000  O
  O354     1.0000 0.37260  0.41680  0.66600  Biso   1.000  O
  C177     1.0000 0.28217  0.37862  0.75862  Biso   1.000  C
  H177     1.0000 0.30410  0.37870  0.76460  Biso   1.000  H
  C178     1.0000 0.37440  0.48333  0.66653  Biso   1.000  C
  H178     1.0000 0.38890  0.47200  0.68000  Biso   1.000  H
  O355     1.0000 0.32690  0.38231  0.70730  Biso   1.000  O
  O356     1.0000 0.36390  0.41700  0.67270  Biso   1.000  O
  O357     1.0000 0.32920  0.87077  0.21200  Biso   1.000  O
  O358     1.0000 0.37260  0.91680  0.16600  Biso   1.000  O
  C179     1.0000 0.28217  0.87862  0.25862  Biso   1.000  C
  H179     1.0000 0.30410  0.87870  0.26460  Biso   1.000  H
  C180     1.0000 0.37440  0.98333  0.16653  Biso   1.000  C
  H180     1.0000 0.38890  0.97200  0.18000  Biso   1.000  H
  O359     1.0000 0.32690  0.88231  0.20730  Biso   1.000  O
  O360     1.0000 0.36390  0.91700  0.17270  Biso   1.000  O
  O361     1.0000 0.82920  0.37077  0.21200  Biso   1.000  O
  O362     1.0000 0.87260  0.41680  0.16600  Biso   1.000  O
  C181     1.0000 0.78217  0.37862  0.25862  Biso   1.000  C
  H181     1.0000 0.80410  0.37870  0.26460  Biso   1.000  H
  C182     1.0000 0.87440  0.48333  0.16653  Biso   1.000  C
  H182     1.0000 0.88890  0.47200  0.18000  Biso   1.000  H
  O363     1.0000 0.82690  0.38231  0.20730  Biso   1.000  O
  O364     1.0000 0.86390  0.41700  0.17270  Biso   1.000  O
  O365     1.0000 0.82920  0.87077  0.71200  Biso   1.000  O
  O366     1.0000 0.87260  0.91680  0.66600  Biso   1.000  O
  C183     1.0000 0.78217  0.87862  0.75862  Biso   1.000  C
  H183     1.0000 0.80410  0.87870  0.76460  Biso   1.000  H
  C184     1.0000 0.87440  0.98333  0.66653  Biso   1.000  C
  H184     1.0000 0.88890  0.97200  0.68000  Biso   1.000  H
  O367     1.0000 0.82690  0.88231  0.70730  Biso   1.000  O
  O368     1.0000 0.86390  0.91700  0.67270  Biso   1.000  O
  O369     1.0000 0.32920  0.62923  0.28800  Biso   1.000  O
  O370     1.0000 0.37260  0.58320  0.33400  Biso   1.000  O
  C185     1.0000 0.28217  0.62138  0.24138  Biso   1.000  C
  H185     1.0000 0.30410  0.62130  0.23540  Biso   1.000  H
  C186     1.0000 0.37440  0.51667  0.33347  Biso   1.000  C
  H186     1.0000 0.38890  0.52800  0.32000  Biso   1.000  H
  O371     1.0000 0.32690  0.61769  0.29270  Biso   1.000  O
  O372     1.0000 0.36390  0.58300  0.32730  Biso   1.000  O
  O373     1.0000 0.32920  0.12923  0.78800  Biso   1.000  O
  O374     1.0000 0.37260  0.08320  0.83400  Biso   1.000  O
  C187     1.0000 0.28217  0.12138  0.74138  Biso   1.000  C
  H187     1.0000 0.30410  0.12130  0.73540  Biso   1.000  H
  C188     1.0000 0.37440  0.01667  0.83347  Biso   1.000  C
  H188     1.0000 0.38890  0.02800  0.82000  Biso   1.000  H
  O375     1.0000 0.32690  0.11769  0.79270  Biso   1.000  O
  O376     1.0000 0.36390  0.08300  0.82730  Biso   1.000  O
  O377     1.0000 0.82920  0.62923  0.78800  Biso   1.000  O
  O378     1.0000 0.87260  0.58320  0.83400  Biso   1.000  O
  C189     1.0000 0.78217  0.62138  0.74138  Biso   1.000  C
  H189     1.0000 0.80410  0.62130  0.73540  Biso   1.000  H
  C190     1.0000 0.87440  0.51667  0.83347  Biso   1.000  C
  H190     1.0000 0.88890  0.52800  0.82000  Biso   1.000  H
  O379     1.0000 0.82690  0.61769  0.79270  Biso   1.000  O
  O380     1.0000 0.86390  0.58300  0.82730  Biso   1.000  O
  O381     1.0000 0.82920  0.12923  0.28800  Biso   1.000  O
  O382     1.0000 0.87260  0.08320  0.33400  Biso   1.000  O
  C191     1.0000 0.78217  0.12138  0.24138  Biso   1.000  C
  H191     1.0000 0.80410  0.12130  0.23540  Biso   1.000  H
  C192     1.0000 0.87440  0.01667  0.33347  Biso   1.000  C
  H192     1.0000 0.88890  0.02800  0.32000  Biso   1.000  H
  O383     1.0000 0.82690  0.11769  0.29270  Biso   1.000  O
  O384     1.0000 0.86390  0.08300  0.32730  Biso   1.000  O
  O385     1.0000 0.28800  0.62923  0.32920  Biso   1.000  O
  O386     1.0000 0.33400  0.58320  0.37260  Biso   1.000  O
  C193     1.0000 0.24138  0.62138  0.28217  Biso   1.000  C
  H193     1.0000 0.23540  0.62130  0.30410  Biso   1.000  H
  C194     1.0000 0.33347  0.51667  0.37440  Biso   1.000  C
  H194     1.0000 0.32000  0.52800  0.38890  Biso   1.000  H
  O387     1.0000 0.29270  0.61769  0.32690  Biso   1.000  O
  O388     1.0000 0.32730  0.58300  0.36390  Biso   1.000  O
  O389     1.0000 0.28800  0.12923  0.82920  Biso   1.000  O
  O390     1.0000 0.33400  0.08320  0.87260  Biso   1.000  O
  C195     1.0000 0.24138  0.12138  0.78217  Biso   1.000  C
  H195     1.0000 0.23540  0.12130  0.80410  Biso   1.000  H
  C196     1.0000 0.33347  0.01667  0.87440  Biso   1.000  C
  H196     1.0000 0.32000  0.02800  0.88890  Biso   1.000  H
  O391     1.0000 0.29270  0.11769  0.82690  Biso   1.000  O
  O392     1.0000 0.32730  0.08300  0.86390  Biso   1.000  O
  O393     1.0000 0.78800  0.62923  0.82920  Biso   1.000  O
  O394     1.0000 0.83400  0.58320  0.87260  Biso   1.000  O
  C197     1.0000 0.74138  0.62138  0.78217  Biso   1.000  C
  H197     1.0000 0.73540  0.62130  0.80410  Biso   1.000  H
  C198     1.0000 0.83347  0.51667  0.87440  Biso   1.000  C
  H198     1.0000 0.82000  0.52800  0.88890  Biso   1.000  H
  O395     1.0000 0.79270  0.61769  0.82690  Biso   1.000  O
  O396     1.0000 0.82730  0.58300  0.86390  Biso   1.000  O
  O397     1.0000 0.78800  0.12923  0.32920  Biso   1.000  O
  O398     1.0000 0.83400  0.08320  0.37260  Biso   1.000  O
  C199     1.0000 0.74138  0.12138  0.28217  Biso   1.000  C
  H199     1.0000 0.73540  0.12130  0.30410  Biso   1.000  H
  C200     1.0000 0.83347  0.01667  0.37440  Biso   1.000  C
  H200     1.0000 0.82000  0.02800  0.38890  Biso   1.000  H
  O399     1.0000 0.79270  0.11769  0.32690  Biso   1.000  O
  O400     1.0000 0.82730  0.08300  0.36390  Biso   1.000  O
  O401     1.0000 0.71200  0.37077  0.32920  Biso   1.000  O
  O402     1.0000 0.66600  0.41680  0.37260  Biso   1.000  O
  C201     1.0000 0.75862  0.37862  0.28217  Biso   1.000  C
  H201     1.0000 0.76460  0.37870  0.30410  Biso   1.000  H
  C202     1.0000 0.66653  0.48333  0.37440  Biso   1.000  C
  H202     1.0000 0.68000  0.47200  0.38890  Biso   1.000  H
  O403     1.0000 0.70730  0.38231  0.32690  Biso   1.000  O
  O404     1.0000 0.67270  0.41700  0.36390  Biso   1.000  O
  O405     1.0000 0.71200  0.87077  0.82920  Biso   1.000  O
  O406     1.0000 0.66600  0.91680  0.87260  Biso   1.000  O
  C203     1.0000 0.75862  0.87862  0.78217  Biso   1.000  C
  H203     1.0000 0.76460  0.87870  0.80410  Biso   1.000  H
  C204     1.0000 0.66653  0.98333  0.87440  Biso   1.000  C
  H204     1.0000 0.68000  0.97200  0.88890  Biso   1.000  H
  O407     1.0000 0.70730  0.88231  0.82690  Biso   1.000  O
  O408     1.0000 0.67270  0.91700  0.86390  Biso   1.000  O
  O409     1.0000 0.21200  0.37077  0.82920  Biso   1.000  O
  O410     1.0000 0.16600  0.41680  0.87260  Biso   1.000  O
  C205     1.0000 0.25862  0.37862  0.78217  Biso   1.000  C
  H205     1.0000 0.26460  0.37870  0.80410  Biso   1.000  H
  C206     1.0000 0.16653  0.48333  0.87440  Biso   1.000  C
  H206     1.0000 0.18000  0.47200  0.88890  Biso   1.000  H
  O411     1.0000 0.20730  0.38231  0.82690  Biso   1.000  O
  O412     1.0000 0.17270  0.41700  0.86390  Biso   1.000  O
  O413     1.0000 0.21200  0.87077  0.32920  Biso   1.000  O
  O414     1.0000 0.16600  0.91680  0.37260  Biso   1.000  O
  C207     1.0000 0.25862  0.87862  0.28217  Biso   1.000  C
  H207     1.0000 0.26460  0.87870  0.30410  Biso   1.000  H
  C208     1.0000 0.16653  0.98333  0.37440  Biso   1.000  C
  H208     1.0000 0.18000  0.97200  0.38890  Biso   1.000  H
  O415     1.0000 0.20730  0.88231  0.32690  Biso   1.000  O
  O416     1.0000 0.17270  0.91700  0.36390  Biso   1.000  O
  O417     1.0000 0.71200  0.62923  0.67080  Biso   1.000  O
  O418     1.0000 0.66600  0.58320  0.62740  Biso   1.000  O
  C209     1.0000 0.75862  0.62138  0.71783  Biso   1.000  C
  H209     1.0000 0.76460  0.62130  0.69590  Biso   1.000  H
  C210     1.0000 0.66653  0.51667  0.62560  Biso   1.000  C
  H210     1.0000 0.68000  0.52800  0.61110  Biso   1.000  H
  O419     1.0000 0.70730  0.61769  0.67310  Biso   1.000  O
  O420     1.0000 0.67270  0.58300  0.63610  Biso   1.000  O
  O421     1.0000 0.71200  0.12923  0.17080  Biso   1.000  O
  O422     1.0000 0.66600  0.08320  0.12740  Biso   1.000  O
  C211     1.0000 0.75862  0.12138  0.21783  Biso   1.000  C
  H211     1.0000 0.76460  0.12130  0.19590  Biso   1.000  H
  C212     1.0000 0.66653  0.01667  0.12560  Biso   1.000  C
  H212     1.0000 0.68000  0.02800  0.11110  Biso   1.000  H
  O423     1.0000 0.70730  0.11769  0.17310  Biso   1.000  O
  O424     1.0000 0.67270  0.08300  0.13610  Biso   1.000  O
  O425     1.0000 0.21200  0.62923  0.17080  Biso   1.000  O
  O426     1.0000 0.16600  0.58320  0.12740  Biso   1.000  O
  C213     1.0000 0.25862  0.62138  0.21783  Biso   1.000  C
  H213     1.0000 0.26460  0.62130  0.19590  Biso   1.000  H
  C214     1.0000 0.16653  0.51667  0.12560  Biso   1.000  C
  H214     1.0000 0.18000  0.52800  0.11110  Biso   1.000  H
  O427     1.0000 0.20730  0.61769  0.17310  Biso   1.000  O
  O428     1.0000 0.17270  0.58300  0.13610  Biso   1.000  O
  O429     1.0000 0.21200  0.12923  0.67080  Biso   1.000  O
  O430     1.0000 0.16600  0.08320  0.62740  Biso   1.000  O
  C215     1.0000 0.25862  0.12138  0.71783  Biso   1.000  C
  H215     1.0000 0.26460  0.12130  0.69590  Biso   1.000  H
  C216     1.0000 0.16653  0.01667  0.62560  Biso   1.000  C
  H216     1.0000 0.18000  0.02800  0.61110  Biso   1.000  H
  O431     1.0000 0.20730  0.11769  0.67310  Biso   1.000  O
  O432     1.0000 0.17270  0.08300  0.63610  Biso   1.000  O
  O433     1.0000 0.28800  0.37077  0.67080  Biso   1.000  O
  O434     1.0000 0.33400  0.41680  0.62740  Biso   1.000  O
  C217     1.0000 0.24138  0.37862  0.71783  Biso   1.000  C
  H217     1.0000 0.23540  0.37870  0.69590  Biso   1.000  H
  C218     1.0000 0.33347  0.48333  0.62560  Biso   1.000  C
  H218     1.0000 0.32000  0.47200  0.61110  Biso   1.000  H
  O435     1.0000 0.29270  0.38231  0.67310  Biso   1.000  O
  O436     1.0000 0.32730  0.41700  0.63610  Biso   1.000  O
  O437     1.0000 0.28800  0.87077  0.17080  Biso   1.000  O
  O438     1.0000 0.33400  0.91680  0.12740  Biso   1.000  O
  C219     1.0000 0.24138  0.87862  0.21783  Biso   1.000  C
  H219     1.0000 0.23540  0.87870  0.19590  Biso   1.000  H
  C220     1.0000 0.33347  0.98333  0.12560  Biso   1.000  C
  H220     1.0000 0.32000  0.97200  0.11110  Biso   1.000  H
  O439     1.0000 0.29270  0.88231  0.17310  Biso   1.000  O
  O440     1.0000 0.32730  0.91700  0.13610  Biso   1.000  O
  O441     1.0000 0.78800  0.37077  0.17080  Biso   1.000  O
  O442     1.0000 0.83400  0.41680  0.12740  Biso   1.000  O
  C221     1.0000 0.74138  0.37862  0.21783  Biso   1.000  C
  H221     1.0000 0.73540  0.37870  0.19590  Biso   1.000  H
  C222     1.0000 0.83347  0.48333  0.12560  Biso   1.000  C
  H222     1.0000 0.82000  0.47200  0.11110  Biso   1.000  H
  O443     1.0000 0.79270  0.38231  0.17310  Biso   1.000  O
  O444     1.0000 0.82730  0.41700  0.13610  Biso   1.000  O
  O445     1.0000 0.78800  0.87077  0.67080  Biso   1.000  O
  O446     1.0000 0.83400  0.91680  0.62740  Biso   1.000  O
  C223     1.0000 0.74138  0.87862  0.71783  Biso   1.000  C
  H223     1.0000 0.73540  0.87870  0.69590  Biso   1.000  H
  C224     1.0000 0.83347  0.98333  0.62560  Biso   1.000  C
  H224     1.0000 0.82000  0.97200  0.61110  Biso   1.000  H
  O447     1.0000 0.79270  0.88231  0.67310  Biso   1.000  O
  O448     1.0000 0.82730  0.91700  0.63610  Biso   1.000  O
  O449     1.0000 0.32920  0.28800  0.62923  Biso   1.000  O
  O450     1.0000 0.37260  0.33400  0.58320  Biso   1.000  O
  C225     1.0000 0.28217  0.24138  0.62138  Biso   1.000  C
  H225     1.0000 0.30410  0.23540  0.62130  Biso   1.000  H
  C226     1.0000 0.37440  0.33347  0.51667  Biso   1.000  C
  H226     1.0000 0.38890  0.32000  0.52800  Biso   1.000  H
  O451     1.0000 0.32690  0.29270  0.61769  Biso   1.000  O
  O452     1.0000 0.36390  0.32730  0.58300  Biso   1.000  O
  O453     1.0000 0.32920  0.78800  0.12923  Biso   1.000  O
  O454     1.0000 0.37260  0.83400  0.08320  Biso   1.000  O
  C227     1.0000 0.28217  0.74138  0.12138  Biso   1.000  C
  H227     1.0000 0.30410  0.73540  0.12130  Biso   1.000  H
  C228     1.0000 0.37440  0.83347  0.01667  Biso   1.000  C
  H228     1.0000 0.38890  0.82000  0.02800  Biso   1.000  H
  O455     1.0000 0.32690  0.79270  0.11769  Biso   1.000  O
  O456     1.0000 0.36390  0.82730  0.08300  Biso   1.000  O
  O457     1.0000 0.82920  0.28800  0.12923  Biso   1.000  O
  O458     1.0000 0.87260  0.33400  0.08320  Biso   1.000  O
  C229     1.0000 0.78217  0.24138  0.12138  Biso   1.000  C
  H229     1.0000 0.80410  0.23540  0.12130  Biso   1.000  H
  C230     1.0000 0.87440  0.33347  0.01667  Biso   1.000  C
  H230     1.0000 0.88890  0.32000  0.02800  Biso   1.000  H
  O459     1.0000 0.82690  0.29270  0.11769  Biso   1.000  O
  O460     1.0000 0.86390  0.32730  0.08300  Biso   1.000  O
  O461     1.0000 0.82920  0.78800  0.62923  Biso   1.000  O
  O462     1.0000 0.87260  0.83400  0.58320  Biso   1.000  O
  C231     1.0000 0.78217  0.74138  0.62138  Biso   1.000  C
  H231     1.0000 0.80410  0.73540  0.62130  Biso   1.000  H
  C232     1.0000 0.87440  0.83347  0.51667  Biso   1.000  C
  H232     1.0000 0.88890  0.82000  0.52800  Biso   1.000  H
  O463     1.0000 0.82690  0.79270  0.61769  Biso   1.000  O
  O464     1.0000 0.86390  0.82730  0.58300  Biso   1.000  O
  O465     1.0000 0.32920  0.71200  0.37077  Biso   1.000  O
  O466     1.0000 0.37260  0.66600  0.41680  Biso   1.000  O
  C233     1.0000 0.28217  0.75862  0.37862  Biso   1.000  C
  H233     1.0000 0.30410  0.76460  0.37870  Biso   1.000  H
  C234     1.0000 0.37440  0.66653  0.48333  Biso   1.000  C
  H234     1.0000 0.38890  0.68000  0.47200  Biso   1.000  H
  O467     1.0000 0.32690  0.70730  0.38231  Biso   1.000  O
  O468     1.0000 0.36390  0.67270  0.41700  Biso   1.000  O
  O469     1.0000 0.32920  0.21200  0.87077  Biso   1.000  O
  O470     1.0000 0.37260  0.16600  0.91680  Biso   1.000  O
  C235     1.0000 0.28217  0.25862  0.87862  Biso   1.000  C
  H235     1.0000 0.30410  0.26460  0.87870  Biso   1.000  H
  C236     1.0000 0.37440  0.16653  0.98333  Biso   1.000  C
  H236     1.0000 0.38890  0.18000  0.97200  Biso   1.000  H
  O471     1.0000 0.32690  0.20730  0.88231  Biso   1.000  O
  O472     1.0000 0.36390  0.17270  0.91700  Biso   1.000  O
  O473     1.0000 0.82920  0.71200  0.87077  Biso   1.000  O
  O474     1.0000 0.87260  0.66600  0.91680  Biso   1.000  O
  C237     1.0000 0.78217  0.75862  0.87862  Biso   1.000  C
  H237     1.0000 0.80410  0.76460  0.87870  Biso   1.000  H
  C238     1.0000 0.87440  0.66653  0.98333  Biso   1.000  C
  H238     1.0000 0.88890  0.68000  0.97200  Biso   1.000  H
  O475     1.0000 0.82690  0.70730  0.88231  Biso   1.000  O
  O476     1.0000 0.86390  0.67270  0.91700  Biso   1.000  O
  O477     1.0000 0.82920  0.21200  0.37077  Biso   1.000  O
  O478     1.0000 0.87260  0.16600  0.41680  Biso   1.000  O
  C239     1.0000 0.78217  0.25862  0.37862  Biso   1.000  C
  H239     1.0000 0.80410  0.26460  0.37870  Biso   1.000  H
  C240     1.0000 0.87440  0.16653  0.48333  Biso   1.000  C
  H240     1.0000 0.88890  0.18000  0.47200  Biso   1.000  H
  O479     1.0000 0.82690  0.20730  0.38231  Biso   1.000  O
  O480     1.0000 0.86390  0.17270  0.41700  Biso   1.000  O
  O481     1.0000 0.67080  0.71200  0.62923  Biso   1.000  O
  O482     1.0000 0.62740  0.66600  0.58320  Biso   1.000  O
  C241     1.0000 0.71783  0.75862  0.62138  Biso   1.000  C
  H241     1.0000 0.69590  0.76460  0.62130  Biso   1.000  H
  C242     1.0000 0.62560  0.66653  0.51667  Biso   1.000  C
  H242     1.0000 0.61110  0.68000  0.52800  Biso   1.000  H
  O483     1.0000 0.67310  0.70730  0.61769  Biso   1.000  O
  O484     1.0000 0.63610  0.67270  0.58300  Biso   1.000  O
  O485     1.0000 0.67080  0.21200  0.12923  Biso   1.000  O
  O486     1.0000 0.62740  0.16600  0.08320  Biso   1.000  O
  C243     1.0000 0.71783  0.25862  0.12138  Biso   1.000  C
  H243     1.0000 0.69590  0.26460  0.12130  Biso   1.000  H
  C244     1.0000 0.62560  0.16653  0.01667  Biso   1.000  C
  H244     1.0000 0.61110  0.18000  0.02800  Biso   1.000  H
  O487     1.0000 0.67310  0.20730  0.11769  Biso   1.000  O
  O488     1.0000 0.63610  0.17270  0.08300  Biso   1.000  O
  O489     1.0000 0.17080  0.71200  0.12923  Biso   1.000  O
  O490     1.0000 0.12740  0.66600  0.08320  Biso   1.000  O
  C245     1.0000 0.21783  0.75862  0.12138  Biso   1.000  C
  H245     1.0000 0.19590  0.76460  0.12130  Biso   1.000  H
  C246     1.0000 0.12560  0.66653  0.01667  Biso   1.000  C
  H246     1.0000 0.11110  0.68000  0.02800  Biso   1.000  H
  O491     1.0000 0.17310  0.70730  0.11769  Biso   1.000  O
  O492     1.0000 0.13610  0.67270  0.08300  Biso   1.000  O
  O493     1.0000 0.17080  0.21200  0.62923  Biso   1.000  O
  O494     1.0000 0.12740  0.16600  0.58320  Biso   1.000  O
  C247     1.0000 0.21783  0.25862  0.62138  Biso   1.000  C
  H247     1.0000 0.19590  0.26460  0.62130  Biso   1.000  H
  C248     1.0000 0.12560  0.16653  0.51667  Biso   1.000  C
  H248     1.0000 0.11110  0.18000  0.52800  Biso   1.000  H
  O495     1.0000 0.17310  0.20730  0.61769  Biso   1.000  O
  O496     1.0000 0.13610  0.17270  0.58300  Biso   1.000  O
  O497     1.0000 0.67080  0.28800  0.37077  Biso   1.000  O
  O498     1.0000 0.62740  0.33400  0.41680  Biso   1.000  O
  C249     1.0000 0.71783  0.24138  0.37862  Biso   1.000  C
  H249     1.0000 0.69590  0.23540  0.37870  Biso   1.000  H
  C250     1.0000 0.62560  0.33347  0.48333  Biso   1.000  C
  H250     1.0000 0.61110  0.32000  0.47200  Biso   1.000  H
  O499     1.0000 0.67310  0.29270  0.38231  Biso   1.000  O
  O500     1.0000 0.63610  0.32730  0.41700  Biso   1.000  O
  O501     1.0000 0.67080  0.78800  0.87077  Biso   1.000  O
  O502     1.0000 0.62740  0.83400  0.91680  Biso   1.000  O
  C251     1.0000 0.71783  0.74138  0.87862  Biso   1.000  C
  H251     1.0000 0.69590  0.73540  0.87870  Biso   1.000  H
  C252     1.0000 0.62560  0.83347  0.98333  Biso   1.000  C
  H252     1.0000 0.61110  0.82000  0.97200  Biso   1.000  H
  O503     1.0000 0.67310  0.79270  0.88231  Biso   1.000  O
  O504     1.0000 0.63610  0.82730  0.91700  Biso   1.000  O
  O505     1.0000 0.17080  0.28800  0.87077  Biso   1.000  O
  O506     1.0000 0.12740  0.33400  0.91680  Biso   1.000  O
  C253     1.0000 0.21783  0.24138  0.87862  Biso   1.000  C
  H253     1.0000 0.19590  0.23540  0.87870  Biso   1.000  H
  C254     1.0000 0.12560  0.33347  0.98333  Biso   1.000  C
  H254     1.0000 0.11110  0.32000  0.97200  Biso   1.000  H
  O507     1.0000 0.17310  0.29270  0.88231  Biso   1.000  O
  O508     1.0000 0.13610  0.32730  0.91700  Biso   1.000  O
  O509     1.0000 0.17080  0.78800  0.37077  Biso   1.000  O
  O510     1.0000 0.12740  0.83400  0.41680  Biso   1.000  O
  C255     1.0000 0.21783  0.74138  0.37862  Biso   1.000  C
  H255     1.0000 0.19590  0.73540  0.37870  Biso   1.000  H
  C256     1.0000 0.12560  0.83347  0.48333  Biso   1.000  C
  H256     1.0000 0.11110  0.82000  0.47200  Biso   1.000  H
  O511     1.0000 0.17310  0.79270  0.38231  Biso   1.000  O
  O512     1.0000 0.13610  0.82730  0.41700  Biso   1.000  O
  O513     1.0000 0.62923  0.32920  0.28800  Biso   1.000  O
  O514     1.0000 0.58320  0.37260  0.33400  Biso   1.000  O
  C257     1.0000 0.62138  0.28217  0.24138  Biso   1.000  C
  H257     1.0000 0.62130  0.30410  0.23540  Biso   1.000  H
  C258     1.0000 0.51667  0.37440  0.33347  Biso   1.000  C
  H258     1.0000 0.52800  0.38890  0.32000  Biso   1.000  H
  O515     1.0000 0.61769  0.32690  0.29270  Biso   1.000  O
  O516     1.0000 0.58300  0.36390  0.32730  Biso   1.000  O
  O517     1.0000 0.62923  0.82920  0.78800  Biso   1.000  O
  O518     1.0000 0.58320  0.87260  0.83400  Biso   1.000  O
  C259     1.0000 0.62138  0.78217  0.74138  Biso   1.000  C
  H259     1.0000 0.62130  0.80410  0.73540  Biso   1.000  H
  C260     1.0000 0.51667  0.87440  0.83347  Biso   1.000  C
  H260     1.0000 0.52800  0.88890  0.82000  Biso   1.000  H
  O519     1.0000 0.61769  0.82690  0.79270  Biso   1.000  O
  O520     1.0000 0.58300  0.86390  0.82730  Biso   1.000  O
  O521     1.0000 0.12923  0.32920  0.78800  Biso   1.000  O
  O522     1.0000 0.08320  0.37260  0.83400  Biso   1.000  O
  C261     1.0000 0.12138  0.28217  0.74138  Biso   1.000  C
  H261     1.0000 0.12130  0.30410  0.73540  Biso   1.000  H
  C262     1.0000 0.01667  0.37440  0.83347  Biso   1.000  C
  H262     1.0000 0.02800  0.38890  0.82000  Biso   1.000  H
  O523     1.0000 0.11769  0.32690  0.79270  Biso   1.000  O
  O524     1.0000 0.08300  0.36390  0.82730  Biso   1.000  O
  O525     1.0000 0.12923  0.82920  0.28800  Biso   1.000  O
  O526     1.0000 0.08320  0.87260  0.33400  Biso   1.000  O
  C263     1.0000 0.12138  0.78217  0.24138  Biso   1.000  C
  H263     1.0000 0.12130  0.80410  0.23540  Biso   1.000  H
  C264     1.0000 0.01667  0.87440  0.33347  Biso   1.000  C
  H264     1.0000 0.02800  0.88890  0.32000  Biso   1.000  H
  O527     1.0000 0.11769  0.82690  0.29270  Biso   1.000  O
  O528     1.0000 0.08300  0.86390  0.32730  Biso   1.000  O
  O529     1.0000 0.37077  0.32920  0.71200  Biso   1.000  O
  O530     1.0000 0.41680  0.37260  0.66600  Biso   1.000  O
  C265     1.0000 0.37862  0.28217  0.75862  Biso   1.000  C
  H265     1.0000 0.37870  0.30410  0.76460  Biso   1.000  H
  C266     1.0000 0.48333  0.37440  0.66653  Biso   1.000  C
  H266     1.0000 0.47200  0.38890  0.68000  Biso   1.000  H
  O531     1.0000 0.38231  0.32690  0.70730  Biso   1.000  O
  O532     1.0000 0.41700  0.36390  0.67270  Biso   1.000  O
  O533     1.0000 0.37077  0.82920  0.21200  Biso   1.000  O
  O534     1.0000 0.41680  0.87260  0.16600  Biso   1.000  O
  C267     1.0000 0.37862  0.78217  0.25862  Biso   1.000  C
  H267     1.0000 0.37870  0.80410  0.26460  Biso   1.000  H
  C268     1.0000 0.48333  0.87440  0.16653  Biso   1.000  C
  H268     1.0000 0.47200  0.88890  0.18000  Biso   1.000  H
  O535     1.0000 0.38231  0.82690  0.20730  Biso   1.000  O
  O536     1.0000 0.41700  0.86390  0.17270  Biso   1.000  O
  O537     1.0000 0.87077  0.32920  0.21200  Biso   1.000  O
  O538     1.0000 0.91680  0.37260  0.16600  Biso   1.000  O
  C269     1.0000 0.87862  0.28217  0.25862  Biso   1.000  C
  H269     1.0000 0.87870  0.30410  0.26460  Biso   1.000  H
  C270     1.0000 0.98333  0.37440  0.16653  Biso   1.000  C
  H270     1.0000 0.97200  0.38890  0.18000  Biso   1.000  H
  O539     1.0000 0.88231  0.32690  0.20730  Biso   1.000  O
  O540     1.0000 0.91700  0.36390  0.17270  Biso   1.000  O
  O541     1.0000 0.87077  0.82920  0.71200  Biso   1.000  O
  O542     1.0000 0.91680  0.87260  0.66600  Biso   1.000  O
  C271     1.0000 0.87862  0.78217  0.75862  Biso   1.000  C
  H271     1.0000 0.87870  0.80410  0.76460  Biso   1.000  H
  C272     1.0000 0.98333  0.87440  0.66653  Biso   1.000  C
  H272     1.0000 0.97200  0.88890  0.68000  Biso   1.000  H
  O543     1.0000 0.88231  0.82690  0.70730  Biso   1.000  O
  O544     1.0000 0.91700  0.86390  0.67270  Biso   1.000  O
  O545     1.0000 0.62923  0.67080  0.71200  Biso   1.000  O
  O546     1.0000 0.58320  0.62740  0.66600  Biso   1.000  O
  C273     1.0000 0.62138  0.71783  0.75862  Biso   1.000  C
  H273     1.0000 0.62130  0.69590  0.76460  Biso   1.000  H
  C274     1.0000 0.51667  0.62560  0.66653  Biso   1.000  C
  H274     1.0000 0.52800  0.61110  0.68000  Biso   1.000  H
  O547     1.0000 0.61769  0.67310  0.70730  Biso   1.000  O
  O548     1.0000 0.58300  0.63610  0.67270  Biso   1.000  O
  O549     1.0000 0.62923  0.17080  0.21200  Biso   1.000  O
  O550     1.0000 0.58320  0.12740  0.16600  Biso   1.000  O
  C275     1.0000 0.62138  0.21783  0.25862  Biso   1.000  C
  H275     1.0000 0.62130  0.19590  0.26460  Biso   1.000  H
  C276     1.0000 0.51667  0.12560  0.16653  Biso   1.000  C
  H276     1.0000 0.52800  0.11110  0.18000  Biso   1.000  H
  O551     1.0000 0.61769  0.17310  0.20730  Biso   1.000  O
  O552     1.0000 0.58300  0.13610  0.17270  Biso   1.000  O
  O553     1.0000 0.12923  0.67080  0.21200  Biso   1.000  O
  O554     1.0000 0.08320  0.62740  0.16600  Biso   1.000  O
  C277     1.0000 0.12138  0.71783  0.25862  Biso   1.000  C
  H277     1.0000 0.12130  0.69590  0.26460  Biso   1.000  H
  C278     1.0000 0.01667  0.62560  0.16653  Biso   1.000  C
  H278     1.0000 0.02800  0.61110  0.18000  Biso   1.000  H
  O555     1.0000 0.11769  0.67310  0.20730  Biso   1.000  O
  O556     1.0000 0.08300  0.63610  0.17270  Biso   1.000  O
  O557     1.0000 0.12923  0.17080  0.71200  Biso   1.000  O
  O558     1.0000 0.08320  0.12740  0.66600  Biso   1.000  O
  C279     1.0000 0.12138  0.21783  0.75862  Biso   1.000  C
  H279     1.0000 0.12130  0.19590  0.76460  Biso   1.000  H
  C280     1.0000 0.01667  0.12560  0.66653  Biso   1.000  C
  H280     1.0000 0.02800  0.11110  0.68000  Biso   1.000  H
  O559     1.0000 0.11769  0.17310  0.70730  Biso   1.000  O
  O560     1.0000 0.08300  0.13610  0.67270  Biso   1.000  O
  O561     1.0000 0.37077  0.67080  0.28800  Biso   1.000  O
  O562     1.0000 0.41680  0.62740  0.33400  Biso   1.000  O
  C281     1.0000 0.37862  0.71783  0.24138  Biso   1.000  C
  H281     1.0000 0.37870  0.69590  0.23540  Biso   1.000  H
  C282     1.0000 0.48333  0.62560  0.33347  Biso   1.000  C
  H282     1.0000 0.47200  0.61110  0.32000  Biso   1.000  H
  O563     1.0000 0.38231  0.67310  0.29270  Biso   1.000  O
  O564     1.0000 0.41700  0.63610  0.32730  Biso   1.000  O
  O565     1.0000 0.37077  0.17080  0.78800  Biso   1.000  O
  O566     1.0000 0.41680  0.12740  0.83400  Biso   1.000  O
  C283     1.0000 0.37862  0.21783  0.74138  Biso   1.000  C
  H283     1.0000 0.37870  0.19590  0.73540  Biso   1.000  H
  C284     1.0000 0.48333  0.12560  0.83347  Biso   1.000  C
  H284     1.0000 0.47200  0.11110  0.82000  Biso   1.000  H
  O567     1.0000 0.38231  0.17310  0.79270  Biso   1.000  O
  O568     1.0000 0.41700  0.13610  0.82730  Biso   1.000  O
  O569     1.0000 0.87077  0.67080  0.78800  Biso   1.000  O
  O570     1.0000 0.91680  0.62740  0.83400  Biso   1.000  O
  C285     1.0000 0.87862  0.71783  0.74138  Biso   1.000  C
  H285     1.0000 0.87870  0.69590  0.73540  Biso   1.000  H
  C286     1.0000 0.98333  0.62560  0.83347  Biso   1.000  C
  H286     1.0000 0.97200  0.61110  0.82000  Biso   1.000  H
  O571     1.0000 0.88231  0.67310  0.79270  Biso   1.000  O
  O572     1.0000 0.91700  0.63610  0.82730  Biso   1.000  O
  O573     1.0000 0.87077  0.17080  0.28800  Biso   1.000  O
  O574     1.0000 0.91680  0.12740  0.33400  Biso   1.000  O
  C287     1.0000 0.87862  0.21783  0.24138  Biso   1.000  C
  H287     1.0000 0.87870  0.19590  0.23540  Biso   1.000  H
  C288     1.0000 0.98333  0.12560  0.33347  Biso   1.000  C
  H288     1.0000 0.97200  0.11110  0.32000  Biso   1.000  H
  O575     1.0000 0.88231  0.17310  0.29270  Biso   1.000  O
  O576     1.0000 0.91700  0.13610  0.32730  Biso   1.000  O
  O577     1.0000 0.62923  0.28800  0.67080  Biso   1.000  O
  O578     1.0000 0.58320  0.33400  0.62740  Biso   1.000  O
  C289     1.0000 0.62138  0.24138  0.71783  Biso   1.000  C
  H289     1.0000 0.62130  0.23540  0.69590  Biso   1.000  H
  C290     1.0000 0.51667  0.33347  0.62560  Biso   1.000  C
  H290     1.0000 0.52800  0.32000  0.61110  Biso   1.000  H
  O579     1.0000 0.61769  0.29270  0.67310  Biso   1.000  O
  O580     1.0000 0.58300  0.32730  0.63610  Biso   1.000  O
  O581     1.0000 0.62923  0.78800  0.17080  Biso   1.000  O
  O582     1.0000 0.58320  0.83400  0.12740  Biso   1.000  O
  C291     1.0000 0.62138  0.74138  0.21783  Biso   1.000  C
  H291     1.0000 0.62130  0.73540  0.19590  Biso   1.000  H
  C292     1.0000 0.51667  0.83347  0.12560  Biso   1.000  C
  H292     1.0000 0.52800  0.82000  0.11110  Biso   1.000  H
  O583     1.0000 0.61769  0.79270  0.17310  Biso   1.000  O
  O584     1.0000 0.58300  0.82730  0.13610  Biso   1.000  O
  O585     1.0000 0.12923  0.28800  0.17080  Biso   1.000  O
  O586     1.0000 0.08320  0.33400  0.12740  Biso   1.000  O
  C293     1.0000 0.12138  0.24138  0.21783  Biso   1.000  C
  H293     1.0000 0.12130  0.23540  0.19590  Biso   1.000  H
  C294     1.0000 0.01667  0.33347  0.12560  Biso   1.000  C
  H294     1.0000 0.02800  0.32000  0.11110  Biso   1.000  H
  O587     1.0000 0.11769  0.29270  0.17310  Biso   1.000  O
  O588     1.0000 0.08300  0.32730  0.13610  Biso   1.000  O
  O589     1.0000 0.12923  0.78800  0.67080  Biso   1.000  O
  O590     1.0000 0.08320  0.83400  0.62740  Biso   1.000  O
  C295     1.0000 0.12138  0.74138  0.71783  Biso   1.000  C
  H295     1.0000 0.12130  0.73540  0.69590  Biso   1.000  H
  C296     1.0000 0.01667  0.83347  0.62560  Biso   1.000  C
  H296     1.0000 0.02800  0.82000  0.61110  Biso   1.000  H
  O591     1.0000 0.11769  0.79270  0.67310  Biso   1.000  O
  O592     1.0000 0.08300  0.82730  0.63610  Biso   1.000  O
  O593     1.0000 0.37077  0.71200  0.67080  Biso   1.000  O
  O594     1.0000 0.41680  0.66600  0.62740  Biso   1.000  O
  C297     1.0000 0.37862  0.75862  0.71783  Biso   1.000  C
  H297     1.0000 0.37870  0.76460  0.69590  Biso   1.000  H
  C298     1.0000 0.48333  0.66653  0.62560  Biso   1.000  C
  H298     1.0000 0.47200  0.68000  0.61110  Biso   1.000  H
  O595     1.0000 0.38231  0.70730  0.67310  Biso   1.000  O
  O596     1.0000 0.41700  0.67270  0.63610  Biso   1.000  O
  O597     1.0000 0.37077  0.21200  0.17080  Biso   1.000  O
  O598     1.0000 0.41680  0.16600  0.12740  Biso   1.000  O
  C299     1.0000 0.37862  0.25862  0.21783  Biso   1.000  C
  H299     1.0000 0.37870  0.26460  0.19590  Biso   1.000  H
  C300     1.0000 0.48333  0.16653  0.12560  Biso   1.000  C
  H300     1.0000 0.47200  0.18000  0.11110  Biso   1.000  H
  O599     1.0000 0.38231  0.20730  0.17310  Biso   1.000  O
  O600     1.0000 0.41700  0.17270  0.13610  Biso   1.000  O
  O601     1.0000 0.87077  0.71200  0.17080  Biso   1.000  O
  O602     1.0000 0.91680  0.66600  0.12740  Biso   1.000  O
  C301     1.0000 0.87862  0.75862  0.21783  Biso   1.000  C
  H301     1.0000 0.87870  0.76460  0.19590  Biso   1.000  H
  C302     1.0000 0.98333  0.66653  0.12560  Biso   1.000  C
  H302     1.0000 0.97200  0.68000  0.11110  Biso   1.000  H
  O603     1.0000 0.88231  0.70730  0.17310  Biso   1.000  O
  O604     1.0000 0.91700  0.67270  0.13610  Biso   1.000  O
  O605     1.0000 0.87077  0.21200  0.67080  Biso   1.000  O
  O606     1.0000 0.91680  0.16600  0.62740  Biso   1.000  O
  C303     1.0000 0.87862  0.25862  0.71783  Biso   1.000  C
  H303     1.0000 0.87870  0.26460  0.69590  Biso   1.000  H
  C304     1.0000 0.98333  0.16653  0.62560  Biso   1.000  C
  H304     1.0000 0.97200  0.18000  0.61110  Biso   1.000  H
  O607     1.0000 0.88231  0.20730  0.67310  Biso   1.000  O
  O608     1.0000 0.91700  0.17270  0.63610  Biso   1.000  O
  O609     1.0000 0.62923  0.71200  0.32920  Biso   1.000  O
  O610     1.0000 0.58320  0.66600  0.37260  Biso   1.000  O
  C305     1.0000 0.62138  0.75862  0.28217  Biso   1.000  C
  H305     1.0000 0.62130  0.76460  0.30410  Biso   1.000  H
  C306     1.0000 0.51667  0.66653  0.37440  Biso   1.000  C
  H306     1.0000 0.52800  0.68000  0.38890  Biso   1.000  H
  O611     1.0000 0.61769  0.70730  0.32690  Biso   1.000  O
  O612     1.0000 0.58300  0.67270  0.36390  Biso   1.000  O
  O613     1.0000 0.62923  0.21200  0.82920  Biso   1.000  O
  O614     1.0000 0.58320  0.16600  0.87260  Biso   1.000  O
  C307     1.0000 0.62138  0.25862  0.78217  Biso   1.000  C
  H307     1.0000 0.62130  0.26460  0.80410  Biso   1.000  H
  C308     1.0000 0.51667  0.16653  0.87440  Biso   1.000  C
  H308     1.0000 0.52800  0.18000  0.88890  Biso   1.000  H
  O615     1.0000 0.61769  0.20730  0.82690  Biso   1.000  O
  O616     1.0000 0.58300  0.17270  0.86390  Biso   1.000  O
  O617     1.0000 0.12923  0.71200  0.82920  Biso   1.000  O
  O618     1.0000 0.08320  0.66600  0.87260  Biso   1.000  O
  C309     1.0000 0.12138  0.75862  0.78217  Biso   1.000  C
  H309     1.0000 0.12130  0.76460  0.80410  Biso   1.000  H
  C310     1.0000 0.01667  0.66653  0.87440  Biso   1.000  C
  H310     1.0000 0.02800  0.68000  0.88890  Biso   1.000  H
  O619     1.0000 0.11769  0.70730  0.82690  Biso   1.000  O
  O620     1.0000 0.08300  0.67270  0.86390  Biso   1.000  O
  O621     1.0000 0.12923  0.21200  0.32920  Biso   1.000  O
  O622     1.0000 0.08320  0.16600  0.37260  Biso   1.000  O
  C311     1.0000 0.12138  0.25862  0.28217  Biso   1.000  C
  H311     1.0000 0.12130  0.26460  0.30410  Biso   1.000  H
  C312     1.0000 0.01667  0.16653  0.37440  Biso   1.000  C
  H312     1.0000 0.02800  0.18000  0.38890  Biso   1.000  H
  O623     1.0000 0.11769  0.20730  0.32690  Biso   1.000  O
  O624     1.0000 0.08300  0.17270  0.36390  Biso   1.000  O
  O625     1.0000 0.37077  0.28800  0.32920  Biso   1.000  O
  O626     1.0000 0.41680  0.33400  0.37260  Biso   1.000  O
  C313     1.0000 0.37862  0.24138  0.28217  Biso   1.000  C
  H313     1.0000 0.37870  0.23540  0.30410  Biso   1.000  H
  C314     1.0000 0.48333  0.33347  0.37440  Biso   1.000  C
  H314     1.0000 0.47200  0.32000  0.38890  Biso   1.000  H
  O627     1.0000 0.38231  0.29270  0.32690  Biso   1.000  O
  O628     1.0000 0.41700  0.32730  0.36390  Biso   1.000  O
  O629     1.0000 0.37077  0.78800  0.82920  Biso   1.000  O
  O630     1.0000 0.41680  0.83400  0.87260  Biso   1.000  O
  C315     1.0000 0.37862  0.74138  0.78217  Biso   1.000  C
  H315     1.0000 0.37870  0.73540  0.80410  Biso   1.000  H
  C316     1.0000 0.48333  0.83347  0.87440  Biso   1.000  C
  H316     1.0000 0.47200  0.82000  0.88890  Biso   1.000  H
  O631     1.0000 0.38231  0.79270  0.82690  Biso   1.000  O
  O632     1.0000 0.41700  0.82730  0.86390  Biso   1.000  O
  O633     1.0000 0.87077  0.28800  0.82920  Biso   1.000  O
  O634     1.0000 0.91680  0.33400  0.87260  Biso   1.000  O
  C317     1.0000 0.87862  0.24138  0.78217  Biso   1.000  C
  H317     1.0000 0.87870  0.23540  0.80410  Biso   1.000  H
  C318     1.0000 0.98333  0.33347  0.87440  Biso   1.000  C
  H318     1.0000 0.97200  0.32000  0.88890  Biso   1.000  H
  O635     1.0000 0.88231  0.29270  0.82690  Biso   1.000  O
  O636     1.0000 0.91700  0.32730  0.86390  Biso   1.000  O
  O637     1.0000 0.87077  0.78800  0.32920  Biso   1.000  O
  O638     1.0000 0.91680  0.83400  0.37260  Biso   1.000  O
  C319     1.0000 0.87862  0.74138  0.28217  Biso   1.000  C
  H319     1.0000 0.87870  0.73540  0.30410  Biso   1.000  H
  C320     1.0000 0.98333  0.83347  0.37440  Biso   1.000  C
  H320     1.0000 0.97200  0.82000  0.38890  Biso   1.000  H
  O639     1.0000 0.88231  0.79270  0.32690  Biso   1.000  O
  O640     1.0000 0.91700  0.82730  0.36390  Biso   1.000  O
  O641     1.0000 0.28800  0.32920  0.37077  Biso   1.000  O
  O642     1.0000 0.33400  0.37260  0.41680  Biso   1.000  O
  C321     1.0000 0.24138  0.28217  0.37862  Biso   1.000  C
  H321     1.0000 0.23540  0.30410  0.37870  Biso   1.000  H
  C322     1.0000 0.33347  0.37440  0.48333  Biso   1.000  C
  H322     1.0000 0.32000  0.38890  0.47200  Biso   1.000  H
  O643     1.0000 0.29270  0.32690  0.38231  Biso   1.000  O
  O644     1.0000 0.32730  0.36390  0.41700  Biso   1.000  O
  O645     1.0000 0.28800  0.82920  0.87077  Biso   1.000  O
  O646     1.0000 0.33400  0.87260  0.91680  Biso   1.000  O
  C323     1.0000 0.24138  0.78217  0.87862  Biso   1.000  C
  H323     1.0000 0.23540  0.80410  0.87870  Biso   1.000  H
  C324     1.0000 0.33347  0.87440  0.98333  Biso   1.000  C
  H324     1.0000 0.32000  0.88890  0.97200  Biso   1.000  H
  O647     1.0000 0.29270  0.82690  0.88231  Biso   1.000  O
  O648     1.0000 0.32730  0.86390  0.91700  Biso   1.000  O
  O649     1.0000 0.78800  0.32920  0.87077  Biso   1.000  O
  O650     1.0000 0.83400  0.37260  0.91680  Biso   1.000  O
  C325     1.0000 0.74138  0.28217  0.87862  Biso   1.000  C
  H325     1.0000 0.73540  0.30410  0.87870  Biso   1.000  H
  C326     1.0000 0.83347  0.37440  0.98333  Biso   1.000  C
  H326     1.0000 0.82000  0.38890  0.97200  Biso   1.000  H
  O651     1.0000 0.79270  0.32690  0.88231  Biso   1.000  O
  O652     1.0000 0.82730  0.36390  0.91700  Biso   1.000  O
  O653     1.0000 0.78800  0.82920  0.37077  Biso   1.000  O
  O654     1.0000 0.83400  0.87260  0.41680  Biso   1.000  O
  C327     1.0000 0.74138  0.78217  0.37862  Biso   1.000  C
  H327     1.0000 0.73540  0.80410  0.37870  Biso   1.000  H
  C328     1.0000 0.83347  0.87440  0.48333  Biso   1.000  C
  H328     1.0000 0.82000  0.88890  0.47200  Biso   1.000  H
  O655     1.0000 0.79270  0.82690  0.38231  Biso   1.000  O
  O656     1.0000 0.82730  0.86390  0.41700  Biso   1.000  O
  O657     1.0000 0.71200  0.32920  0.62923  Biso   1.000  O
  O658     1.0000 0.66600  0.37260  0.58320  Biso   1.000  O
  C329     1.0000 0.75862  0.28217  0.62138  Biso   1.000  C
  H329     1.0000 0.76460  0.30410  0.62130  Biso   1.000  H
  C330     1.0000 0.66653  0.37440  0.51667  Biso   1.000  C
  H330     1.0000 0.68000  0.38890  0.52800  Biso   1.000  H
  O659     1.0000 0.70730  0.32690  0.61769  Biso   1.000  O
  O660     1.0000 0.67270  0.36390  0.58300  Biso   1.000  O
  O661     1.0000 0.71200  0.82920  0.12923  Biso   1.000  O
  O662     1.0000 0.66600  0.87260  0.08320  Biso   1.000  O
  C331     1.0000 0.75862  0.78217  0.12138  Biso   1.000  C
  H331     1.0000 0.76460  0.80410  0.12130  Biso   1.000  H
  C332     1.0000 0.66653  0.87440  0.01667  Biso   1.000  C
  H332     1.0000 0.68000  0.88890  0.02800  Biso   1.000  H
  O663     1.0000 0.70730  0.82690  0.11769  Biso   1.000  O
  O664     1.0000 0.67270  0.86390  0.08300  Biso   1.000  O
  O665     1.0000 0.21200  0.32920  0.12923  Biso   1.000  O
  O666     1.0000 0.16600  0.37260  0.08320  Biso   1.000  O
  C333     1.0000 0.25862  0.28217  0.12138  Biso   1.000  C
  H333     1.0000 0.26460  0.30410  0.12130  Biso   1.000  H
  C334     1.0000 0.16653  0.37440  0.01667  Biso   1.000  C
  H334     1.0000 0.18000  0.38890  0.02800  Biso   1.000  H
  O667     1.0000 0.20730  0.32690  0.11769  Biso   1.000  O
  O668     1.0000 0.17270  0.36390  0.08300  Biso   1.000  O
  O669     1.0000 0.21200  0.82920  0.62923  Biso   1.000  O
  O670     1.0000 0.16600  0.87260  0.58320  Biso   1.000  O
  C335     1.0000 0.25862  0.78217  0.62138  Biso   1.000  C
  H335     1.0000 0.26460  0.80410  0.62130  Biso   1.000  H
  C336     1.0000 0.16653  0.87440  0.51667  Biso   1.000  C
  H336     1.0000 0.18000  0.88890  0.52800  Biso   1.000  H
  O671     1.0000 0.20730  0.82690  0.61769  Biso   1.000  O
  O672     1.0000 0.17270  0.86390  0.58300  Biso   1.000  O
  O673     1.0000 0.71200  0.67080  0.37077  Biso   1.000  O
  O674     1.0000 0.66600  0.62740  0.41680  Biso   1.000  O
  C337     1.0000 0.75862  0.71783  0.37862  Biso   1.000  C
  H337     1.0000 0.76460  0.69590  0.37870  Biso   1.000  H
  C338     1.0000 0.66653  0.62560  0.48333  Biso   1.000  C
  H338     1.0000 0.68000  0.61110  0.47200  Biso   1.000  H
  O675     1.0000 0.70730  0.67310  0.38231  Biso   1.000  O
  O676     1.0000 0.67270  0.63610  0.41700  Biso   1.000  O
  O677     1.0000 0.71200  0.17080  0.87077  Biso   1.000  O
  O678     1.0000 0.66600  0.12740  0.91680  Biso   1.000  O
  C339     1.0000 0.75862  0.21783  0.87862  Biso   1.000  C
  H339     1.0000 0.76460  0.19590  0.87870  Biso   1.000  H
  C340     1.0000 0.66653  0.12560  0.98333  Biso   1.000  C
  H340     1.0000 0.68000  0.11110  0.97200  Biso   1.000  H
  O679     1.0000 0.70730  0.17310  0.88231  Biso   1.000  O
  O680     1.0000 0.67270  0.13610  0.91700  Biso   1.000  O
  O681     1.0000 0.21200  0.67080  0.87077  Biso   1.000  O
  O682     1.0000 0.16600  0.62740  0.91680  Biso   1.000  O
  C341     1.0000 0.25862  0.71783  0.87862  Biso   1.000  C
  H341     1.0000 0.26460  0.69590  0.87870  Biso   1.000  H
  C342     1.0000 0.16653  0.62560  0.98333  Biso   1.000  C
  H342     1.0000 0.18000  0.61110  0.97200  Biso   1.000  H
  O683     1.0000 0.20730  0.67310  0.88231  Biso   1.000  O
  O684     1.0000 0.17270  0.63610  0.91700  Biso   1.000  O
  O685     1.0000 0.21200  0.17080  0.37077  Biso   1.000  O
  O686     1.0000 0.16600  0.12740  0.41680  Biso   1.000  O
  C343     1.0000 0.25862  0.21783  0.37862  Biso   1.000  C
  H343     1.0000 0.26460  0.19590  0.37870  Biso   1.000  H
  C344     1.0000 0.16653  0.12560  0.48333  Biso   1.000  C
  H344     1.0000 0.18000  0.11110  0.47200  Biso   1.000  H
  O687     1.0000 0.20730  0.17310  0.38231  Biso   1.000  O
  O688     1.0000 0.17270  0.13610  0.41700  Biso   1.000  O
  O689     1.0000 0.28800  0.67080  0.62923  Biso   1.000  O
  O690     1.0000 0.33400  0.62740  0.58320  Biso   1.000  O
  C345     1.0000 0.24138  0.71783  0.62138  Biso   1.000  C
  H345     1.0000 0.23540  0.69590  0.62130  Biso   1.000  H
  C346     1.0000 0.33347  0.62560  0.51667  Biso   1.000  C
  H346     1.0000 0.32000  0.61110  0.52800  Biso   1.000  H
  O691     1.0000 0.29270  0.67310  0.61769  Biso   1.000  O
  O692     1.0000 0.32730  0.63610  0.58300  Biso   1.000  O
  O693     1.0000 0.28800  0.17080  0.12923  Biso   1.000  O
  O694     1.0000 0.33400  0.12740  0.08320  Biso   1.000  O
  C347     1.0000 0.24138  0.21783  0.12138  Biso   1.000  C
  H347     1.0000 0.23540  0.19590  0.12130  Biso   1.000  H
  C348     1.0000 0.33347  0.12560  0.01667  Biso   1.000  C
  H348     1.0000 0.32000  0.11110  0.02800  Biso   1.000  H
  O695     1.0000 0.29270  0.17310  0.11769  Biso   1.000  O
  O696     1.0000 0.32730  0.13610  0.08300  Biso   1.000  O
  O697     1.0000 0.78800  0.67080  0.12923  Biso   1.000  O
  O698     1.0000 0.83400  0.62740  0.08320  Biso   1.000  O
  C349     1.0000 0.74138  0.71783  0.12138  Biso   1.000  C
  H349     1.0000 0.73540  0.69590  0.12130  Biso   1.000  H
  C350     1.0000 0.83347  0.62560  0.01667  Biso   1.000  C
  H350     1.0000 0.82000  0.61110  0.02800  Biso   1.000  H
  O699     1.0000 0.79270  0.67310  0.11769  Biso   1.000  O
  O700     1.0000 0.82730  0.63610  0.08300  Biso   1.000  O
  O701     1.0000 0.78800  0.17080  0.62923  Biso   1.000  O
  O702     1.0000 0.83400  0.12740  0.58320  Biso   1.000  O
  C351     1.0000 0.74138  0.21783  0.62138  Biso   1.000  C
  H351     1.0000 0.73540  0.19590  0.62130  Biso   1.000  H
  C352     1.0000 0.83347  0.12560  0.51667  Biso   1.000  C
  H352     1.0000 0.82000  0.11110  0.52800  Biso   1.000  H
  O703     1.0000 0.79270  0.17310  0.61769  Biso   1.000  O
  O704     1.0000 0.82730  0.13610  0.58300  Biso   1.000  O
  O705     1.0000 0.32920  0.62923  0.71200  Biso   1.000  O
  O706     1.0000 0.37260  0.58320  0.66600  Biso   1.000  O
  C353     1.0000 0.28217  0.62138  0.75862  Biso   1.000  C
  H353     1.0000 0.30410  0.62130  0.76460  Biso   1.000  H
  C354     1.0000 0.37440  0.51667  0.66653  Biso   1.000  C
  H354     1.0000 0.38890  0.52800  0.68000  Biso   1.000  H
  O707     1.0000 0.32690  0.61769  0.70730  Biso   1.000  O
  O708     1.0000 0.36390  0.58300  0.67270  Biso   1.000  O
  O709     1.0000 0.32920  0.12923  0.21200  Biso   1.000  O
  O710     1.0000 0.37260  0.08320  0.16600  Biso   1.000  O
  C355     1.0000 0.28217  0.12138  0.25862  Biso   1.000  C
  H355     1.0000 0.30410  0.12130  0.26460  Biso   1.000  H
  C356     1.0000 0.37440  0.01667  0.16653  Biso   1.000  C
  H356     1.0000 0.38890  0.02800  0.18000  Biso   1.000  H
  O711     1.0000 0.32690  0.11769  0.20730  Biso   1.000  O
  O712     1.0000 0.36390  0.08300  0.17270  Biso   1.000  O
  O713     1.0000 0.82920  0.62923  0.21200  Biso   1.000  O
  O714     1.0000 0.87260  0.58320  0.16600  Biso   1.000  O
  C357     1.0000 0.78217  0.62138  0.25862  Biso   1.000  C
  H357     1.0000 0.80410  0.62130  0.26460  Biso   1.000  H
  C358     1.0000 0.87440  0.51667  0.16653  Biso   1.000  C
  H358     1.0000 0.88890  0.52800  0.18000  Biso   1.000  H
  O715     1.0000 0.82690  0.61769  0.20730  Biso   1.000  O
  O716     1.0000 0.86390  0.58300  0.17270  Biso   1.000  O
  O717     1.0000 0.82920  0.12923  0.71200  Biso   1.000  O
  O718     1.0000 0.87260  0.08320  0.66600  Biso   1.000  O
  C359     1.0000 0.78217  0.12138  0.75862  Biso   1.000  C
  H359     1.0000 0.80410  0.12130  0.76460  Biso   1.000  H
  C360     1.0000 0.87440  0.01667  0.66653  Biso   1.000  C
  H360     1.0000 0.88890  0.02800  0.68000  Biso   1.000  H
  O719     1.0000 0.82690  0.11769  0.70730  Biso   1.000  O
  O720     1.0000 0.86390  0.08300  0.67270  Biso   1.000  O
  O721     1.0000 0.32920  0.37077  0.28800  Biso   1.000  O
  O722     1.0000 0.37260  0.41680  0.33400  Biso   1.000  O
  C361     1.0000 0.28217  0.37862  0.24138  Biso   1.000  C
  H361     1.0000 0.30410  0.37870  0.23540  Biso   1.000  H
  C362     1.0000 0.37440  0.48333  0.33347  Biso   1.000  C
  H362     1.0000 0.38890  0.47200  0.32000  Biso   1.000  H
  O723     1.0000 0.32690  0.38231  0.29270  Biso   1.000  O
  O724     1.0000 0.36390  0.41700  0.32730  Biso   1.000  O
  O725     1.0000 0.32920  0.87077  0.78800  Biso   1.000  O
  O726     1.0000 0.37260  0.91680  0.83400  Biso   1.000  O
  C363     1.0000 0.28217  0.87862  0.74138  Biso   1.000  C
  H363     1.0000 0.30410  0.87870  0.73540  Biso   1.000  H
  C364     1.0000 0.37440  0.98333  0.83347  Biso   1.000  C
  H364     1.0000 0.38890  0.97200  0.82000  Biso   1.000  H
  O727     1.0000 0.32690  0.88231  0.79270  Biso   1.000  O
  O728     1.0000 0.36390  0.91700  0.82730  Biso   1.000  O
  O729     1.0000 0.82920  0.37077  0.78800  Biso   1.000  O
  O730     1.0000 0.87260  0.41680  0.83400  Biso   1.000  O
  C365     1.0000 0.78217  0.37862  0.74138  Biso   1.000  C
  H365     1.0000 0.80410  0.37870  0.73540  Biso   1.000  H
  C366     1.0000 0.87440  0.48333  0.83347  Biso   1.000  C
  H366     1.0000 0.88890  0.47200  0.82000  Biso   1.000  H
  O731     1.0000 0.82690  0.38231  0.79270  Biso   1.000  O
  O732     1.0000 0.86390  0.41700  0.82730  Biso   1.000  O
  O733     1.0000 0.82920  0.87077  0.28800  Biso   1.000  O
  O734     1.0000 0.87260  0.91680  0.33400  Biso   1.000  O
  C367     1.0000 0.78217  0.87862  0.24138  Biso   1.000  C
  H367     1.0000 0.80410  0.87870  0.23540  Biso   1.000  H
  C368     1.0000 0.87440  0.98333  0.33347  Biso   1.000  C
  H368     1.0000 0.88890  0.97200  0.32000  Biso   1.000  H
  O735     1.0000 0.82690  0.88231  0.29270  Biso   1.000  O
  O736     1.0000 0.86390  0.91700  0.32730  Biso   1.000  O
  O737     1.0000 0.67080  0.62923  0.28800  Biso   1.000  O
  O738     1.0000 0.62740  0.58320  0.33400  Biso   1.000  O
  C369     1.0000 0.71783  0.62138  0.24138  Biso   1.000  C
  H369     1.0000 0.69590  0.62130  0.23540  Biso   1.000  H
  C370     1.0000 0.62560  0.51667  0.33347  Biso   1.000  C
  H370     1.0000 0.61110  0.52800  0.32000  Biso   1.000  H
  O739     1.0000 0.67310  0.61769  0.29270  Biso   1.000  O
  O740     1.0000 0.63610  0.58300  0.32730  Biso   1.000  O
  O741     1.0000 0.67080  0.12923  0.78800  Biso   1.000  O
  O742     1.0000 0.62740  0.08320  0.83400  Biso   1.000  O
  C371     1.0000 0.71783  0.12138  0.74138  Biso   1.000  C
  H371     1.0000 0.69590  0.12130  0.73540  Biso   1.000  H
  C372     1.0000 0.62560  0.01667  0.83347  Biso   1.000  C
  H372     1.0000 0.61110  0.02800  0.82000  Biso   1.000  H
  O743     1.0000 0.67310  0.11769  0.79270  Biso   1.000  O
  O744     1.0000 0.63610  0.08300  0.82730  Biso   1.000  O
  O745     1.0000 0.17080  0.62923  0.78800  Biso   1.000  O
  O746     1.0000 0.12740  0.58320  0.83400  Biso   1.000  O
  C373     1.0000 0.21783  0.62138  0.74138  Biso   1.000  C
  H373     1.0000 0.19590  0.62130  0.73540  Biso   1.000  H
  C374     1.0000 0.12560  0.51667  0.83347  Biso   1.000  C
  H374     1.0000 0.11110  0.52800  0.82000  Biso   1.000  H
  O747     1.0000 0.17310  0.61769  0.79270  Biso   1.000  O
  O748     1.0000 0.13610  0.58300  0.82730  Biso   1.000  O
  O749     1.0000 0.17080  0.12923  0.28800  Biso   1.000  O
  O750     1.0000 0.12740  0.08320  0.33400  Biso   1.000  O
  C375     1.0000 0.21783  0.12138  0.24138  Biso   1.000  C
  H375     1.0000 0.19590  0.12130  0.23540  Biso   1.000  H
  C376     1.0000 0.12560  0.01667  0.33347  Biso   1.000  C
  H376     1.0000 0.11110  0.02800  0.32000  Biso   1.000  H
  O751     1.0000 0.17310  0.11769  0.29270  Biso   1.000  O
  O752     1.0000 0.13610  0.08300  0.32730  Biso   1.000  O
  O753     1.0000 0.67080  0.37077  0.71200  Biso   1.000  O
  O754     1.0000 0.62740  0.41680  0.66600  Biso   1.000  O
  C377     1.0000 0.71783  0.37862  0.75862  Biso   1.000  C
  H377     1.0000 0.69590  0.37870  0.76460  Biso   1.000  H
  C378     1.0000 0.62560  0.48333  0.66653  Biso   1.000  C
  H378     1.0000 0.61110  0.47200  0.68000  Biso   1.000  H
  O755     1.0000 0.67310  0.38231  0.70730  Biso   1.000  O
  O756     1.0000 0.63610  0.41700  0.67270  Biso   1.000  O
  O757     1.0000 0.67080  0.87077  0.21200  Biso   1.000  O
  O758     1.0000 0.62740  0.91680  0.16600  Biso   1.000  O
  C379     1.0000 0.71783  0.87862  0.25862  Biso   1.000  C
  H379     1.0000 0.69590  0.87870  0.26460  Biso   1.000  H
  C380     1.0000 0.62560  0.98333  0.16653  Biso   1.000  C
  H380     1.0000 0.61110  0.97200  0.18000  Biso   1.000  H
  O759     1.0000 0.67310  0.88231  0.20730  Biso   1.000  O
  O760     1.0000 0.63610  0.91700  0.17270  Biso   1.000  O
  O761     1.0000 0.17080  0.37077  0.21200  Biso   1.000  O
  O762     1.0000 0.12740  0.41680  0.16600  Biso   1.000  O
  C381     1.0000 0.21783  0.37862  0.25862  Biso   1.000  C
  H381     1.0000 0.19590  0.37870  0.26460  Biso   1.000  H
  C382     1.0000 0.12560  0.48333  0.16653  Biso   1.000  C
  H382     1.0000 0.11110  0.47200  0.18000  Biso   1.000  H
  O763     1.0000 0.17310  0.38231  0.20730  Biso   1.000  O
  O764     1.0000 0.13610  0.41700  0.17270  Biso   1.000  O
  O765     1.0000 0.17080  0.87077  0.71200  Biso   1.000  O
  O766     1.0000 0.12740  0.91680  0.66600  Biso   1.000  O
  C383     1.0000 0.21783  0.87862  0.75862  Biso   1.000  C
  H383     1.0000 0.19590  0.87870  0.76460  Biso   1.000  H
  C384     1.0000 0.12560  0.98333  0.66653  Biso   1.000  C
  H384     1.0000 0.11110  0.97200  0.68000  Biso   1.000  H
  O767     1.0000 0.17310  0.88231  0.70730  Biso   1.000  O
  O768     1.0000 0.13610  0.91700  0.67270  Biso   1.000  O
  Ni1      1.0000 0.68739  0.37177  0.62823  Biso   1.000  Ni
  O769     1.0000 0.72532  0.46517  0.53483  Biso   1.000  O
  O770     1.0000 0.77923  0.46604  0.53396  Biso   1.000  O
  N1       1.0000 0.72897  0.39302  0.60698  Biso   1.000  N
  C385     1.0000 0.75831  0.38323  0.61677  Biso   1.000  C
  H385     1.0000 0.75970  0.36720  0.63280  Biso   1.000  H
  C386     1.0000 0.78673  0.39579  0.60421  Biso   1.000  C
  H386     1.0000 0.80700  0.38850  0.61150  Biso   1.000  H
  C387     1.0000 0.78449  0.41949  0.58051  Biso   1.000  C
  H387     1.0000 0.80340  0.42840  0.57160  Biso   1.000  H
  C388     1.0000 0.75456  0.43004  0.56996  Biso   1.000  C
  C389     1.0000 0.72732  0.41612  0.58388  Biso   1.000  C
  H388     1.0000 0.70680  0.42310  0.57690  Biso   1.000  H
  C390     1.0000 0.75247  0.45572  0.54428  Biso   1.000  C
  Ni2      1.0000 0.68739  0.87177  0.12823  Biso   1.000  Ni
  O771     1.0000 0.72532  0.96517  0.03483  Biso   1.000  O
  O772     1.0000 0.77923  0.96604  0.03396  Biso   1.000  O
  N2       1.0000 0.72897  0.89302  0.10698  Biso   1.000  N
  C391     1.0000 0.75831  0.88323  0.11677  Biso   1.000  C
  H389     1.0000 0.75970  0.86720  0.13280  Biso   1.000  H
  C392     1.0000 0.78673  0.89579  0.10421  Biso   1.000  C
  H390     1.0000 0.80700  0.88850  0.11150  Biso   1.000  H
  C393     1.0000 0.78449  0.91949  0.08051  Biso   1.000  C
  H391     1.0000 0.80340  0.92840  0.07160  Biso   1.000  H
  C394     1.0000 0.75456  0.93004  0.06996  Biso   1.000  C
  C395     1.0000 0.72732  0.91612  0.08388  Biso   1.000  C
  H392     1.0000 0.70680  0.92310  0.07690  Biso   1.000  H
  C396     1.0000 0.75247  0.95572  0.04428  Biso   1.000  C
  Ni3      1.0000 0.18739  0.37177  0.12823  Biso   1.000  Ni
  O773     1.0000 0.22532  0.46517  0.03483  Biso   1.000  O
  O774     1.0000 0.27923  0.46604  0.03396  Biso   1.000  O
  N3       1.0000 0.22897  0.39302  0.10698  Biso   1.000  N
  C397     1.0000 0.25831  0.38323  0.11677  Biso   1.000  C
  H393     1.0000 0.25970  0.36720  0.13280  Biso   1.000  H
  C398     1.0000 0.28673  0.39579  0.10421  Biso   1.000  C
  H394     1.0000 0.30700  0.38850  0.11150  Biso   1.000  H
  C399     1.0000 0.28449  0.41949  0.08051  Biso   1.000  C
  H395     1.0000 0.30340  0.42840  0.07160  Biso   1.000  H
  C400     1.0000 0.25456  0.43004  0.06996  Biso   1.000  C
  C401     1.0000 0.22732  0.41612  0.08388  Biso   1.000  C
  H396     1.0000 0.20680  0.42310  0.07690  Biso   1.000  H
  C402     1.0000 0.25247  0.45572  0.04428  Biso   1.000  C
  Ni4      1.0000 0.18739  0.87177  0.62823  Biso   1.000  Ni
  O775     1.0000 0.22532  0.96517  0.53483  Biso   1.000  O
  O776     1.0000 0.27923  0.96604  0.53396  Biso   1.000  O
  N4       1.0000 0.22897  0.89302  0.60698  Biso   1.000  N
  C403     1.0000 0.25831  0.88323  0.61677  Biso   1.000  C
  H397     1.0000 0.25970  0.86720  0.63280  Biso   1.000  H
  C404     1.0000 0.28673  0.89579  0.60421  Biso   1.000  C
  H398     1.0000 0.30700  0.88850  0.61150  Biso   1.000  H
  C405     1.0000 0.28449  0.91949  0.58051  Biso   1.000  C
  H399     1.0000 0.30340  0.92840  0.57160  Biso   1.000  H
  C406     1.0000 0.25456  0.93004  0.56996  Biso   1.000  C
  C407     1.0000 0.22732  0.91612  0.58388  Biso   1.000  C
  H400     1.0000 0.20680  0.92310  0.57690  Biso   1.000  H
  C408     1.0000 0.25247  0.95572  0.54428  Biso   1.000  C
  Ni5      1.0000 0.31261  0.62823  0.62823  Biso   1.000  Ni
  O777     1.0000 0.27468  0.53483  0.53483  Biso   1.000  O
  O778     1.0000 0.22077  0.53396  0.53396  Biso   1.000  O
  N5       1.0000 0.27103  0.60698  0.60698  Biso   1.000  N
  C409     1.0000 0.24169  0.61677  0.61677  Biso   1.000  C
  H401     1.0000 0.24030  0.63280  0.63280  Biso   1.000  H
  C410     1.0000 0.21327  0.60421  0.60421  Biso   1.000  C
  H402     1.0000 0.19300  0.61150  0.61150  Biso   1.000  H
  C411     1.0000 0.21551  0.58051  0.58051  Biso   1.000  C
  H403     1.0000 0.19660  0.57160  0.57160  Biso   1.000  H
  C412     1.0000 0.24544  0.56996  0.56996  Biso   1.000  C
  C413     1.0000 0.27268  0.58388  0.58388  Biso   1.000  C
  H404     1.0000 0.29320  0.57690  0.57690  Biso   1.000  H
  C414     1.0000 0.24753  0.54428  0.54428  Biso   1.000  C
  Ni6      1.0000 0.31261  0.12823  0.12823  Biso   1.000  Ni
  O779     1.0000 0.27468  0.03483  0.03483  Biso   1.000  O
  O780     1.0000 0.22077  0.03396  0.03396  Biso   1.000  O
  N6       1.0000 0.27103  0.10698  0.10698  Biso   1.000  N
  C415     1.0000 0.24169  0.11677  0.11677  Biso   1.000  C
  H405     1.0000 0.24030  0.13280  0.13280  Biso   1.000  H
  C416     1.0000 0.21327  0.10421  0.10421  Biso   1.000  C
  H406     1.0000 0.19300  0.11150  0.11150  Biso   1.000  H
  C417     1.0000 0.21551  0.08051  0.08051  Biso   1.000  C
  H407     1.0000 0.19660  0.07160  0.07160  Biso   1.000  H
  C418     1.0000 0.24544  0.06996  0.06996  Biso   1.000  C
  C419     1.0000 0.27268  0.08388  0.08388  Biso   1.000  C
  H408     1.0000 0.29320  0.07690  0.07690  Biso   1.000  H
  C420     1.0000 0.24753  0.04428  0.04428  Biso   1.000  C
  Ni7      1.0000 0.81261  0.62823  0.12823  Biso   1.000  Ni
  O781     1.0000 0.77468  0.53483  0.03483  Biso   1.000  O
  O782     1.0000 0.72077  0.53396  0.03396  Biso   1.000  O
  N7       1.0000 0.77103  0.60698  0.10698  Biso   1.000  N
  C421     1.0000 0.74169  0.61677  0.11677  Biso   1.000  C
  H409     1.0000 0.74030  0.63280  0.13280  Biso   1.000  H
  C422     1.0000 0.71327  0.60421  0.10421  Biso   1.000  C
  H410     1.0000 0.69300  0.61150  0.11150  Biso   1.000  H
  C423     1.0000 0.71551  0.58051  0.08051  Biso   1.000  C
  H411     1.0000 0.69660  0.57160  0.07160  Biso   1.000  H
  C424     1.0000 0.74544  0.56996  0.06996  Biso   1.000  C
  C425     1.0000 0.77268  0.58388  0.08388  Biso   1.000  C
  H412     1.0000 0.79320  0.57690  0.07690  Biso   1.000  H
  C426     1.0000 0.74753  0.54428  0.04428  Biso   1.000  C
  Ni8      1.0000 0.81261  0.12823  0.62823  Biso   1.000  Ni
  O783     1.0000 0.77468  0.03483  0.53483  Biso   1.000  O
  O784     1.0000 0.72077  0.03396  0.53396  Biso   1.000  O
  N8       1.0000 0.77103  0.10698  0.60698  Biso   1.000  N
  C427     1.0000 0.74169  0.11677  0.61677  Biso   1.000  C
  H413     1.0000 0.74030  0.13280  0.63280  Biso   1.000  H
  C428     1.0000 0.71327  0.10421  0.60421  Biso   1.000  C
  H414     1.0000 0.69300  0.11150  0.61150  Biso   1.000  H
  C429     1.0000 0.71551  0.08051  0.58051  Biso   1.000  C
  H415     1.0000 0.69660  0.07160  0.57160  Biso   1.000  H
  C430     1.0000 0.74544  0.06996  0.56996  Biso   1.000  C
  C431     1.0000 0.77268  0.08388  0.58388  Biso   1.000  C
  H416     1.0000 0.79320  0.07690  0.57690  Biso   1.000  H
  C432     1.0000 0.74753  0.04428  0.54428  Biso   1.000  C
  Ni9      1.0000 0.31261  0.37177  0.37177  Biso   1.000  Ni
  O785     1.0000 0.27468  0.46517  0.46517  Biso   1.000  O
  O786     1.0000 0.22077  0.46604  0.46604  Biso   1.000  O
  N9       1.0000 0.27103  0.39302  0.39302  Biso   1.000  N
  C433     1.0000 0.24169  0.38323  0.38323  Biso   1.000  C
  H417     1.0000 0.24030  0.36720  0.36720  Biso   1.000  H
  C434     1.0000 0.21327  0.39579  0.39579  Biso   1.000  C
  H418     1.0000 0.19300  0.38850  0.38850  Biso   1.000  H
  C435     1.0000 0.21551  0.41949  0.41949  Biso   1.000  C
  H419     1.0000 0.19660  0.42840  0.42840  Biso   1.000  H
  C436     1.0000 0.24544  0.43004  0.43004  Biso   1.000  C
  C437     1.0000 0.27268  0.41612  0.41612  Biso   1.000  C
  H420     1.0000 0.29320  0.42310  0.42310  Biso   1.000  H
  C438     1.0000 0.24753  0.45572  0.45572  Biso   1.000  C
  Ni10     1.0000 0.31261  0.87177  0.87177  Biso   1.000  Ni
  O787     1.0000 0.27468  0.96517  0.96517  Biso   1.000  O
  O788     1.0000 0.22077  0.96604  0.96604  Biso   1.000  O
  N10      1.0000 0.27103  0.89302  0.89302  Biso   1.000  N
  C439     1.0000 0.24169  0.88323  0.88323  Biso   1.000  C
  H421     1.0000 0.24030  0.86720  0.86720  Biso   1.000  H
  C440     1.0000 0.21327  0.89579  0.89579  Biso   1.000  C
  H422     1.0000 0.19300  0.88850  0.88850  Biso   1.000  H
  C441     1.0000 0.21551  0.91949  0.91949  Biso   1.000  C
  H423     1.0000 0.19660  0.92840  0.92840  Biso   1.000  H
  C442     1.0000 0.24544  0.93004  0.93004  Biso   1.000  C
  C443     1.0000 0.27268  0.91612  0.91612  Biso   1.000  C
  H424     1.0000 0.29320  0.92310  0.92310  Biso   1.000  H
  C444     1.0000 0.24753  0.95572  0.95572  Biso   1.000  C
  Ni11     1.0000 0.81261  0.37177  0.87177  Biso   1.000  Ni
  O789     1.0000 0.77468  0.46517  0.96517  Biso   1.000  O
  O790     1.0000 0.72077  0.46604  0.96604  Biso   1.000  O
  N11      1.0000 0.77103  0.39302  0.89302  Biso   1.000  N
  C445     1.0000 0.74169  0.38323  0.88323  Biso   1.000  C
  H425     1.0000 0.74030  0.36720  0.86720  Biso   1.000  H
  C446     1.0000 0.71327  0.39579  0.89579  Biso   1.000  C
  H426     1.0000 0.69300  0.38850  0.88850  Biso   1.000  H
  C447     1.0000 0.71551  0.41949  0.91949  Biso   1.000  C
  H427     1.0000 0.69660  0.42840  0.92840  Biso   1.000  H
  C448     1.0000 0.74544  0.43004  0.93004  Biso   1.000  C
  C449     1.0000 0.77268  0.41612  0.91612  Biso   1.000  C
  H428     1.0000 0.79320  0.42310  0.92310  Biso   1.000  H
  C450     1.0000 0.74753  0.45572  0.95572  Biso   1.000  C
  Ni12     1.0000 0.81261  0.87177  0.37177  Biso   1.000  Ni
  O791     1.0000 0.77468  0.96517  0.46517  Biso   1.000  O
  O792     1.0000 0.72077  0.96604  0.46604  Biso   1.000  O
  N12      1.0000 0.77103  0.89302  0.39302  Biso   1.000  N
  C451     1.0000 0.74169  0.88323  0.38323  Biso   1.000  C
  H429     1.0000 0.74030  0.86720  0.36720  Biso   1.000  H
  C452     1.0000 0.71327  0.89579  0.39579  Biso   1.000  C
  H430     1.0000 0.69300  0.88850  0.38850  Biso   1.000  H
  C453     1.0000 0.71551  0.91949  0.41949  Biso   1.000  C
  H431     1.0000 0.69660  0.92840  0.42840  Biso   1.000  H
  C454     1.0000 0.74544  0.93004  0.43004  Biso   1.000  C
  C455     1.0000 0.77268  0.91612  0.41612  Biso   1.000  C
  H432     1.0000 0.79320  0.92310  0.42310  Biso   1.000  H
  C456     1.0000 0.74753  0.95572  0.45572  Biso   1.000  C
  Ni13     1.0000 0.68739  0.62823  0.37177  Biso   1.000  Ni
  O793     1.0000 0.72532  0.53483  0.46517  Biso   1.000  O
  O794     1.0000 0.77923  0.53396  0.46604  Biso   1.000  O
  N13      1.0000 0.72897  0.60698  0.39302  Biso   1.000  N
  C457     1.0000 0.75831  0.61677  0.38323  Biso   1.000  C
  H433     1.0000 0.75970  0.63280  0.36720  Biso   1.000  H
  C458     1.0000 0.78673  0.60421  0.39579  Biso   1.000  C
  H434     1.0000 0.80700  0.61150  0.38850  Biso   1.000  H
  C459     1.0000 0.78449  0.58051  0.41949  Biso   1.000  C
  H435     1.0000 0.80340  0.57160  0.42840  Biso   1.000  H
  C460     1.0000 0.75456  0.56996  0.43004  Biso   1.000  C
  C461     1.0000 0.72732  0.58388  0.41612  Biso   1.000  C
  H436     1.0000 0.70680  0.57690  0.42310  Biso   1.000  H
  C462     1.0000 0.75247  0.54428  0.45572  Biso   1.000  C
  Ni14     1.0000 0.68739  0.12823  0.87177  Biso   1.000  Ni
  O795     1.0000 0.72532  0.03483  0.96517  Biso   1.000  O
  O796     1.0000 0.77923  0.03396  0.96604  Biso   1.000  O
  N14      1.0000 0.72897  0.10698  0.89302  Biso   1.000  N
  C463     1.0000 0.75831  0.11677  0.88323  Biso   1.000  C
  H437     1.0000 0.75970  0.13280  0.86720  Biso   1.000  H
  C464     1.0000 0.78673  0.10421  0.89579  Biso   1.000  C
  H438     1.0000 0.80700  0.11150  0.88850  Biso   1.000  H
  C465     1.0000 0.78449  0.08051  0.91949  Biso   1.000  C
  H439     1.0000 0.80340  0.07160  0.92840  Biso   1.000  H
  C466     1.0000 0.75456  0.06996  0.93004  Biso   1.000  C
  C467     1.0000 0.72732  0.08388  0.91612  Biso   1.000  C
  H440     1.0000 0.70680  0.07690  0.92310  Biso   1.000  H
  C468     1.0000 0.75247  0.04428  0.95572  Biso   1.000  C
  Ni15     1.0000 0.18739  0.62823  0.87177  Biso   1.000  Ni
  O797     1.0000 0.22532  0.53483  0.96517  Biso   1.000  O
  O798     1.0000 0.27923  0.53396  0.96604  Biso   1.000  O
  N15      1.0000 0.22897  0.60698  0.89302  Biso   1.000  N
  C469     1.0000 0.25831  0.61677  0.88323  Biso   1.000  C
  H441     1.0000 0.25970  0.63280  0.86720  Biso   1.000  H
  C470     1.0000 0.28673  0.60421  0.89579  Biso   1.000  C
  H442     1.0000 0.30700  0.61150  0.88850  Biso   1.000  H
  C471     1.0000 0.28449  0.58051  0.91949  Biso   1.000  C
  H443     1.0000 0.30340  0.57160  0.92840  Biso   1.000  H
  C472     1.0000 0.25456  0.56996  0.93004  Biso   1.000  C
  C473     1.0000 0.22732  0.58388  0.91612  Biso   1.000  C
  H444     1.0000 0.20680  0.57690  0.92310  Biso   1.000  H
  C474     1.0000 0.25247  0.54428  0.95572  Biso   1.000  C
  Ni16     1.0000 0.18739  0.12823  0.37177  Biso   1.000  Ni
  O799     1.0000 0.22532  0.03483  0.46517  Biso   1.000  O
  O800     1.0000 0.27923  0.03396  0.46604  Biso   1.000  O
  N16      1.0000 0.22897  0.10698  0.39302  Biso   1.000  N
  C475     1.0000 0.25831  0.11677  0.38323  Biso   1.000  C
  H445     1.0000 0.25970  0.13280  0.36720  Biso   1.000  H
  C476     1.0000 0.28673  0.10421  0.39579  Biso   1.000  C
  H446     1.0000 0.30700  0.11150  0.38850  Biso   1.000  H
  C477     1.0000 0.28449  0.08051  0.41949  Biso   1.000  C
  H447     1.0000 0.30340  0.07160  0.42840  Biso   1.000  H
  C478     1.0000 0.25456  0.06996  0.43004  Biso   1.000  C
  C479     1.0000 0.22732  0.08388  0.41612  Biso   1.000  C
  H448     1.0000 0.20680  0.07690  0.42310  Biso   1.000  H
  C480     1.0000 0.25247  0.04428  0.45572  Biso   1.000  C
  Ni17     1.0000 0.62823  0.68739  0.37177  Biso   1.000  Ni
  O801     1.0000 0.53483  0.72532  0.46517  Biso   1.000  O
  O802     1.0000 0.53396  0.77923  0.46604  Biso   1.000  O
  N17      1.0000 0.60698  0.72897  0.39302  Biso   1.000  N
  C481     1.0000 0.61677  0.75831  0.38323  Biso   1.000  C
  H449     1.0000 0.63280  0.75970  0.36720  Biso   1.000  H
  C482     1.0000 0.60421  0.78673  0.39579  Biso   1.000  C
  H450     1.0000 0.61150  0.80700  0.38850  Biso   1.000  H
  C483     1.0000 0.58051  0.78449  0.41949  Biso   1.000  C
  H451     1.0000 0.57160  0.80340  0.42840  Biso   1.000  H
  C484     1.0000 0.56996  0.75456  0.43004  Biso   1.000  C
  C485     1.0000 0.58388  0.72732  0.41612  Biso   1.000  C
  H452     1.0000 0.57690  0.70680  0.42310  Biso   1.000  H
  C486     1.0000 0.54428  0.75247  0.45572  Biso   1.000  C
  Ni18     1.0000 0.62823  0.18739  0.87177  Biso   1.000  Ni
  O803     1.0000 0.53483  0.22532  0.96517  Biso   1.000  O
  O804     1.0000 0.53396  0.27923  0.96604  Biso   1.000  O
  N18      1.0000 0.60698  0.22897  0.89302  Biso   1.000  N
  C487     1.0000 0.61677  0.25831  0.88323  Biso   1.000  C
  H453     1.0000 0.63280  0.25970  0.86720  Biso   1.000  H
  C488     1.0000 0.60421  0.28673  0.89579  Biso   1.000  C
  H454     1.0000 0.61150  0.30700  0.88850  Biso   1.000  H
  C489     1.0000 0.58051  0.28449  0.91949  Biso   1.000  C
  H455     1.0000 0.57160  0.30340  0.92840  Biso   1.000  H
  C490     1.0000 0.56996  0.25456  0.93004  Biso   1.000  C
  C491     1.0000 0.58388  0.22732  0.91612  Biso   1.000  C
  H456     1.0000 0.57690  0.20680  0.92310  Biso   1.000  H
  C492     1.0000 0.54428  0.25247  0.95572  Biso   1.000  C
  Ni19     1.0000 0.12823  0.68739  0.87177  Biso   1.000  Ni
  O805     1.0000 0.03483  0.72532  0.96517  Biso   1.000  O
  O806     1.0000 0.03396  0.77923  0.96604  Biso   1.000  O
  N19      1.0000 0.10698  0.72897  0.89302  Biso   1.000  N
  C493     1.0000 0.11677  0.75831  0.88323  Biso   1.000  C
  H457     1.0000 0.13280  0.75970  0.86720  Biso   1.000  H
  C494     1.0000 0.10421  0.78673  0.89579  Biso   1.000  C
  H458     1.0000 0.11150  0.80700  0.88850  Biso   1.000  H
  C495     1.0000 0.08051  0.78449  0.91949  Biso   1.000  C
  H459     1.0000 0.07160  0.80340  0.92840  Biso   1.000  H
  C496     1.0000 0.06996  0.75456  0.93004  Biso   1.000  C
  C497     1.0000 0.08388  0.72732  0.91612  Biso   1.000  C
  H460     1.0000 0.07690  0.70680  0.92310  Biso   1.000  H
  C498     1.0000 0.04428  0.75247  0.95572  Biso   1.000  C
  Ni20     1.0000 0.12823  0.18739  0.37177  Biso   1.000  Ni
  O807     1.0000 0.03483  0.22532  0.46517  Biso   1.000  O
  O808     1.0000 0.03396  0.27923  0.46604  Biso   1.000  O
  N20      1.0000 0.10698  0.22897  0.39302  Biso   1.000  N
  C499     1.0000 0.11677  0.25831  0.38323  Biso   1.000  C
  H461     1.0000 0.13280  0.25970  0.36720  Biso   1.000  H
  C500     1.0000 0.10421  0.28673  0.39579  Biso   1.000  C
  H462     1.0000 0.11150  0.30700  0.38850  Biso   1.000  H
  C501     1.0000 0.08051  0.28449  0.41949  Biso   1.000  C
  H463     1.0000 0.07160  0.30340  0.42840  Biso   1.000  H
  C502     1.0000 0.06996  0.25456  0.43004  Biso   1.000  C
  C503     1.0000 0.08388  0.22732  0.41612  Biso   1.000  C
  H464     1.0000 0.07690  0.20680  0.42310  Biso   1.000  H
  C504     1.0000 0.04428  0.25247  0.45572  Biso   1.000  C
  Ni21     1.0000 0.62823  0.31261  0.62823  Biso   1.000  Ni
  O809     1.0000 0.53483  0.27468  0.53483  Biso   1.000  O
  O810     1.0000 0.53396  0.22077  0.53396  Biso   1.000  O
  N21      1.0000 0.60698  0.27103  0.60698  Biso   1.000  N
  C505     1.0000 0.61677  0.24169  0.61677  Biso   1.000  C
  H465     1.0000 0.63280  0.24030  0.63280  Biso   1.000  H
  C506     1.0000 0.60421  0.21327  0.60421  Biso   1.000  C
  H466     1.0000 0.61150  0.19300  0.61150  Biso   1.000  H
  C507     1.0000 0.58051  0.21551  0.58051  Biso   1.000  C
  H467     1.0000 0.57160  0.19660  0.57160  Biso   1.000  H
  C508     1.0000 0.56996  0.24544  0.56996  Biso   1.000  C
  C509     1.0000 0.58388  0.27268  0.58388  Biso   1.000  C
  H468     1.0000 0.57690  0.29320  0.57690  Biso   1.000  H
  C510     1.0000 0.54428  0.24753  0.54428  Biso   1.000  C
  Ni22     1.0000 0.62823  0.81261  0.12823  Biso   1.000  Ni
  O811     1.0000 0.53483  0.77468  0.03483  Biso   1.000  O
  O812     1.0000 0.53396  0.72077  0.03396  Biso   1.000  O
  N22      1.0000 0.60698  0.77103  0.10698  Biso   1.000  N
  C511     1.0000 0.61677  0.74169  0.11677  Biso   1.000  C
  H469     1.0000 0.63280  0.74030  0.13280  Biso   1.000  H
  C512     1.0000 0.60421  0.71327  0.10421  Biso   1.000  C
  H470     1.0000 0.61150  0.69300  0.11150  Biso   1.000  H
  C513     1.0000 0.58051  0.71551  0.08051  Biso   1.000  C
  H471     1.0000 0.57160  0.69660  0.07160  Biso   1.000  H
  C514     1.0000 0.56996  0.74544  0.06996  Biso   1.000  C
  C515     1.0000 0.58388  0.77268  0.08388  Biso   1.000  C
  H472     1.0000 0.57690  0.79320  0.07690  Biso   1.000  H
  C516     1.0000 0.54428  0.74753  0.04428  Biso   1.000  C
  Ni23     1.0000 0.12823  0.31261  0.12823  Biso   1.000  Ni
  O813     1.0000 0.03483  0.27468  0.03483  Biso   1.000  O
  O814     1.0000 0.03396  0.22077  0.03396  Biso   1.000  O
  N23      1.0000 0.10698  0.27103  0.10698  Biso   1.000  N
  C517     1.0000 0.11677  0.24169  0.11677  Biso   1.000  C
  H473     1.0000 0.13280  0.24030  0.13280  Biso   1.000  H
  C518     1.0000 0.10421  0.21327  0.10421  Biso   1.000  C
  H474     1.0000 0.11150  0.19300  0.11150  Biso   1.000  H
  C519     1.0000 0.08051  0.21551  0.08051  Biso   1.000  C
  H475     1.0000 0.07160  0.19660  0.07160  Biso   1.000  H
  C520     1.0000 0.06996  0.24544  0.06996  Biso   1.000  C
  C521     1.0000 0.08388  0.27268  0.08388  Biso   1.000  C
  H476     1.0000 0.07690  0.29320  0.07690  Biso   1.000  H
  C522     1.0000 0.04428  0.24753  0.04428  Biso   1.000  C
  Ni24     1.0000 0.12823  0.81261  0.62823  Biso   1.000  Ni
  O815     1.0000 0.03483  0.77468  0.53483  Biso   1.000  O
  O816     1.0000 0.03396  0.72077  0.53396  Biso   1.000  O
  N24      1.0000 0.10698  0.77103  0.60698  Biso   1.000  N
  C523     1.0000 0.11677  0.74169  0.61677  Biso   1.000  C
  H477     1.0000 0.13280  0.74030  0.63280  Biso   1.000  H
  C524     1.0000 0.10421  0.71327  0.60421  Biso   1.000  C
  H478     1.0000 0.11150  0.69300  0.61150  Biso   1.000  H
  C525     1.0000 0.08051  0.71551  0.58051  Biso   1.000  C
  H479     1.0000 0.07160  0.69660  0.57160  Biso   1.000  H
  C526     1.0000 0.06996  0.74544  0.56996  Biso   1.000  C
  C527     1.0000 0.08388  0.77268  0.58388  Biso   1.000  C
  H480     1.0000 0.07690  0.79320  0.57690  Biso   1.000  H
  C528     1.0000 0.04428  0.74753  0.54428  Biso   1.000  C
  Ni25     1.0000 0.37177  0.31261  0.37177  Biso   1.000  Ni
  O817     1.0000 0.46517  0.27468  0.46517  Biso   1.000  O
  O818     1.0000 0.46604  0.22077  0.46604  Biso   1.000  O
  N25      1.0000 0.39302  0.27103  0.39302  Biso   1.000  N
  C529     1.0000 0.38323  0.24169  0.38323  Biso   1.000  C
  H481     1.0000 0.36720  0.24030  0.36720  Biso   1.000  H
  C530     1.0000 0.39579  0.21327  0.39579  Biso   1.000  C
  H482     1.0000 0.38850  0.19300  0.38850  Biso   1.000  H
  C531     1.0000 0.41949  0.21551  0.41949  Biso   1.000  C
  H483     1.0000 0.42840  0.19660  0.42840  Biso   1.000  H
  C532     1.0000 0.43004  0.24544  0.43004  Biso   1.000  C
  C533     1.0000 0.41612  0.27268  0.41612  Biso   1.000  C
  H484     1.0000 0.42310  0.29320  0.42310  Biso   1.000  H
  C534     1.0000 0.45572  0.24753  0.45572  Biso   1.000  C
  Ni26     1.0000 0.37177  0.81261  0.87177  Biso   1.000  Ni
  O819     1.0000 0.46517  0.77468  0.96517  Biso   1.000  O
  O820     1.0000 0.46604  0.72077  0.96604  Biso   1.000  O
  N26      1.0000 0.39302  0.77103  0.89302  Biso   1.000  N
  C535     1.0000 0.38323  0.74169  0.88323  Biso   1.000  C
  H485     1.0000 0.36720  0.74030  0.86720  Biso   1.000  H
  C536     1.0000 0.39579  0.71327  0.89579  Biso   1.000  C
  H486     1.0000 0.38850  0.69300  0.88850  Biso   1.000  H
  C537     1.0000 0.41949  0.71551  0.91949  Biso   1.000  C
  H487     1.0000 0.42840  0.69660  0.92840  Biso   1.000  H
  C538     1.0000 0.43004  0.74544  0.93004  Biso   1.000  C
  C539     1.0000 0.41612  0.77268  0.91612  Biso   1.000  C
  H488     1.0000 0.42310  0.79320  0.92310  Biso   1.000  H
  C540     1.0000 0.45572  0.74753  0.95572  Biso   1.000  C
  Ni27     1.0000 0.87177  0.31261  0.87177  Biso   1.000  Ni
  O821     1.0000 0.96517  0.27468  0.96517  Biso   1.000  O
  O822     1.0000 0.96604  0.22077  0.96604  Biso   1.000  O
  N27      1.0000 0.89302  0.27103  0.89302  Biso   1.000  N
  C541     1.0000 0.88323  0.24169  0.88323  Biso   1.000  C
  H489     1.0000 0.86720  0.24030  0.86720  Biso   1.000  H
  C542     1.0000 0.89579  0.21327  0.89579  Biso   1.000  C
  H490     1.0000 0.88850  0.19300  0.88850  Biso   1.000  H
  C543     1.0000 0.91949  0.21551  0.91949  Biso   1.000  C
  H491     1.0000 0.92840  0.19660  0.92840  Biso   1.000  H
  C544     1.0000 0.93004  0.24544  0.93004  Biso   1.000  C
  C545     1.0000 0.91612  0.27268  0.91612  Biso   1.000  C
  H492     1.0000 0.92310  0.29320  0.92310  Biso   1.000  H
  C546     1.0000 0.95572  0.24753  0.95572  Biso   1.000  C
  Ni28     1.0000 0.87177  0.81261  0.37177  Biso   1.000  Ni
  O823     1.0000 0.96517  0.77468  0.46517  Biso   1.000  O
  O824     1.0000 0.96604  0.72077  0.46604  Biso   1.000  O
  N28      1.0000 0.89302  0.77103  0.39302  Biso   1.000  N
  C547     1.0000 0.88323  0.74169  0.38323  Biso   1.000  C
  H493     1.0000 0.86720  0.74030  0.36720  Biso   1.000  H
  C548     1.0000 0.89579  0.71327  0.39579  Biso   1.000  C
  H494     1.0000 0.88850  0.69300  0.38850  Biso   1.000  H
  C549     1.0000 0.91949  0.71551  0.41949  Biso   1.000  C
  H495     1.0000 0.92840  0.69660  0.42840  Biso   1.000  H
  C550     1.0000 0.93004  0.74544  0.43004  Biso   1.000  C
  C551     1.0000 0.91612  0.77268  0.41612  Biso   1.000  C
  H496     1.0000 0.92310  0.79320  0.42310  Biso   1.000  H
  C552     1.0000 0.95572  0.74753  0.45572  Biso   1.000  C
  Ni29     1.0000 0.37177  0.68739  0.62823  Biso   1.000  Ni
  O825     1.0000 0.46517  0.72532  0.53483  Biso   1.000  O
  O826     1.0000 0.46604  0.77923  0.53396  Biso   1.000  O
  N29      1.0000 0.39302  0.72897  0.60698  Biso   1.000  N
  C553     1.0000 0.38323  0.75831  0.61677  Biso   1.000  C
  H497     1.0000 0.36720  0.75970  0.63280  Biso   1.000  H
  C554     1.0000 0.39579  0.78673  0.60421  Biso   1.000  C
  H498     1.0000 0.38850  0.80700  0.61150  Biso   1.000  H
  C555     1.0000 0.41949  0.78449  0.58051  Biso   1.000  C
  H499     1.0000 0.42840  0.80340  0.57160  Biso   1.000  H
  C556     1.0000 0.43004  0.75456  0.56996  Biso   1.000  C
  C557     1.0000 0.41612  0.72732  0.58388  Biso   1.000  C
  H500     1.0000 0.42310  0.70680  0.57690  Biso   1.000  H
  C558     1.0000 0.45572  0.75247  0.54428  Biso   1.000  C
  Ni30     1.0000 0.37177  0.18739  0.12823  Biso   1.000  Ni
  O827     1.0000 0.46517  0.22532  0.03483  Biso   1.000  O
  O828     1.0000 0.46604  0.27923  0.03396  Biso   1.000  O
  N30      1.0000 0.39302  0.22897  0.10698  Biso   1.000  N
  C559     1.0000 0.38323  0.25831  0.11677  Biso   1.000  C
  H501     1.0000 0.36720  0.25970  0.13280  Biso   1.000  H
  C560     1.0000 0.39579  0.28673  0.10421  Biso   1.000  C
  H502     1.0000 0.38850  0.30700  0.11150  Biso   1.000  H
  C561     1.0000 0.41949  0.28449  0.08051  Biso   1.000  C
  H503     1.0000 0.42840  0.30340  0.07160  Biso   1.000  H
  C562     1.0000 0.43004  0.25456  0.06996  Biso   1.000  C
  C563     1.0000 0.41612  0.22732  0.08388  Biso   1.000  C
  H504     1.0000 0.42310  0.20680  0.07690  Biso   1.000  H
  C564     1.0000 0.45572  0.25247  0.04428  Biso   1.000  C
  Ni31     1.0000 0.87177  0.68739  0.12823  Biso   1.000  Ni
  O829     1.0000 0.96517  0.72532  0.03483  Biso   1.000  O
  O830     1.0000 0.96604  0.77923  0.03396  Biso   1.000  O
  N31      1.0000 0.89302  0.72897  0.10698  Biso   1.000  N
  C565     1.0000 0.88323  0.75831  0.11677  Biso   1.000  C
  H505     1.0000 0.86720  0.75970  0.13280  Biso   1.000  H
  C566     1.0000 0.89579  0.78673  0.10421  Biso   1.000  C
  H506     1.0000 0.88850  0.80700  0.11150  Biso   1.000  H
  C567     1.0000 0.91949  0.78449  0.08051  Biso   1.000  C
  H507     1.0000 0.92840  0.80340  0.07160  Biso   1.000  H
  C568     1.0000 0.93004  0.75456  0.06996  Biso   1.000  C
  C569     1.0000 0.91612  0.72732  0.08388  Biso   1.000  C
  H508     1.0000 0.92310  0.70680  0.07690  Biso   1.000  H
  C570     1.0000 0.95572  0.75247  0.04428  Biso   1.000  C
  Ni32     1.0000 0.87177  0.18739  0.62823  Biso   1.000  Ni
  O831     1.0000 0.96517  0.22532  0.53483  Biso   1.000  O
  O832     1.0000 0.96604  0.27923  0.53396  Biso   1.000  O
  N32      1.0000 0.89302  0.22897  0.60698  Biso   1.000  N
  C571     1.0000 0.88323  0.25831  0.61677  Biso   1.000  C
  H509     1.0000 0.86720  0.25970  0.63280  Biso   1.000  H
  C572     1.0000 0.89579  0.28673  0.60421  Biso   1.000  C
  H510     1.0000 0.88850  0.30700  0.61150  Biso   1.000  H
  C573     1.0000 0.91949  0.28449  0.58051  Biso   1.000  C
  H511     1.0000 0.92840  0.30340  0.57160  Biso   1.000  H
  C574     1.0000 0.93004  0.25456  0.56996  Biso   1.000  C
  C575     1.0000 0.91612  0.22732  0.58388  Biso   1.000  C
  H512     1.0000 0.92310  0.20680  0.57690  Biso   1.000  H
  C576     1.0000 0.95572  0.25247  0.54428  Biso   1.000  C
  Ni33     1.0000 0.37177  0.62823  0.68739  Biso   1.000  Ni
  O833     1.0000 0.46517  0.53483  0.72532  Biso   1.000  O
  O834     1.0000 0.46604  0.53396  0.77923  Biso   1.000  O
  N33      1.0000 0.39302  0.60698  0.72897  Biso   1.000  N
  C577     1.0000 0.38323  0.61677  0.75831  Biso   1.000  C
  H513     1.0000 0.36720  0.63280  0.75970  Biso   1.000  H
  C578     1.0000 0.39579  0.60421  0.78673  Biso   1.000  C
  H514     1.0000 0.38850  0.61150  0.80700  Biso   1.000  H
  C579     1.0000 0.41949  0.58051  0.78449  Biso   1.000  C
  H515     1.0000 0.42840  0.57160  0.80340  Biso   1.000  H
  C580     1.0000 0.43004  0.56996  0.75456  Biso   1.000  C
  C581     1.0000 0.41612  0.58388  0.72732  Biso   1.000  C
  H516     1.0000 0.42310  0.57690  0.70680  Biso   1.000  H
  C582     1.0000 0.45572  0.54428  0.75247  Biso   1.000  C
  Ni34     1.0000 0.37177  0.12823  0.18739  Biso   1.000  Ni
  O835     1.0000 0.46517  0.03483  0.22532  Biso   1.000  O
  O836     1.0000 0.46604  0.03396  0.27923  Biso   1.000  O
  N34      1.0000 0.39302  0.10698  0.22897  Biso   1.000  N
  C583     1.0000 0.38323  0.11677  0.25831  Biso   1.000  C
  H517     1.0000 0.36720  0.13280  0.25970  Biso   1.000  H
  C584     1.0000 0.39579  0.10421  0.28673  Biso   1.000  C
  H518     1.0000 0.38850  0.11150  0.30700  Biso   1.000  H
  C585     1.0000 0.41949  0.08051  0.28449  Biso   1.000  C
  H519     1.0000 0.42840  0.07160  0.30340  Biso   1.000  H
  C586     1.0000 0.43004  0.06996  0.25456  Biso   1.000  C
  C587     1.0000 0.41612  0.08388  0.22732  Biso   1.000  C
  H520     1.0000 0.42310  0.07690  0.20680  Biso   1.000  H
  C588     1.0000 0.45572  0.04428  0.25247  Biso   1.000  C
  Ni35     1.0000 0.87177  0.62823  0.18739  Biso   1.000  Ni
  O837     1.0000 0.96517  0.53483  0.22532  Biso   1.000  O
  O838     1.0000 0.96604  0.53396  0.27923  Biso   1.000  O
  N35      1.0000 0.89302  0.60698  0.22897  Biso   1.000  N
  C589     1.0000 0.88323  0.61677  0.25831  Biso   1.000  C
  H521     1.0000 0.86720  0.63280  0.25970  Biso   1.000  H
  C590     1.0000 0.89579  0.60421  0.28673  Biso   1.000  C
  H522     1.0000 0.88850  0.61150  0.30700  Biso   1.000  H
  C591     1.0000 0.91949  0.58051  0.28449  Biso   1.000  C
  H523     1.0000 0.92840  0.57160  0.30340  Biso   1.000  H
  C592     1.0000 0.93004  0.56996  0.25456  Biso   1.000  C
  C593     1.0000 0.91612  0.58388  0.22732  Biso   1.000  C
  H524     1.0000 0.92310  0.57690  0.20680  Biso   1.000  H
  C594     1.0000 0.95572  0.54428  0.25247  Biso   1.000  C
  Ni36     1.0000 0.87177  0.12823  0.68739  Biso   1.000  Ni
  O839     1.0000 0.96517  0.03483  0.72532  Biso   1.000  O
  O840     1.0000 0.96604  0.03396  0.77923  Biso   1.000  O
  N36      1.0000 0.89302  0.10698  0.72897  Biso   1.000  N
  C595     1.0000 0.88323  0.11677  0.75831  Biso   1.000  C
  H525     1.0000 0.86720  0.13280  0.75970  Biso   1.000  H
  C596     1.0000 0.89579  0.10421  0.78673  Biso   1.000  C
  H526     1.0000 0.88850  0.11150  0.80700  Biso   1.000  H
  C597     1.0000 0.91949  0.08051  0.78449  Biso   1.000  C
  H527     1.0000 0.92840  0.07160  0.80340  Biso   1.000  H
  C598     1.0000 0.93004  0.06996  0.75456  Biso   1.000  C
  C599     1.0000 0.91612  0.08388  0.72732  Biso   1.000  C
  H528     1.0000 0.92310  0.07690  0.70680  Biso   1.000  H
  C600     1.0000 0.95572  0.04428  0.75247  Biso   1.000  C
  Ni37     1.0000 0.62823  0.62823  0.31261  Biso   1.000  Ni
  O841     1.0000 0.53483  0.53483  0.27468  Biso   1.000  O
  O842     1.0000 0.53396  0.53396  0.22077  Biso   1.000  O
  N37      1.0000 0.60698  0.60698  0.27103  Biso   1.000  N
  C601     1.0000 0.61677  0.61677  0.24169  Biso   1.000  C
  H529     1.0000 0.63280  0.63280  0.24030  Biso   1.000  H
  C602     1.0000 0.60421  0.60421  0.21327  Biso   1.000  C
  H530     1.0000 0.61150  0.61150  0.19300  Biso   1.000  H
  C603     1.0000 0.58051  0.58051  0.21551  Biso   1.000  C
  H531     1.0000 0.57160  0.57160  0.19660  Biso   1.000  H
  C604     1.0000 0.56996  0.56996  0.24544  Biso   1.000  C
  C605     1.0000 0.58388  0.58388  0.27268  Biso   1.000  C
  H532     1.0000 0.57690  0.57690  0.29320  Biso   1.000  H
  C606     1.0000 0.54428  0.54428  0.24753  Biso   1.000  C
  Ni38     1.0000 0.62823  0.12823  0.81261  Biso   1.000  Ni
  O843     1.0000 0.53483  0.03483  0.77468  Biso   1.000  O
  O844     1.0000 0.53396  0.03396  0.72077  Biso   1.000  O
  N38      1.0000 0.60698  0.10698  0.77103  Biso   1.000  N
  C607     1.0000 0.61677  0.11677  0.74169  Biso   1.000  C
  H533     1.0000 0.63280  0.13280  0.74030  Biso   1.000  H
  C608     1.0000 0.60421  0.10421  0.71327  Biso   1.000  C
  H534     1.0000 0.61150  0.11150  0.69300  Biso   1.000  H
  C609     1.0000 0.58051  0.08051  0.71551  Biso   1.000  C
  H535     1.0000 0.57160  0.07160  0.69660  Biso   1.000  H
  C610     1.0000 0.56996  0.06996  0.74544  Biso   1.000  C
  C611     1.0000 0.58388  0.08388  0.77268  Biso   1.000  C
  H536     1.0000 0.57690  0.07690  0.79320  Biso   1.000  H
  C612     1.0000 0.54428  0.04428  0.74753  Biso   1.000  C
  Ni39     1.0000 0.12823  0.62823  0.81261  Biso   1.000  Ni
  O845     1.0000 0.03483  0.53483  0.77468  Biso   1.000  O
  O846     1.0000 0.03396  0.53396  0.72077  Biso   1.000  O
  N39      1.0000 0.10698  0.60698  0.77103  Biso   1.000  N
  C613     1.0000 0.11677  0.61677  0.74169  Biso   1.000  C
  H537     1.0000 0.13280  0.63280  0.74030  Biso   1.000  H
  C614     1.0000 0.10421  0.60421  0.71327  Biso   1.000  C
  H538     1.0000 0.11150  0.61150  0.69300  Biso   1.000  H
  C615     1.0000 0.08051  0.58051  0.71551  Biso   1.000  C
  H539     1.0000 0.07160  0.57160  0.69660  Biso   1.000  H
  C616     1.0000 0.06996  0.56996  0.74544  Biso   1.000  C
  C617     1.0000 0.08388  0.58388  0.77268  Biso   1.000  C
  H540     1.0000 0.07690  0.57690  0.79320  Biso   1.000  H
  C618     1.0000 0.04428  0.54428  0.74753  Biso   1.000  C
  Ni40     1.0000 0.12823  0.12823  0.31261  Biso   1.000  Ni
  O847     1.0000 0.03483  0.03483  0.27468  Biso   1.000  O
  O848     1.0000 0.03396  0.03396  0.22077  Biso   1.000  O
  N40      1.0000 0.10698  0.10698  0.27103  Biso   1.000  N
  C619     1.0000 0.11677  0.11677  0.24169  Biso   1.000  C
  H541     1.0000 0.13280  0.13280  0.24030  Biso   1.000  H
  C620     1.0000 0.10421  0.10421  0.21327  Biso   1.000  C
  H542     1.0000 0.11150  0.11150  0.19300  Biso   1.000  H
  C621     1.0000 0.08051  0.08051  0.21551  Biso   1.000  C
  H543     1.0000 0.07160  0.07160  0.19660  Biso   1.000  H
  C622     1.0000 0.06996  0.06996  0.24544  Biso   1.000  C
  C623     1.0000 0.08388  0.08388  0.27268  Biso   1.000  C
  H544     1.0000 0.07690  0.07690  0.29320  Biso   1.000  H
  C624     1.0000 0.04428  0.04428  0.24753  Biso   1.000  C
  Ni41     1.0000 0.37177  0.37177  0.31261  Biso   1.000  Ni
  O849     1.0000 0.46517  0.46517  0.27468  Biso   1.000  O
  O850     1.0000 0.46604  0.46604  0.22077  Biso   1.000  O
  N41      1.0000 0.39302  0.39302  0.27103  Biso   1.000  N
  C625     1.0000 0.38323  0.38323  0.24169  Biso   1.000  C
  H545     1.0000 0.36720  0.36720  0.24030  Biso   1.000  H
  C626     1.0000 0.39579  0.39579  0.21327  Biso   1.000  C
  H546     1.0000 0.38850  0.38850  0.19300  Biso   1.000  H
  C627     1.0000 0.41949  0.41949  0.21551  Biso   1.000  C
  H547     1.0000 0.42840  0.42840  0.19660  Biso   1.000  H
  C628     1.0000 0.43004  0.43004  0.24544  Biso   1.000  C
  C629     1.0000 0.41612  0.41612  0.27268  Biso   1.000  C
  H548     1.0000 0.42310  0.42310  0.29320  Biso   1.000  H
  C630     1.0000 0.45572  0.45572  0.24753  Biso   1.000  C
  Ni42     1.0000 0.37177  0.87177  0.81261  Biso   1.000  Ni
  O851     1.0000 0.46517  0.96517  0.77468  Biso   1.000  O
  O852     1.0000 0.46604  0.96604  0.72077  Biso   1.000  O
  N42      1.0000 0.39302  0.89302  0.77103  Biso   1.000  N
  C631     1.0000 0.38323  0.88323  0.74169  Biso   1.000  C
  H549     1.0000 0.36720  0.86720  0.74030  Biso   1.000  H
  C632     1.0000 0.39579  0.89579  0.71327  Biso   1.000  C
  H550     1.0000 0.38850  0.88850  0.69300  Biso   1.000  H
  C633     1.0000 0.41949  0.91949  0.71551  Biso   1.000  C
  H551     1.0000 0.42840  0.92840  0.69660  Biso   1.000  H
  C634     1.0000 0.43004  0.93004  0.74544  Biso   1.000  C
  C635     1.0000 0.41612  0.91612  0.77268  Biso   1.000  C
  H552     1.0000 0.42310  0.92310  0.79320  Biso   1.000  H
  C636     1.0000 0.45572  0.95572  0.74753  Biso   1.000  C
  Ni43     1.0000 0.87177  0.37177  0.81261  Biso   1.000  Ni
  O853     1.0000 0.96517  0.46517  0.77468  Biso   1.000  O
  O854     1.0000 0.96604  0.46604  0.72077  Biso   1.000  O
  N43      1.0000 0.89302  0.39302  0.77103  Biso   1.000  N
  C637     1.0000 0.88323  0.38323  0.74169  Biso   1.000  C
  H553     1.0000 0.86720  0.36720  0.74030  Biso   1.000  H
  C638     1.0000 0.89579  0.39579  0.71327  Biso   1.000  C
  H554     1.0000 0.88850  0.38850  0.69300  Biso   1.000  H
  C639     1.0000 0.91949  0.41949  0.71551  Biso   1.000  C
  H555     1.0000 0.92840  0.42840  0.69660  Biso   1.000  H
  C640     1.0000 0.93004  0.43004  0.74544  Biso   1.000  C
  C641     1.0000 0.91612  0.41612  0.77268  Biso   1.000  C
  H556     1.0000 0.92310  0.42310  0.79320  Biso   1.000  H
  C642     1.0000 0.95572  0.45572  0.74753  Biso   1.000  C
  Ni44     1.0000 0.87177  0.87177  0.31261  Biso   1.000  Ni
  O855     1.0000 0.96517  0.96517  0.27468  Biso   1.000  O
  O856     1.0000 0.96604  0.96604  0.22077  Biso   1.000  O
  N44      1.0000 0.89302  0.89302  0.27103  Biso   1.000  N
  C643     1.0000 0.88323  0.88323  0.24169  Biso   1.000  C
  H557     1.0000 0.86720  0.86720  0.24030  Biso   1.000  H
  C644     1.0000 0.89579  0.89579  0.21327  Biso   1.000  C
  H558     1.0000 0.88850  0.88850  0.19300  Biso   1.000  H
  C645     1.0000 0.91949  0.91949  0.21551  Biso   1.000  C
  H559     1.0000 0.92840  0.92840  0.19660  Biso   1.000  H
  C646     1.0000 0.93004  0.93004  0.24544  Biso   1.000  C
  C647     1.0000 0.91612  0.91612  0.27268  Biso   1.000  C
  H560     1.0000 0.92310  0.92310  0.29320  Biso   1.000  H
  C648     1.0000 0.95572  0.95572  0.24753  Biso   1.000  C
  Ni45     1.0000 0.62823  0.37177  0.68739  Biso   1.000  Ni
  O857     1.0000 0.53483  0.46517  0.72532  Biso   1.000  O
  O858     1.0000 0.53396  0.46604  0.77923  Biso   1.000  O
  N45      1.0000 0.60698  0.39302  0.72897  Biso   1.000  N
  C649     1.0000 0.61677  0.38323  0.75831  Biso   1.000  C
  H561     1.0000 0.63280  0.36720  0.75970  Biso   1.000  H
  C650     1.0000 0.60421  0.39579  0.78673  Biso   1.000  C
  H562     1.0000 0.61150  0.38850  0.80700  Biso   1.000  H
  C651     1.0000 0.58051  0.41949  0.78449  Biso   1.000  C
  H563     1.0000 0.57160  0.42840  0.80340  Biso   1.000  H
  C652     1.0000 0.56996  0.43004  0.75456  Biso   1.000  C
  C653     1.0000 0.58388  0.41612  0.72732  Biso   1.000  C
  H564     1.0000 0.57690  0.42310  0.70680  Biso   1.000  H
  C654     1.0000 0.54428  0.45572  0.75247  Biso   1.000  C
  Ni46     1.0000 0.62823  0.87177  0.18739  Biso   1.000  Ni
  O859     1.0000 0.53483  0.96517  0.22532  Biso   1.000  O
  O860     1.0000 0.53396  0.96604  0.27923  Biso   1.000  O
  N46      1.0000 0.60698  0.89302  0.22897  Biso   1.000  N
  C655     1.0000 0.61677  0.88323  0.25831  Biso   1.000  C
  H565     1.0000 0.63280  0.86720  0.25970  Biso   1.000  H
  C656     1.0000 0.60421  0.89579  0.28673  Biso   1.000  C
  H566     1.0000 0.61150  0.88850  0.30700  Biso   1.000  H
  C657     1.0000 0.58051  0.91949  0.28449  Biso   1.000  C
  H567     1.0000 0.57160  0.92840  0.30340  Biso   1.000  H
  C658     1.0000 0.56996  0.93004  0.25456  Biso   1.000  C
  C659     1.0000 0.58388  0.91612  0.22732  Biso   1.000  C
  H568     1.0000 0.57690  0.92310  0.20680  Biso   1.000  H
  C660     1.0000 0.54428  0.95572  0.25247  Biso   1.000  C
  Ni47     1.0000 0.12823  0.37177  0.18739  Biso   1.000  Ni
  O861     1.0000 0.03483  0.46517  0.22532  Biso   1.000  O
  O862     1.0000 0.03396  0.46604  0.27923  Biso   1.000  O
  N47      1.0000 0.10698  0.39302  0.22897  Biso   1.000  N
  C661     1.0000 0.11677  0.38323  0.25831  Biso   1.000  C
  H569     1.0000 0.13280  0.36720  0.25970  Biso   1.000  H
  C662     1.0000 0.10421  0.39579  0.28673  Biso   1.000  C
  H570     1.0000 0.11150  0.38850  0.30700  Biso   1.000  H
  C663     1.0000 0.08051  0.41949  0.28449  Biso   1.000  C
  H571     1.0000 0.07160  0.42840  0.30340  Biso   1.000  H
  C664     1.0000 0.06996  0.43004  0.25456  Biso   1.000  C
  C665     1.0000 0.08388  0.41612  0.22732  Biso   1.000  C
  H572     1.0000 0.07690  0.42310  0.20680  Biso   1.000  H
  C666     1.0000 0.04428  0.45572  0.25247  Biso   1.000  C
  Ni48     1.0000 0.12823  0.87177  0.68739  Biso   1.000  Ni
  O863     1.0000 0.03483  0.96517  0.72532  Biso   1.000  O
  O864     1.0000 0.03396  0.96604  0.77923  Biso   1.000  O
  N48      1.0000 0.10698  0.89302  0.72897  Biso   1.000  N
  C667     1.0000 0.11677  0.88323  0.75831  Biso   1.000  C
  H573     1.0000 0.13280  0.86720  0.75970  Biso   1.000  H
  C668     1.0000 0.10421  0.89579  0.78673  Biso   1.000  C
  H574     1.0000 0.11150  0.88850  0.80700  Biso   1.000  H
  C669     1.0000 0.08051  0.91949  0.78449  Biso   1.000  C
  H575     1.0000 0.07160  0.92840  0.80340  Biso   1.000  H
  C670     1.0000 0.06996  0.93004  0.75456  Biso   1.000  C
  C671     1.0000 0.08388  0.91612  0.72732  Biso   1.000  C
  H576     1.0000 0.07690  0.92310  0.70680  Biso   1.000  H
  C672     1.0000 0.04428  0.95572  0.75247  Biso   1.000  C
  Ni49     1.0000 0.37177  0.68739  0.37177  Biso   1.000  Ni
  O865     1.0000 0.46517  0.72532  0.46517  Biso   1.000  O
  O866     1.0000 0.46604  0.77923  0.46604  Biso   1.000  O
  N49      1.0000 0.39302  0.72897  0.39302  Biso   1.000  N
  C673     1.0000 0.38323  0.75831  0.38323  Biso   1.000  C
  H577     1.0000 0.36720  0.75970  0.36720  Biso   1.000  H
  C674     1.0000 0.39579  0.78673  0.39579  Biso   1.000  C
  H578     1.0000 0.38850  0.80700  0.38850  Biso   1.000  H
  C675     1.0000 0.41949  0.78449  0.41949  Biso   1.000  C
  H579     1.0000 0.42840  0.80340  0.42840  Biso   1.000  H
  C676     1.0000 0.43004  0.75456  0.43004  Biso   1.000  C
  C677     1.0000 0.41612  0.72732  0.41612  Biso   1.000  C
  H580     1.0000 0.42310  0.70680  0.42310  Biso   1.000  H
  C678     1.0000 0.45572  0.75247  0.45572  Biso   1.000  C
  Ni50     1.0000 0.37177  0.18739  0.87177  Biso   1.000  Ni
  O867     1.0000 0.46517  0.22532  0.96517  Biso   1.000  O
  O868     1.0000 0.46604  0.27923  0.96604  Biso   1.000  O
  N50      1.0000 0.39302  0.22897  0.89302  Biso   1.000  N
  C679     1.0000 0.38323  0.25831  0.88323  Biso   1.000  C
  H581     1.0000 0.36720  0.25970  0.86720  Biso   1.000  H
  C680     1.0000 0.39579  0.28673  0.89579  Biso   1.000  C
  H582     1.0000 0.38850  0.30700  0.88850  Biso   1.000  H
  C681     1.0000 0.41949  0.28449  0.91949  Biso   1.000  C
  H583     1.0000 0.42840  0.30340  0.92840  Biso   1.000  H
  C682     1.0000 0.43004  0.25456  0.93004  Biso   1.000  C
  C683     1.0000 0.41612  0.22732  0.91612  Biso   1.000  C
  H584     1.0000 0.42310  0.20680  0.92310  Biso   1.000  H
  C684     1.0000 0.45572  0.25247  0.95572  Biso   1.000  C
  Ni51     1.0000 0.87177  0.68739  0.87177  Biso   1.000  Ni
  O869     1.0000 0.96517  0.72532  0.96517  Biso   1.000  O
  O870     1.0000 0.96604  0.77923  0.96604  Biso   1.000  O
  N51      1.0000 0.89302  0.72897  0.89302  Biso   1.000  N
  C685     1.0000 0.88323  0.75831  0.88323  Biso   1.000  C
  H585     1.0000 0.86720  0.75970  0.86720  Biso   1.000  H
  C686     1.0000 0.89579  0.78673  0.89579  Biso   1.000  C
  H586     1.0000 0.88850  0.80700  0.88850  Biso   1.000  H
  C687     1.0000 0.91949  0.78449  0.91949  Biso   1.000  C
  H587     1.0000 0.92840  0.80340  0.92840  Biso   1.000  H
  C688     1.0000 0.93004  0.75456  0.93004  Biso   1.000  C
  C689     1.0000 0.91612  0.72732  0.91612  Biso   1.000  C
  H588     1.0000 0.92310  0.70680  0.92310  Biso   1.000  H
  C690     1.0000 0.95572  0.75247  0.95572  Biso   1.000  C
  Ni52     1.0000 0.87177  0.18739  0.37177  Biso   1.000  Ni
  O871     1.0000 0.96517  0.22532  0.46517  Biso   1.000  O
  O872     1.0000 0.96604  0.27923  0.46604  Biso   1.000  O
  N52      1.0000 0.89302  0.22897  0.39302  Biso   1.000  N
  C691     1.0000 0.88323  0.25831  0.38323  Biso   1.000  C
  H589     1.0000 0.86720  0.25970  0.36720  Biso   1.000  H
  C692     1.0000 0.89579  0.28673  0.39579  Biso   1.000  C
  H590     1.0000 0.88850  0.30700  0.38850  Biso   1.000  H
  C693     1.0000 0.91949  0.28449  0.41949  Biso   1.000  C
  H591     1.0000 0.92840  0.30340  0.42840  Biso   1.000  H
  C694     1.0000 0.93004  0.25456  0.43004  Biso   1.000  C
  C695     1.0000 0.91612  0.22732  0.41612  Biso   1.000  C
  H592     1.0000 0.92310  0.20680  0.42310  Biso   1.000  H
  C696     1.0000 0.95572  0.25247  0.45572  Biso   1.000  C
  Ni53     1.0000 0.62823  0.31261  0.37177  Biso   1.000  Ni
  O873     1.0000 0.53483  0.27468  0.46517  Biso   1.000  O
  O874     1.0000 0.53396  0.22077  0.46604  Biso   1.000  O
  N53      1.0000 0.60698  0.27103  0.39302  Biso   1.000  N
  C697     1.0000 0.61677  0.24169  0.38323  Biso   1.000  C
  H593     1.0000 0.63280  0.24030  0.36720  Biso   1.000  H
  C698     1.0000 0.60421  0.21327  0.39579  Biso   1.000  C
  H594     1.0000 0.61150  0.19300  0.38850  Biso   1.000  H
  C699     1.0000 0.58051  0.21551  0.41949  Biso   1.000  C
  H595     1.0000 0.57160  0.19660  0.42840  Biso   1.000  H
  C700     1.0000 0.56996  0.24544  0.43004  Biso   1.000  C
  C701     1.0000 0.58388  0.27268  0.41612  Biso   1.000  C
  H596     1.0000 0.57690  0.29320  0.42310  Biso   1.000  H
  C702     1.0000 0.54428  0.24753  0.45572  Biso   1.000  C
  Ni54     1.0000 0.62823  0.81261  0.87177  Biso   1.000  Ni
  O875     1.0000 0.53483  0.77468  0.96517  Biso   1.000  O
  O876     1.0000 0.53396  0.72077  0.96604  Biso   1.000  O
  N54      1.0000 0.60698  0.77103  0.89302  Biso   1.000  N
  C703     1.0000 0.61677  0.74169  0.88323  Biso   1.000  C
  H597     1.0000 0.63280  0.74030  0.86720  Biso   1.000  H
  C704     1.0000 0.60421  0.71327  0.89579  Biso   1.000  C
  H598     1.0000 0.61150  0.69300  0.88850  Biso   1.000  H
  C705     1.0000 0.58051  0.71551  0.91949  Biso   1.000  C
  H599     1.0000 0.57160  0.69660  0.92840  Biso   1.000  H
  C706     1.0000 0.56996  0.74544  0.93004  Biso   1.000  C
  C707     1.0000 0.58388  0.77268  0.91612  Biso   1.000  C
  H600     1.0000 0.57690  0.79320  0.92310  Biso   1.000  H
  C708     1.0000 0.54428  0.74753  0.95572  Biso   1.000  C
  Ni55     1.0000 0.12823  0.31261  0.87177  Biso   1.000  Ni
  O877     1.0000 0.03483  0.27468  0.96517  Biso   1.000  O
  O878     1.0000 0.03396  0.22077  0.96604  Biso   1.000  O
  N55      1.0000 0.10698  0.27103  0.89302  Biso   1.000  N
  C709     1.0000 0.11677  0.24169  0.88323  Biso   1.000  C
  H601     1.0000 0.13280  0.24030  0.86720  Biso   1.000  H
  C710     1.0000 0.10421  0.21327  0.89579  Biso   1.000  C
  H602     1.0000 0.11150  0.19300  0.88850  Biso   1.000  H
  C711     1.0000 0.08051  0.21551  0.91949  Biso   1.000  C
  H603     1.0000 0.07160  0.19660  0.92840  Biso   1.000  H
  C712     1.0000 0.06996  0.24544  0.93004  Biso   1.000  C
  C713     1.0000 0.08388  0.27268  0.91612  Biso   1.000  C
  H604     1.0000 0.07690  0.29320  0.92310  Biso   1.000  H
  C714     1.0000 0.04428  0.24753  0.95572  Biso   1.000  C
  Ni56     1.0000 0.12823  0.81261  0.37177  Biso   1.000  Ni
  O879     1.0000 0.03483  0.77468  0.46517  Biso   1.000  O
  O880     1.0000 0.03396  0.72077  0.46604  Biso   1.000  O
  N56      1.0000 0.10698  0.77103  0.39302  Biso   1.000  N
  C715     1.0000 0.11677  0.74169  0.38323  Biso   1.000  C
  H605     1.0000 0.13280  0.74030  0.36720  Biso   1.000  H
  C716     1.0000 0.10421  0.71327  0.39579  Biso   1.000  C
  H606     1.0000 0.11150  0.69300  0.38850  Biso   1.000  H
  C717     1.0000 0.08051  0.71551  0.41949  Biso   1.000  C
  H607     1.0000 0.07160  0.69660  0.42840  Biso   1.000  H
  C718     1.0000 0.06996  0.74544  0.43004  Biso   1.000  C
  C719     1.0000 0.08388  0.77268  0.41612  Biso   1.000  C
  H608     1.0000 0.07690  0.79320  0.42310  Biso   1.000  H
  C720     1.0000 0.04428  0.74753  0.45572  Biso   1.000  C
  Ni57     1.0000 0.37177  0.31261  0.62823  Biso   1.000  Ni
  O881     1.0000 0.46517  0.27468  0.53483  Biso   1.000  O
  O882     1.0000 0.46604  0.22077  0.53396  Biso   1.000  O
  N57      1.0000 0.39302  0.27103  0.60698  Biso   1.000  N
  C721     1.0000 0.38323  0.24169  0.61677  Biso   1.000  C
  H609     1.0000 0.36720  0.24030  0.63280  Biso   1.000  H
  C722     1.0000 0.39579  0.21327  0.60421  Biso   1.000  C
  H610     1.0000 0.38850  0.19300  0.61150  Biso   1.000  H
  C723     1.0000 0.41949  0.21551  0.58051  Biso   1.000  C
  H611     1.0000 0.42840  0.19660  0.57160  Biso   1.000  H
  C724     1.0000 0.43004  0.24544  0.56996  Biso   1.000  C
  C725     1.0000 0.41612  0.27268  0.58388  Biso   1.000  C
  H612     1.0000 0.42310  0.29320  0.57690  Biso   1.000  H
  C726     1.0000 0.45572  0.24753  0.54428  Biso   1.000  C
  Ni58     1.0000 0.37177  0.81261  0.12823  Biso   1.000  Ni
  O883     1.0000 0.46517  0.77468  0.03483  Biso   1.000  O
  O884     1.0000 0.46604  0.72077  0.03396  Biso   1.000  O
  N58      1.0000 0.39302  0.77103  0.10698  Biso   1.000  N
  C727     1.0000 0.38323  0.74169  0.11677  Biso   1.000  C
  H613     1.0000 0.36720  0.74030  0.13280  Biso   1.000  H
  C728     1.0000 0.39579  0.71327  0.10421  Biso   1.000  C
  H614     1.0000 0.38850  0.69300  0.11150  Biso   1.000  H
  C729     1.0000 0.41949  0.71551  0.08051  Biso   1.000  C
  H615     1.0000 0.42840  0.69660  0.07160  Biso   1.000  H
  C730     1.0000 0.43004  0.74544  0.06996  Biso   1.000  C
  C731     1.0000 0.41612  0.77268  0.08388  Biso   1.000  C
  H616     1.0000 0.42310  0.79320  0.07690  Biso   1.000  H
  C732     1.0000 0.45572  0.74753  0.04428  Biso   1.000  C
  Ni59     1.0000 0.87177  0.31261  0.12823  Biso   1.000  Ni
  O885     1.0000 0.96517  0.27468  0.03483  Biso   1.000  O
  O886     1.0000 0.96604  0.22077  0.03396  Biso   1.000  O
  N59      1.0000 0.89302  0.27103  0.10698  Biso   1.000  N
  C733     1.0000 0.88323  0.24169  0.11677  Biso   1.000  C
  H617     1.0000 0.86720  0.24030  0.13280  Biso   1.000  H
  C734     1.0000 0.89579  0.21327  0.10421  Biso   1.000  C
  H618     1.0000 0.88850  0.19300  0.11150  Biso   1.000  H
  C735     1.0000 0.91949  0.21551  0.08051  Biso   1.000  C
  H619     1.0000 0.92840  0.19660  0.07160  Biso   1.000  H
  C736     1.0000 0.93004  0.24544  0.06996  Biso   1.000  C
  C737     1.0000 0.91612  0.27268  0.08388  Biso   1.000  C
  H620     1.0000 0.92310  0.29320  0.07690  Biso   1.000  H
  C738     1.0000 0.95572  0.24753  0.04428  Biso   1.000  C
  Ni60     1.0000 0.87177  0.81261  0.62823  Biso   1.000  Ni
  O887     1.0000 0.96517  0.77468  0.53483  Biso   1.000  O
  O888     1.0000 0.96604  0.72077  0.53396  Biso   1.000  O
  N60      1.0000 0.89302  0.77103  0.60698  Biso   1.000  N
  C739     1.0000 0.88323  0.74169  0.61677  Biso   1.000  C
  H621     1.0000 0.86720  0.74030  0.63280  Biso   1.000  H
  C740     1.0000 0.89579  0.71327  0.60421  Biso   1.000  C
  H622     1.0000 0.88850  0.69300  0.61150  Biso   1.000  H
  C741     1.0000 0.91949  0.71551  0.58051  Biso   1.000  C
  H623     1.0000 0.92840  0.69660  0.57160  Biso   1.000  H
  C742     1.0000 0.93004  0.74544  0.56996  Biso   1.000  C
  C743     1.0000 0.91612  0.77268  0.58388  Biso   1.000  C
  H624     1.0000 0.92310  0.79320  0.57690  Biso   1.000  H
  C744     1.0000 0.95572  0.74753  0.54428  Biso   1.000  C
  Ni61     1.0000 0.62823  0.68739  0.62823  Biso   1.000  Ni
  O889     1.0000 0.53483  0.72532  0.53483  Biso   1.000  O
  O890     1.0000 0.53396  0.77923  0.53396  Biso   1.000  O
  N61      1.0000 0.60698  0.72897  0.60698  Biso   1.000  N
  C745     1.0000 0.61677  0.75831  0.61677  Biso   1.000  C
  H625     1.0000 0.63280  0.75970  0.63280  Biso   1.000  H
  C746     1.0000 0.60421  0.78673  0.60421  Biso   1.000  C
  H626     1.0000 0.61150  0.80700  0.61150  Biso   1.000  H
  C747     1.0000 0.58051  0.78449  0.58051  Biso   1.000  C
  H627     1.0000 0.57160  0.80340  0.57160  Biso   1.000  H
  C748     1.0000 0.56996  0.75456  0.56996  Biso   1.000  C
  C749     1.0000 0.58388  0.72732  0.58388  Biso   1.000  C
  H628     1.0000 0.57690  0.70680  0.57690  Biso   1.000  H
  C750     1.0000 0.54428  0.75247  0.54428  Biso   1.000  C
  Ni62     1.0000 0.62823  0.18739  0.12823  Biso   1.000  Ni
  O891     1.0000 0.53483  0.22532  0.03483  Biso   1.000  O
  O892     1.0000 0.53396  0.27923  0.03396  Biso   1.000  O
  N62      1.0000 0.60698  0.22897  0.10698  Biso   1.000  N
  C751     1.0000 0.61677  0.25831  0.11677  Biso   1.000  C
  H629     1.0000 0.63280  0.25970  0.13280  Biso   1.000  H
  C752     1.0000 0.60421  0.28673  0.10421  Biso   1.000  C
  H630     1.0000 0.61150  0.30700  0.11150  Biso   1.000  H
  C753     1.0000 0.58051  0.28449  0.08051  Biso   1.000  C
  H631     1.0000 0.57160  0.30340  0.07160  Biso   1.000  H
  C754     1.0000 0.56996  0.25456  0.06996  Biso   1.000  C
  C755     1.0000 0.58388  0.22732  0.08388  Biso   1.000  C
  H632     1.0000 0.57690  0.20680  0.07690  Biso   1.000  H
  C756     1.0000 0.54428  0.25247  0.04428  Biso   1.000  C
  Ni63     1.0000 0.12823  0.68739  0.12823  Biso   1.000  Ni
  O893     1.0000 0.03483  0.72532  0.03483  Biso   1.000  O
  O894     1.0000 0.03396  0.77923  0.03396  Biso   1.000  O
  N63      1.0000 0.10698  0.72897  0.10698  Biso   1.000  N
  C757     1.0000 0.11677  0.75831  0.11677  Biso   1.000  C
  H633     1.0000 0.13280  0.75970  0.13280  Biso   1.000  H
  C758     1.0000 0.10421  0.78673  0.10421  Biso   1.000  C
  H634     1.0000 0.11150  0.80700  0.11150  Biso   1.000  H
  C759     1.0000 0.08051  0.78449  0.08051  Biso   1.000  C
  H635     1.0000 0.07160  0.80340  0.07160  Biso   1.000  H
  C760     1.0000 0.06996  0.75456  0.06996  Biso   1.000  C
  C761     1.0000 0.08388  0.72732  0.08388  Biso   1.000  C
  H636     1.0000 0.07690  0.70680  0.07690  Biso   1.000  H
  C762     1.0000 0.04428  0.75247  0.04428  Biso   1.000  C
  Ni64     1.0000 0.12823  0.18739  0.62823  Biso   1.000  Ni
  O895     1.0000 0.03483  0.22532  0.53483  Biso   1.000  O
  O896     1.0000 0.03396  0.27923  0.53396  Biso   1.000  O
  N64      1.0000 0.10698  0.22897  0.60698  Biso   1.000  N
  C763     1.0000 0.11677  0.25831  0.61677  Biso   1.000  C
  H637     1.0000 0.13280  0.25970  0.63280  Biso   1.000  H
  C764     1.0000 0.10421  0.28673  0.60421  Biso   1.000  C
  H638     1.0000 0.11150  0.30700  0.61150  Biso   1.000  H
  C765     1.0000 0.08051  0.28449  0.58051  Biso   1.000  C
  H639     1.0000 0.07160  0.30340  0.57160  Biso   1.000  H
  C766     1.0000 0.06996  0.25456  0.56996  Biso   1.000  C
  C767     1.0000 0.08388  0.22732  0.58388  Biso   1.000  C
  H640     1.0000 0.07690  0.20680  0.57690  Biso   1.000  H
  C768     1.0000 0.04428  0.25247  0.54428  Biso   1.000  C
  Ni65     1.0000 0.68739  0.62823  0.62823  Biso   1.000  Ni
  O897     1.0000 0.72532  0.53483  0.53483  Biso   1.000  O
  O898     1.0000 0.77923  0.53396  0.53396  Biso   1.000  O
  N65      1.0000 0.72897  0.60698  0.60698  Biso   1.000  N
  C769     1.0000 0.75831  0.61677  0.61677  Biso   1.000  C
  H641     1.0000 0.75970  0.63280  0.63280  Biso   1.000  H
  C770     1.0000 0.78673  0.60421  0.60421  Biso   1.000  C
  H642     1.0000 0.80700  0.61150  0.61150  Biso   1.000  H
  C771     1.0000 0.78449  0.58051  0.58051  Biso   1.000  C
  H643     1.0000 0.80340  0.57160  0.57160  Biso   1.000  H
  C772     1.0000 0.75456  0.56996  0.56996  Biso   1.000  C
  C773     1.0000 0.72732  0.58388  0.58388  Biso   1.000  C
  H644     1.0000 0.70680  0.57690  0.57690  Biso   1.000  H
  C774     1.0000 0.75247  0.54428  0.54428  Biso   1.000  C
  Ni66     1.0000 0.68739  0.12823  0.12823  Biso   1.000  Ni
  O899     1.0000 0.72532  0.03483  0.03483  Biso   1.000  O
  O900     1.0000 0.77923  0.03396  0.03396  Biso   1.000  O
  N66      1.0000 0.72897  0.10698  0.10698  Biso   1.000  N
  C775     1.0000 0.75831  0.11677  0.11677  Biso   1.000  C
  H645     1.0000 0.75970  0.13280  0.13280  Biso   1.000  H
  C776     1.0000 0.78673  0.10421  0.10421  Biso   1.000  C
  H646     1.0000 0.80700  0.11150  0.11150  Biso   1.000  H
  C777     1.0000 0.78449  0.08051  0.08051  Biso   1.000  C
  H647     1.0000 0.80340  0.07160  0.07160  Biso   1.000  H
  C778     1.0000 0.75456  0.06996  0.06996  Biso   1.000  C
  C779     1.0000 0.72732  0.08388  0.08388  Biso   1.000  C
  H648     1.0000 0.70680  0.07690  0.07690  Biso   1.000  H
  C780     1.0000 0.75247  0.04428  0.04428  Biso   1.000  C
  Ni67     1.0000 0.18739  0.62823  0.12823  Biso   1.000  Ni
  O901     1.0000 0.22532  0.53483  0.03483  Biso   1.000  O
  O902     1.0000 0.27923  0.53396  0.03396  Biso   1.000  O
  N67      1.0000 0.22897  0.60698  0.10698  Biso   1.000  N
  C781     1.0000 0.25831  0.61677  0.11677  Biso   1.000  C
  H649     1.0000 0.25970  0.63280  0.13280  Biso   1.000  H
  C782     1.0000 0.28673  0.60421  0.10421  Biso   1.000  C
  H650     1.0000 0.30700  0.61150  0.11150  Biso   1.000  H
  C783     1.0000 0.28449  0.58051  0.08051  Biso   1.000  C
  H651     1.0000 0.30340  0.57160  0.07160  Biso   1.000  H
  C784     1.0000 0.25456  0.56996  0.06996  Biso   1.000  C
  C785     1.0000 0.22732  0.58388  0.08388  Biso   1.000  C
  H652     1.0000 0.20680  0.57690  0.07690  Biso   1.000  H
  C786     1.0000 0.25247  0.54428  0.04428  Biso   1.000  C
  Ni68     1.0000 0.18739  0.12823  0.62823  Biso   1.000  Ni
  O903     1.0000 0.22532  0.03483  0.53483  Biso   1.000  O
  O904     1.0000 0.27923  0.03396  0.53396  Biso   1.000  O
  N68      1.0000 0.22897  0.10698  0.60698  Biso   1.000  N
  C787     1.0000 0.25831  0.11677  0.61677  Biso   1.000  C
  H653     1.0000 0.25970  0.13280  0.63280  Biso   1.000  H
  C788     1.0000 0.28673  0.10421  0.60421  Biso   1.000  C
  H654     1.0000 0.30700  0.11150  0.61150  Biso   1.000  H
  C789     1.0000 0.28449  0.08051  0.58051  Biso   1.000  C
  H655     1.0000 0.30340  0.07160  0.57160  Biso   1.000  H
  C790     1.0000 0.25456  0.06996  0.56996  Biso   1.000  C
  C791     1.0000 0.22732  0.08388  0.58388  Biso   1.000  C
  H656     1.0000 0.20680  0.07690  0.57690  Biso   1.000  H
  C792     1.0000 0.25247  0.04428  0.54428  Biso   1.000  C
  Ni69     1.0000 0.31261  0.62823  0.37177  Biso   1.000  Ni
  O905     1.0000 0.27468  0.53483  0.46517  Biso   1.000  O
  O906     1.0000 0.22077  0.53396  0.46604  Biso   1.000  O
  N69      1.0000 0.27103  0.60698  0.39302  Biso   1.000  N
  C793     1.0000 0.24169  0.61677  0.38323  Biso   1.000  C
  H657     1.0000 0.24030  0.63280  0.36720  Biso   1.000  H
  C794     1.0000 0.21327  0.60421  0.39579  Biso   1.000  C
  H658     1.0000 0.19300  0.61150  0.38850  Biso   1.000  H
  C795     1.0000 0.21551  0.58051  0.41949  Biso   1.000  C
  H659     1.0000 0.19660  0.57160  0.42840  Biso   1.000  H
  C796     1.0000 0.24544  0.56996  0.43004  Biso   1.000  C
  C797     1.0000 0.27268  0.58388  0.41612  Biso   1.000  C
  H660     1.0000 0.29320  0.57690  0.42310  Biso   1.000  H
  C798     1.0000 0.24753  0.54428  0.45572  Biso   1.000  C
  Ni70     1.0000 0.31261  0.12823  0.87177  Biso   1.000  Ni
  O907     1.0000 0.27468  0.03483  0.96517  Biso   1.000  O
  O908     1.0000 0.22077  0.03396  0.96604  Biso   1.000  O
  N70      1.0000 0.27103  0.10698  0.89302  Biso   1.000  N
  C799     1.0000 0.24169  0.11677  0.88323  Biso   1.000  C
  H661     1.0000 0.24030  0.13280  0.86720  Biso   1.000  H
  C800     1.0000 0.21327  0.10421  0.89579  Biso   1.000  C
  H662     1.0000 0.19300  0.11150  0.88850  Biso   1.000  H
  C801     1.0000 0.21551  0.08051  0.91949  Biso   1.000  C
  H663     1.0000 0.19660  0.07160  0.92840  Biso   1.000  H
  C802     1.0000 0.24544  0.06996  0.93004  Biso   1.000  C
  C803     1.0000 0.27268  0.08388  0.91612  Biso   1.000  C
  H664     1.0000 0.29320  0.07690  0.92310  Biso   1.000  H
  C804     1.0000 0.24753  0.04428  0.95572  Biso   1.000  C
  Ni71     1.0000 0.81261  0.62823  0.87177  Biso   1.000  Ni
  O909     1.0000 0.77468  0.53483  0.96517  Biso   1.000  O
  O910     1.0000 0.72077  0.53396  0.96604  Biso   1.000  O
  N71      1.0000 0.77103  0.60698  0.89302  Biso   1.000  N
  C805     1.0000 0.74169  0.61677  0.88323  Biso   1.000  C
  H665     1.0000 0.74030  0.63280  0.86720  Biso   1.000  H
  C806     1.0000 0.71327  0.60421  0.89579  Biso   1.000  C
  H666     1.0000 0.69300  0.61150  0.88850  Biso   1.000  H
  C807     1.0000 0.71551  0.58051  0.91949  Biso   1.000  C
  H667     1.0000 0.69660  0.57160  0.92840  Biso   1.000  H
  C808     1.0000 0.74544  0.56996  0.93004  Biso   1.000  C
  C809     1.0000 0.77268  0.58388  0.91612  Biso   1.000  C
  H668     1.0000 0.79320  0.57690  0.92310  Biso   1.000  H
  C810     1.0000 0.74753  0.54428  0.95572  Biso   1.000  C
  Ni72     1.0000 0.81261  0.12823  0.37177  Biso   1.000  Ni
  O911     1.0000 0.77468  0.03483  0.46517  Biso   1.000  O
  O912     1.0000 0.72077  0.03396  0.46604  Biso   1.000  O
  N72      1.0000 0.77103  0.10698  0.39302  Biso   1.000  N
  C811     1.0000 0.74169  0.11677  0.38323  Biso   1.000  C
  H669     1.0000 0.74030  0.13280  0.36720  Biso   1.000  H
  C812     1.0000 0.71327  0.10421  0.39579  Biso   1.000  C
  H670     1.0000 0.69300  0.11150  0.38850  Biso   1.000  H
  C813     1.0000 0.71551  0.08051  0.41949  Biso   1.000  C
  H671     1.0000 0.69660  0.07160  0.42840  Biso   1.000  H
  C814     1.0000 0.74544  0.06996  0.43004  Biso   1.000  C
  C815     1.0000 0.77268  0.08388  0.41612  Biso   1.000  C
  H672     1.0000 0.79320  0.07690  0.42310  Biso   1.000  H
  C816     1.0000 0.74753  0.04428  0.45572  Biso   1.000  C
  Ni73     1.0000 0.31261  0.37177  0.62823  Biso   1.000  Ni
  O913     1.0000 0.27468  0.46517  0.53483  Biso   1.000  O
  O914     1.0000 0.22077  0.46604  0.53396  Biso   1.000  O
  N73      1.0000 0.27103  0.39302  0.60698  Biso   1.000  N
  C817     1.0000 0.24169  0.38323  0.61677  Biso   1.000  C
  H673     1.0000 0.24030  0.36720  0.63280  Biso   1.000  H
  C818     1.0000 0.21327  0.39579  0.60421  Biso   1.000  C
  H674     1.0000 0.19300  0.38850  0.61150  Biso   1.000  H
  C819     1.0000 0.21551  0.41949  0.58051  Biso   1.000  C
  H675     1.0000 0.19660  0.42840  0.57160  Biso   1.000  H
  C820     1.0000 0.24544  0.43004  0.56996  Biso   1.000  C
  C821     1.0000 0.27268  0.41612  0.58388  Biso   1.000  C
  H676     1.0000 0.29320  0.42310  0.57690  Biso   1.000  H
  C822     1.0000 0.24753  0.45572  0.54428  Biso   1.000  C
  Ni74     1.0000 0.31261  0.87177  0.12823  Biso   1.000  Ni
  O915     1.0000 0.27468  0.96517  0.03483  Biso   1.000  O
  O916     1.0000 0.22077  0.96604  0.03396  Biso   1.000  O
  N74      1.0000 0.27103  0.89302  0.10698  Biso   1.000  N
  C823     1.0000 0.24169  0.88323  0.11677  Biso   1.000  C
  H677     1.0000 0.24030  0.86720  0.13280  Biso   1.000  H
  C824     1.0000 0.21327  0.89579  0.10421  Biso   1.000  C
  H678     1.0000 0.19300  0.88850  0.11150  Biso   1.000  H
  C825     1.0000 0.21551  0.91949  0.08051  Biso   1.000  C
  H679     1.0000 0.19660  0.92840  0.07160  Biso   1.000  H
  C826     1.0000 0.24544  0.93004  0.06996  Biso   1.000  C
  C827     1.0000 0.27268  0.91612  0.08388  Biso   1.000  C
  H680     1.0000 0.29320  0.92310  0.07690  Biso   1.000  H
  C828     1.0000 0.24753  0.95572  0.04428  Biso   1.000  C
  Ni75     1.0000 0.81261  0.37177  0.12823  Biso   1.000  Ni
  O917     1.0000 0.77468  0.46517  0.03483  Biso   1.000  O
  O918     1.0000 0.72077  0.46604  0.03396  Biso   1.000  O
  N75      1.0000 0.77103  0.39302  0.10698  Biso   1.000  N
  C829     1.0000 0.74169  0.38323  0.11677  Biso   1.000  C
  H681     1.0000 0.74030  0.36720  0.13280  Biso   1.000  H
  C830     1.0000 0.71327  0.39579  0.10421  Biso   1.000  C
  H682     1.0000 0.69300  0.38850  0.11150  Biso   1.000  H
  C831     1.0000 0.71551  0.41949  0.08051  Biso   1.000  C
  H683     1.0000 0.69660  0.42840  0.07160  Biso   1.000  H
  C832     1.0000 0.74544  0.43004  0.06996  Biso   1.000  C
  C833     1.0000 0.77268  0.41612  0.08388  Biso   1.000  C
  H684     1.0000 0.79320  0.42310  0.07690  Biso   1.000  H
  C834     1.0000 0.74753  0.45572  0.04428  Biso   1.000  C
  Ni76     1.0000 0.81261  0.87177  0.62823  Biso   1.000  Ni
  O919     1.0000 0.77468  0.96517  0.53483  Biso   1.000  O
  O920     1.0000 0.72077  0.96604  0.53396  Biso   1.000  O
  N76      1.0000 0.77103  0.89302  0.60698  Biso   1.000  N
  C835     1.0000 0.74169  0.88323  0.61677  Biso   1.000  C
  H685     1.0000 0.74030  0.86720  0.63280  Biso   1.000  H
  C836     1.0000 0.71327  0.89579  0.60421  Biso   1.000  C
  H686     1.0000 0.69300  0.88850  0.61150  Biso   1.000  H
  C837     1.0000 0.71551  0.91949  0.58051  Biso   1.000  C
  H687     1.0000 0.69660  0.92840  0.57160  Biso   1.000  H
  C838     1.0000 0.74544  0.93004  0.56996  Biso   1.000  C
  C839     1.0000 0.77268  0.91612  0.58388  Biso   1.000  C
  H688     1.0000 0.79320  0.92310  0.57690  Biso   1.000  H
  C840     1.0000 0.74753  0.95572  0.54428  Biso   1.000  C
  Ni77     1.0000 0.68739  0.37177  0.37177  Biso   1.000  Ni
  O921     1.0000 0.72532  0.46517  0.46517  Biso   1.000  O
  O922     1.0000 0.77923  0.46604  0.46604  Biso   1.000  O
  N77      1.0000 0.72897  0.39302  0.39302  Biso   1.000  N
  C841     1.0000 0.75831  0.38323  0.38323  Biso   1.000  C
  H689     1.0000 0.75970  0.36720  0.36720  Biso   1.000  H
  C842     1.0000 0.78673  0.39579  0.39579  Biso   1.000  C
  H690     1.0000 0.80700  0.38850  0.38850  Biso   1.000  H
  C843     1.0000 0.78449  0.41949  0.41949  Biso   1.000  C
  H691     1.0000 0.80340  0.42840  0.42840  Biso   1.000  H
  C844     1.0000 0.75456  0.43004  0.43004  Biso   1.000  C
  C845     1.0000 0.72732  0.41612  0.41612  Biso   1.000  C
  H692     1.0000 0.70680  0.42310  0.42310  Biso   1.000  H
  C846     1.0000 0.75247  0.45572  0.45572  Biso   1.000  C
  Ni78     1.0000 0.68739  0.87177  0.87177  Biso   1.000  Ni
  O923     1.0000 0.72532  0.96517  0.96517  Biso   1.000  O
  O924     1.0000 0.77923  0.96604  0.96604  Biso   1.000  O
  N78      1.0000 0.72897  0.89302  0.89302  Biso   1.000  N
  C847     1.0000 0.75831  0.88323  0.88323  Biso   1.000  C
  H693     1.0000 0.75970  0.86720  0.86720  Biso   1.000  H
  C848     1.0000 0.78673  0.89579  0.89579  Biso   1.000  C
  H694     1.0000 0.80700  0.88850  0.88850  Biso   1.000  H
  C849     1.0000 0.78449  0.91949  0.91949  Biso   1.000  C
  H695     1.0000 0.80340  0.92840  0.92840  Biso   1.000  H
  C850     1.0000 0.75456  0.93004  0.93004  Biso   1.000  C
  C851     1.0000 0.72732  0.91612  0.91612  Biso   1.000  C
  H696     1.0000 0.70680  0.92310  0.92310  Biso   1.000  H
  C852     1.0000 0.75247  0.95572  0.95572  Biso   1.000  C
  Ni79     1.0000 0.18739  0.37177  0.87177  Biso   1.000  Ni
  O925     1.0000 0.22532  0.46517  0.96517  Biso   1.000  O
  O926     1.0000 0.27923  0.46604  0.96604  Biso   1.000  O
  N79      1.0000 0.22897  0.39302  0.89302  Biso   1.000  N
  C853     1.0000 0.25831  0.38323  0.88323  Biso   1.000  C
  H697     1.0000 0.25970  0.36720  0.86720  Biso   1.000  H
  C854     1.0000 0.28673  0.39579  0.89579  Biso   1.000  C
  H698     1.0000 0.30700  0.38850  0.88850  Biso   1.000  H
  C855     1.0000 0.28449  0.41949  0.91949  Biso   1.000  C
  H699     1.0000 0.30340  0.42840  0.92840  Biso   1.000  H
  C856     1.0000 0.25456  0.43004  0.93004  Biso   1.000  C
  C857     1.0000 0.22732  0.41612  0.91612  Biso   1.000  C
  H700     1.0000 0.20680  0.42310  0.92310  Biso   1.000  H
  C858     1.0000 0.25247  0.45572  0.95572  Biso   1.000  C
  Ni80     1.0000 0.18739  0.87177  0.37177  Biso   1.000  Ni
  O927     1.0000 0.22532  0.96517  0.46517  Biso   1.000  O
  O928     1.0000 0.27923  0.96604  0.46604  Biso   1.000  O
  N80      1.0000 0.22897  0.89302  0.39302  Biso   1.000  N
  C859     1.0000 0.25831  0.88323  0.38323  Biso   1.000  C
  H701     1.0000 0.25970  0.86720  0.36720  Biso   1.000  H
  C860     1.0000 0.28673  0.89579  0.39579  Biso   1.000  C
  H702     1.0000 0.30700  0.88850  0.38850  Biso   1.000  H
  C861     1.0000 0.28449  0.91949  0.41949  Biso   1.000  C
  H703     1.0000 0.30340  0.92840  0.42840  Biso   1.000  H
  C862     1.0000 0.25456  0.93004  0.43004  Biso   1.000  C
  C863     1.0000 0.22732  0.91612  0.41612  Biso   1.000  C
  H704     1.0000 0.20680  0.92310  0.42310  Biso   1.000  H
  C864     1.0000 0.25247  0.95572  0.45572  Biso   1.000  C
  Ni81     1.0000 0.62823  0.37177  0.31261  Biso   1.000  Ni
  O929     1.0000 0.53483  0.46517  0.27468  Biso   1.000  O
  O930     1.0000 0.53396  0.46604  0.22077  Biso   1.000  O
  N81      1.0000 0.60698  0.39302  0.27103  Biso   1.000  N
  C865     1.0000 0.61677  0.38323  0.24169  Biso   1.000  C
  H705     1.0000 0.63280  0.36720  0.24030  Biso   1.000  H
  C866     1.0000 0.60421  0.39579  0.21327  Biso   1.000  C
  H706     1.0000 0.61150  0.38850  0.19300  Biso   1.000  H
  C867     1.0000 0.58051  0.41949  0.21551  Biso   1.000  C
  H707     1.0000 0.57160  0.42840  0.19660  Biso   1.000  H
  C868     1.0000 0.56996  0.43004  0.24544  Biso   1.000  C
  C869     1.0000 0.58388  0.41612  0.27268  Biso   1.000  C
  H708     1.0000 0.57690  0.42310  0.29320  Biso   1.000  H
  C870     1.0000 0.54428  0.45572  0.24753  Biso   1.000  C
  Ni82     1.0000 0.62823  0.87177  0.81261  Biso   1.000  Ni
  O931     1.0000 0.53483  0.96517  0.77468  Biso   1.000  O
  O932     1.0000 0.53396  0.96604  0.72077  Biso   1.000  O
  N82      1.0000 0.60698  0.89302  0.77103  Biso   1.000  N
  C871     1.0000 0.61677  0.88323  0.74169  Biso   1.000  C
  H709     1.0000 0.63280  0.86720  0.74030  Biso   1.000  H
  C872     1.0000 0.60421  0.89579  0.71327  Biso   1.000  C
  H710     1.0000 0.61150  0.88850  0.69300  Biso   1.000  H
  C873     1.0000 0.58051  0.91949  0.71551  Biso   1.000  C
  H711     1.0000 0.57160  0.92840  0.69660  Biso   1.000  H
  C874     1.0000 0.56996  0.93004  0.74544  Biso   1.000  C
  C875     1.0000 0.58388  0.91612  0.77268  Biso   1.000  C
  H712     1.0000 0.57690  0.92310  0.79320  Biso   1.000  H
  C876     1.0000 0.54428  0.95572  0.74753  Biso   1.000  C
  Ni83     1.0000 0.12823  0.37177  0.81261  Biso   1.000  Ni
  O933     1.0000 0.03483  0.46517  0.77468  Biso   1.000  O
  O934     1.0000 0.03396  0.46604  0.72077  Biso   1.000  O
  N83      1.0000 0.10698  0.39302  0.77103  Biso   1.000  N
  C877     1.0000 0.11677  0.38323  0.74169  Biso   1.000  C
  H713     1.0000 0.13280  0.36720  0.74030  Biso   1.000  H
  C878     1.0000 0.10421  0.39579  0.71327  Biso   1.000  C
  H714     1.0000 0.11150  0.38850  0.69300  Biso   1.000  H
  C879     1.0000 0.08051  0.41949  0.71551  Biso   1.000  C
  H715     1.0000 0.07160  0.42840  0.69660  Biso   1.000  H
  C880     1.0000 0.06996  0.43004  0.74544  Biso   1.000  C
  C881     1.0000 0.08388  0.41612  0.77268  Biso   1.000  C
  H716     1.0000 0.07690  0.42310  0.79320  Biso   1.000  H
  C882     1.0000 0.04428  0.45572  0.74753  Biso   1.000  C
  Ni84     1.0000 0.12823  0.87177  0.31261  Biso   1.000  Ni
  O935     1.0000 0.03483  0.96517  0.27468  Biso   1.000  O
  O936     1.0000 0.03396  0.96604  0.22077  Biso   1.000  O
  N84      1.0000 0.10698  0.89302  0.27103  Biso   1.000  N
  C883     1.0000 0.11677  0.88323  0.24169  Biso   1.000  C
  H717     1.0000 0.13280  0.86720  0.24030  Biso   1.000  H
  C884     1.0000 0.10421  0.89579  0.21327  Biso   1.000  C
  H718     1.0000 0.11150  0.88850  0.19300  Biso   1.000  H
  C885     1.0000 0.08051  0.91949  0.21551  Biso   1.000  C
  H719     1.0000 0.07160  0.92840  0.19660  Biso   1.000  H
  C886     1.0000 0.06996  0.93004  0.24544  Biso   1.000  C
  C887     1.0000 0.08388  0.91612  0.27268  Biso   1.000  C
  H720     1.0000 0.07690  0.92310  0.29320  Biso   1.000  H
  C888     1.0000 0.04428  0.95572  0.24753  Biso   1.000  C
  Ni85     1.0000 0.62823  0.62823  0.68739  Biso   1.000  Ni
  O937     1.0000 0.53483  0.53483  0.72532  Biso   1.000  O
  O938     1.0000 0.53396  0.53396  0.77923  Biso   1.000  O
  N85      1.0000 0.60698  0.60698  0.72897  Biso   1.000  N
  C889     1.0000 0.61677  0.61677  0.75831  Biso   1.000  C
  H721     1.0000 0.63280  0.63280  0.75970  Biso   1.000  H
  C890     1.0000 0.60421  0.60421  0.78673  Biso   1.000  C
  H722     1.0000 0.61150  0.61150  0.80700  Biso   1.000  H
  C891     1.0000 0.58051  0.58051  0.78449  Biso   1.000  C
  H723     1.0000 0.57160  0.57160  0.80340  Biso   1.000  H
  C892     1.0000 0.56996  0.56996  0.75456  Biso   1.000  C
  C893     1.0000 0.58388  0.58388  0.72732  Biso   1.000  C
  H724     1.0000 0.57690  0.57690  0.70680  Biso   1.000  H
  C894     1.0000 0.54428  0.54428  0.75247  Biso   1.000  C
  Ni86     1.0000 0.62823  0.12823  0.18739  Biso   1.000  Ni
  O939     1.0000 0.53483  0.03483  0.22532  Biso   1.000  O
  O940     1.0000 0.53396  0.03396  0.27923  Biso   1.000  O
  N86      1.0000 0.60698  0.10698  0.22897  Biso   1.000  N
  C895     1.0000 0.61677  0.11677  0.25831  Biso   1.000  C
  H725     1.0000 0.63280  0.13280  0.25970  Biso   1.000  H
  C896     1.0000 0.60421  0.10421  0.28673  Biso   1.000  C
  H726     1.0000 0.61150  0.11150  0.30700  Biso   1.000  H
  C897     1.0000 0.58051  0.08051  0.28449  Biso   1.000  C
  H727     1.0000 0.57160  0.07160  0.30340  Biso   1.000  H
  C898     1.0000 0.56996  0.06996  0.25456  Biso   1.000  C
  C899     1.0000 0.58388  0.08388  0.22732  Biso   1.000  C
  H728     1.0000 0.57690  0.07690  0.20680  Biso   1.000  H
  C900     1.0000 0.54428  0.04428  0.25247  Biso   1.000  C
  Ni87     1.0000 0.12823  0.62823  0.18739  Biso   1.000  Ni
  O941     1.0000 0.03483  0.53483  0.22532  Biso   1.000  O
  O942     1.0000 0.03396  0.53396  0.27923  Biso   1.000  O
  N87      1.0000 0.10698  0.60698  0.22897  Biso   1.000  N
  C901     1.0000 0.11677  0.61677  0.25831  Biso   1.000  C
  H729     1.0000 0.13280  0.63280  0.25970  Biso   1.000  H
  C902     1.0000 0.10421  0.60421  0.28673  Biso   1.000  C
  H730     1.0000 0.11150  0.61150  0.30700  Biso   1.000  H
  C903     1.0000 0.08051  0.58051  0.28449  Biso   1.000  C
  H731     1.0000 0.07160  0.57160  0.30340  Biso   1.000  H
  C904     1.0000 0.06996  0.56996  0.25456  Biso   1.000  C
  C905     1.0000 0.08388  0.58388  0.22732  Biso   1.000  C
  H732     1.0000 0.07690  0.57690  0.20680  Biso   1.000  H
  C906     1.0000 0.04428  0.54428  0.25247  Biso   1.000  C
  Ni88     1.0000 0.12823  0.12823  0.68739  Biso   1.000  Ni
  O943     1.0000 0.03483  0.03483  0.72532  Biso   1.000  O
  O944     1.0000 0.03396  0.03396  0.77923  Biso   1.000  O
  N88      1.0000 0.10698  0.10698  0.72897  Biso   1.000  N
  C907     1.0000 0.11677  0.11677  0.75831  Biso   1.000  C
  H733     1.0000 0.13280  0.13280  0.75970  Biso   1.000  H
  C908     1.0000 0.10421  0.10421  0.78673  Biso   1.000  C
  H734     1.0000 0.11150  0.11150  0.80700  Biso   1.000  H
  C909     1.0000 0.08051  0.08051  0.78449  Biso   1.000  C
  H735     1.0000 0.07160  0.07160  0.80340  Biso   1.000  H
  C910     1.0000 0.06996  0.06996  0.75456  Biso   1.000  C
  C911     1.0000 0.08388  0.08388  0.72732  Biso   1.000  C
  H736     1.0000 0.07690  0.07690  0.70680  Biso   1.000  H
  C912     1.0000 0.04428  0.04428  0.75247  Biso   1.000  C
  Ni89     1.0000 0.37177  0.37177  0.68739  Biso   1.000  Ni
  O945     1.0000 0.46517  0.46517  0.72532  Biso   1.000  O
  O946     1.0000 0.46604  0.46604  0.77923  Biso   1.000  O
  N89      1.0000 0.39302  0.39302  0.72897  Biso   1.000  N
  C913     1.0000 0.38323  0.38323  0.75831  Biso   1.000  C
  H737     1.0000 0.36720  0.36720  0.75970  Biso   1.000  H
  C914     1.0000 0.39579  0.39579  0.78673  Biso   1.000  C
  H738     1.0000 0.38850  0.38850  0.80700  Biso   1.000  H
  C915     1.0000 0.41949  0.41949  0.78449  Biso   1.000  C
  H739     1.0000 0.42840  0.42840  0.80340  Biso   1.000  H
  C916     1.0000 0.43004  0.43004  0.75456  Biso   1.000  C
  C917     1.0000 0.41612  0.41612  0.72732  Biso   1.000  C
  H740     1.0000 0.42310  0.42310  0.70680  Biso   1.000  H
  C918     1.0000 0.45572  0.45572  0.75247  Biso   1.000  C
  Ni90     1.0000 0.37177  0.87177  0.18739  Biso   1.000  Ni
  O947     1.0000 0.46517  0.96517  0.22532  Biso   1.000  O
  O948     1.0000 0.46604  0.96604  0.27923  Biso   1.000  O
  N90      1.0000 0.39302  0.89302  0.22897  Biso   1.000  N
  C919     1.0000 0.38323  0.88323  0.25831  Biso   1.000  C
  H741     1.0000 0.36720  0.86720  0.25970  Biso   1.000  H
  C920     1.0000 0.39579  0.89579  0.28673  Biso   1.000  C
  H742     1.0000 0.38850  0.88850  0.30700  Biso   1.000  H
  C921     1.0000 0.41949  0.91949  0.28449  Biso   1.000  C
  H743     1.0000 0.42840  0.92840  0.30340  Biso   1.000  H
  C922     1.0000 0.43004  0.93004  0.25456  Biso   1.000  C
  C923     1.0000 0.41612  0.91612  0.22732  Biso   1.000  C
  H744     1.0000 0.42310  0.92310  0.20680  Biso   1.000  H
  C924     1.0000 0.45572  0.95572  0.25247  Biso   1.000  C
  Ni91     1.0000 0.87177  0.37177  0.18739  Biso   1.000  Ni
  O949     1.0000 0.96517  0.46517  0.22532  Biso   1.000  O
  O950     1.0000 0.96604  0.46604  0.27923  Biso   1.000  O
  N91      1.0000 0.89302  0.39302  0.22897  Biso   1.000  N
  C925     1.0000 0.88323  0.38323  0.25831  Biso   1.000  C
  H745     1.0000 0.86720  0.36720  0.25970  Biso   1.000  H
  C926     1.0000 0.89579  0.39579  0.28673  Biso   1.000  C
  H746     1.0000 0.88850  0.38850  0.30700  Biso   1.000  H
  C927     1.0000 0.91949  0.41949  0.28449  Biso   1.000  C
  H747     1.0000 0.92840  0.42840  0.30340  Biso   1.000  H
  C928     1.0000 0.93004  0.43004  0.25456  Biso   1.000  C
  C929     1.0000 0.91612  0.41612  0.22732  Biso   1.000  C
  H748     1.0000 0.92310  0.42310  0.20680  Biso   1.000  H
  C930     1.0000 0.95572  0.45572  0.25247  Biso   1.000  C
  Ni92     1.0000 0.87177  0.87177  0.68739  Biso   1.000  Ni
  O951     1.0000 0.96517  0.96517  0.72532  Biso   1.000  O
  O952     1.0000 0.96604  0.96604  0.77923  Biso   1.000  O
  N92      1.0000 0.89302  0.89302  0.72897  Biso   1.000  N
  C931     1.0000 0.88323  0.88323  0.75831  Biso   1.000  C
  H749     1.0000 0.86720  0.86720  0.75970  Biso   1.000  H
  C932     1.0000 0.89579  0.89579  0.78673  Biso   1.000  C
  H750     1.0000 0.88850  0.88850  0.80700  Biso   1.000  H
  C933     1.0000 0.91949  0.91949  0.78449  Biso   1.000  C
  H751     1.0000 0.92840  0.92840  0.80340  Biso   1.000  H
  C934     1.0000 0.93004  0.93004  0.75456  Biso   1.000  C
  C935     1.0000 0.91612  0.91612  0.72732  Biso   1.000  C
  H752     1.0000 0.92310  0.92310  0.70680  Biso   1.000  H
  C936     1.0000 0.95572  0.95572  0.75247  Biso   1.000  C
  Ni93     1.0000 0.37177  0.62823  0.31261  Biso   1.000  Ni
  O953     1.0000 0.46517  0.53483  0.27468  Biso   1.000  O
  O954     1.0000 0.46604  0.53396  0.22077  Biso   1.000  O
  N93      1.0000 0.39302  0.60698  0.27103  Biso   1.000  N
  C937     1.0000 0.38323  0.61677  0.24169  Biso   1.000  C
  H753     1.0000 0.36720  0.63280  0.24030  Biso   1.000  H
  C938     1.0000 0.39579  0.60421  0.21327  Biso   1.000  C
  H754     1.0000 0.38850  0.61150  0.19300  Biso   1.000  H
  C939     1.0000 0.41949  0.58051  0.21551  Biso   1.000  C
  H755     1.0000 0.42840  0.57160  0.19660  Biso   1.000  H
  C940     1.0000 0.43004  0.56996  0.24544  Biso   1.000  C
  C941     1.0000 0.41612  0.58388  0.27268  Biso   1.000  C
  H756     1.0000 0.42310  0.57690  0.29320  Biso   1.000  H
  C942     1.0000 0.45572  0.54428  0.24753  Biso   1.000  C
  Ni94     1.0000 0.37177  0.12823  0.81261  Biso   1.000  Ni
  O955     1.0000 0.46517  0.03483  0.77468  Biso   1.000  O
  O956     1.0000 0.46604  0.03396  0.72077  Biso   1.000  O
  N94      1.0000 0.39302  0.10698  0.77103  Biso   1.000  N
  C943     1.0000 0.38323  0.11677  0.74169  Biso   1.000  C
  H757     1.0000 0.36720  0.13280  0.74030  Biso   1.000  H
  C944     1.0000 0.39579  0.10421  0.71327  Biso   1.000  C
  H758     1.0000 0.38850  0.11150  0.69300  Biso   1.000  H
  C945     1.0000 0.41949  0.08051  0.71551  Biso   1.000  C
  H759     1.0000 0.42840  0.07160  0.69660  Biso   1.000  H
  C946     1.0000 0.43004  0.06996  0.74544  Biso   1.000  C
  C947     1.0000 0.41612  0.08388  0.77268  Biso   1.000  C
  H760     1.0000 0.42310  0.07690  0.79320  Biso   1.000  H
  C948     1.0000 0.45572  0.04428  0.74753  Biso   1.000  C
  Ni95     1.0000 0.87177  0.62823  0.81261  Biso   1.000  Ni
  O957     1.0000 0.96517  0.53483  0.77468  Biso   1.000  O
  O958     1.0000 0.96604  0.53396  0.72077  Biso   1.000  O
  N95      1.0000 0.89302  0.60698  0.77103  Biso   1.000  N
  C949     1.0000 0.88323  0.61677  0.74169  Biso   1.000  C
  H761     1.0000 0.86720  0.63280  0.74030  Biso   1.000  H
  C950     1.0000 0.89579  0.60421  0.71327  Biso   1.000  C
  H762     1.0000 0.88850  0.61150  0.69300  Biso   1.000  H
  C951     1.0000 0.91949  0.58051  0.71551  Biso   1.000  C
  H763     1.0000 0.92840  0.57160  0.69660  Biso   1.000  H
  C952     1.0000 0.93004  0.56996  0.74544  Biso   1.000  C
  C953     1.0000 0.91612  0.58388  0.77268  Biso   1.000  C
  H764     1.0000 0.92310  0.57690  0.79320  Biso   1.000  H
  C954     1.0000 0.95572  0.54428  0.74753  Biso   1.000  C
  Ni96     1.0000 0.87177  0.12823  0.31261  Biso   1.000  Ni
  O959     1.0000 0.96517  0.03483  0.27468  Biso   1.000  O
  O960     1.0000 0.96604  0.03396  0.22077  Biso   1.000  O
  N96      1.0000 0.89302  0.10698  0.27103  Biso   1.000  N
  C955     1.0000 0.88323  0.11677  0.24169  Biso   1.000  C
  H765     1.0000 0.86720  0.13280  0.24030  Biso   1.000  H
  C956     1.0000 0.89579  0.10421  0.21327  Biso   1.000  C
  H766     1.0000 0.88850  0.11150  0.19300  Biso   1.000  H
  C957     1.0000 0.91949  0.08051  0.21551  Biso   1.000  C
  H767     1.0000 0.92840  0.07160  0.19660  Biso   1.000  H
  C958     1.0000 0.93004  0.06996  0.24544  Biso   1.000  C
  C959     1.0000 0.91612  0.08388  0.27268  Biso   1.000  C
  H768     1.0000 0.92310  0.07690  0.29320  Biso   1.000  H
  C960     1.0000 0.95572  0.04428  0.24753  Biso   1.000  C
  Ni97     1.0000 0.78434  0.50000  0.50000  Biso   1.000  Ni
  Ni98     1.0000 0.72018  0.50000  0.50000  Biso   1.000  Ni
  Ni99     1.0000 0.78434  0.00000  0.00000  Biso   1.000  Ni
  Ni100    1.0000 0.72018  0.00000  0.00000  Biso   1.000  Ni
  Ni101    1.0000 0.28434  0.50000  0.00000  Biso   1.000  Ni
  Ni102    1.0000 0.22018  0.50000  0.00000  Biso   1.000  Ni
  Ni103    1.0000 0.28434  0.00000  0.50000  Biso   1.000  Ni
  Ni104    1.0000 0.22018  0.00000  0.50000  Biso   1.000  Ni
  Ni105    1.0000 0.21566  0.50000  0.50000  Biso   1.000  Ni
  Ni106    1.0000 0.27982  0.50000  0.50000  Biso   1.000  Ni
  Ni107    1.0000 0.21566  0.00000  0.00000  Biso   1.000  Ni
  Ni108    1.0000 0.27982  0.00000  0.00000  Biso   1.000  Ni
  Ni109    1.0000 0.71566  0.50000  0.00000  Biso   1.000  Ni
  Ni110    1.0000 0.77982  0.50000  0.00000  Biso   1.000  Ni
  Ni111    1.0000 0.71566  0.00000  0.50000  Biso   1.000  Ni
  Ni112    1.0000 0.77982  0.00000  0.50000  Biso   1.000  Ni
  Ni113    1.0000 0.50000  0.78434  0.50000  Biso   1.000  Ni
  Ni114    1.0000 0.50000  0.72018  0.50000  Biso   1.000  Ni
  Ni115    1.0000 0.50000  0.28434  0.00000  Biso   1.000  Ni
  Ni116    1.0000 0.50000  0.22018  0.00000  Biso   1.000  Ni
  Ni117    1.0000 0.00000  0.78434  0.00000  Biso   1.000  Ni
  Ni118    1.0000 0.00000  0.72018  0.00000  Biso   1.000  Ni
  Ni119    1.0000 0.00000  0.28434  0.50000  Biso   1.000  Ni
  Ni120    1.0000 0.00000  0.22018  0.50000  Biso   1.000  Ni
  Ni121    1.0000 0.50000  0.21566  0.50000  Biso   1.000  Ni
  Ni122    1.0000 0.50000  0.27982  0.50000  Biso   1.000  Ni
  Ni123    1.0000 0.50000  0.71566  0.00000  Biso   1.000  Ni
  Ni124    1.0000 0.50000  0.77982  0.00000  Biso   1.000  Ni
  Ni125    1.0000 0.00000  0.21566  0.00000  Biso   1.000  Ni
  Ni126    1.0000 0.00000  0.27982  0.00000  Biso   1.000  Ni
  Ni127    1.0000 0.00000  0.71566  0.50000  Biso   1.000  Ni
  Ni128    1.0000 0.00000  0.77982  0.50000  Biso   1.000  Ni
  Ni129    1.0000 0.50000  0.50000  0.78434  Biso   1.000  Ni
  Ni130    1.0000 0.50000  0.50000  0.72018  Biso   1.000  Ni
  Ni131    1.0000 0.50000  0.00000  0.28434  Biso   1.000  Ni
  Ni132    1.0000 0.50000  0.00000  0.22018  Biso   1.000  Ni
  Ni133    1.0000 0.00000  0.50000  0.28434  Biso   1.000  Ni
  Ni134    1.0000 0.00000  0.50000  0.22018  Biso   1.000  Ni
  Ni135    1.0000 0.00000  0.00000  0.78434  Biso   1.000  Ni
  Ni136    1.0000 0.00000  0.00000  0.72018  Biso   1.000  Ni
  Ni137    1.0000 0.50000  0.50000  0.21566  Biso   1.000  Ni
  Ni138    1.0000 0.50000  0.50000  0.27982  Biso   1.000  Ni
  Ni139    1.0000 0.50000  0.00000  0.71566  Biso   1.000  Ni
  Ni140    1.0000 0.50000  0.00000  0.77982  Biso   1.000  Ni
  Ni141    1.0000 0.00000  0.50000  0.71566  Biso   1.000  Ni
  Ni142    1.0000 0.00000  0.50000  0.77982  Biso   1.000  Ni
  Ni143    1.0000 0.00000  0.00000  0.21566  Biso   1.000  Ni
  Ni144    1.0000 0.00000  0.00000  0.27982  Biso   1.000  Ni
  O961     1.0000 0.64859  0.35141  0.64859  Biso   1.000  O
  H769     1.0000 0.66240  0.33760  0.66240  Biso   1.000  H
  O962     1.0000 0.64859  0.85141  0.14859  Biso   1.000  O
  H770     1.0000 0.66240  0.83760  0.16240  Biso   1.000  H
  O963     1.0000 0.14859  0.35141  0.14859  Biso   1.000  O
  H771     1.0000 0.16240  0.33760  0.16240  Biso   1.000  H
  O964     1.0000 0.14859  0.85141  0.64859  Biso   1.000  O
  H772     1.0000 0.16240  0.83760  0.66240  Biso   1.000  H
  O965     1.0000 0.35141  0.64859  0.64859  Biso   1.000  O
  H773     1.0000 0.33760  0.66240  0.66240  Biso   1.000  H
  O966     1.0000 0.35141  0.14859  0.14859  Biso   1.000  O
  H774     1.0000 0.33760  0.16240  0.16240  Biso   1.000  H
  O967     1.0000 0.85141  0.64859  0.14859  Biso   1.000  O
  H775     1.0000 0.83760  0.66240  0.16240  Biso   1.000  H
  O968     1.0000 0.85141  0.14859  0.64859  Biso   1.000  O
  H776     1.0000 0.83760  0.16240  0.66240  Biso   1.000  H
  O969     1.0000 0.35141  0.35141  0.35141  Biso   1.000  O
  H777     1.0000 0.33760  0.33760  0.33760  Biso   1.000  H
  O970     1.0000 0.35141  0.85141  0.85141  Biso   1.000  O
  H778     1.0000 0.33760  0.83760  0.83760  Biso   1.000  H
  O971     1.0000 0.85141  0.35141  0.85141  Biso   1.000  O
  H779     1.0000 0.83760  0.33760  0.83760  Biso   1.000  H
  O972     1.0000 0.85141  0.85141  0.35141  Biso   1.000  O
  H780     1.0000 0.83760  0.83760  0.33760  Biso   1.000  H
  O973     1.0000 0.64859  0.64859  0.35141  Biso   1.000  O
  H781     1.0000 0.66240  0.66240  0.33760  Biso   1.000  H
  O974     1.0000 0.64859  0.14859  0.85141  Biso   1.000  O
  H782     1.0000 0.66240  0.16240  0.83760  Biso   1.000  H
  O975     1.0000 0.14859  0.64859  0.85141  Biso   1.000  O
  H783     1.0000 0.16240  0.66240  0.83760  Biso   1.000  H
  O976     1.0000 0.14859  0.14859  0.35141  Biso   1.000  O
  H784     1.0000 0.16240  0.16240  0.33760  Biso   1.000  H
  O977     1.0000 0.35141  0.64859  0.35141  Biso   1.000  O
  H785     1.0000 0.33760  0.66240  0.33760  Biso   1.000  H
  O978     1.0000 0.35141  0.14859  0.85141  Biso   1.000  O
  H786     1.0000 0.33760  0.16240  0.83760  Biso   1.000  H
  O979     1.0000 0.85141  0.64859  0.85141  Biso   1.000  O
  H787     1.0000 0.83760  0.66240  0.83760  Biso   1.000  H
  O980     1.0000 0.85141  0.14859  0.35141  Biso   1.000  O
  H788     1.0000 0.83760  0.16240  0.33760  Biso   1.000  H
  O981     1.0000 0.64859  0.35141  0.35141  Biso   1.000  O
  H789     1.0000 0.66240  0.33760  0.33760  Biso   1.000  H
  O982     1.0000 0.64859  0.85141  0.85141  Biso   1.000  O
  H790     1.0000 0.66240  0.83760  0.83760  Biso   1.000  H
  O983     1.0000 0.14859  0.35141  0.85141  Biso   1.000  O
  H791     1.0000 0.16240  0.33760  0.83760  Biso   1.000  H
  O984     1.0000 0.14859  0.85141  0.35141  Biso   1.000  O
  H792     1.0000 0.16240  0.83760  0.33760  Biso   1.000  H
  O985     1.0000 0.35141  0.35141  0.64859  Biso   1.000  O
  H793     1.0000 0.33760  0.33760  0.66240  Biso   1.000  H
  O986     1.0000 0.35141  0.85141  0.14859  Biso   1.000  O
  H794     1.0000 0.33760  0.83760  0.16240  Biso   1.000  H
  O987     1.0000 0.85141  0.35141  0.14859  Biso   1.000  O
  H795     1.0000 0.83760  0.33760  0.16240  Biso   1.000  H
  O988     1.0000 0.85141  0.85141  0.64859  Biso   1.000  O
  H796     1.0000 0.83760  0.83760  0.66240  Biso   1.000  H
  O989     1.0000 0.64859  0.64859  0.64859  Biso   1.000  O
  H797     1.0000 0.66240  0.66240  0.66240  Biso   1.000  H
  O990     1.0000 0.64859  0.14859  0.14859  Biso   1.000  O
  H798     1.0000 0.66240  0.16240  0.16240  Biso   1.000  H
  O991     1.0000 0.14859  0.64859  0.14859  Biso   1.000  O
  H799     1.0000 0.16240  0.66240  0.16240  Biso   1.000  H
  O992     1.0000 0.14859  0.14859  0.64859  Biso   1.000  O
  H800     1.0000 0.16240  0.16240  0.66240  Biso   1.000  H
  C961     1.0000 0.70016  0.37718  0.70016  Biso   1.000  C
  C962     1.0000 0.72615  0.37849  0.72615  Biso   1.000  C
  C963     1.0000 0.64891  0.42999  0.64891  Biso   1.000  C
  C964     1.0000 0.64685  0.46627  0.64685  Biso   1.000  C
  C965     1.0000 0.70016  0.87718  0.20016  Biso   1.000  C
  C966     1.0000 0.72615  0.87849  0.22615  Biso   1.000  C
  C967     1.0000 0.64891  0.92999  0.14891  Biso   1.000  C
  C968     1.0000 0.64685  0.96627  0.14685  Biso   1.000  C
  C969     1.0000 0.20016  0.37718  0.20016  Biso   1.000  C
  C970     1.0000 0.22615  0.37849  0.22615  Biso   1.000  C
  C971     1.0000 0.14891  0.42999  0.14891  Biso   1.000  C
  C972     1.0000 0.14685  0.46627  0.14685  Biso   1.000  C
  C973     1.0000 0.20016  0.87718  0.70016  Biso   1.000  C
  C974     1.0000 0.22615  0.87849  0.72615  Biso   1.000  C
  C975     1.0000 0.14891  0.92999  0.64891  Biso   1.000  C
  C976     1.0000 0.14685  0.96627  0.64685  Biso   1.000  C
  C977     1.0000 0.29984  0.62282  0.70016  Biso   1.000  C
  C978     1.0000 0.27385  0.62151  0.72615  Biso   1.000  C
  C979     1.0000 0.35109  0.57001  0.64891  Biso   1.000  C
  C980     1.0000 0.35315  0.53373  0.64685  Biso   1.000  C
  C981     1.0000 0.29984  0.12282  0.20016  Biso   1.000  C
  C982     1.0000 0.27385  0.12151  0.22615  Biso   1.000  C
  C983     1.0000 0.35109  0.07001  0.14891  Biso   1.000  C
  C984     1.0000 0.35315  0.03373  0.14685  Biso   1.000  C
  C985     1.0000 0.79984  0.62282  0.20016  Biso   1.000  C
  C986     1.0000 0.77385  0.62151  0.22615  Biso   1.000  C
  C987     1.0000 0.85109  0.57001  0.14891  Biso   1.000  C
  C988     1.0000 0.85315  0.53373  0.14685  Biso   1.000  C
  C989     1.0000 0.79984  0.12282  0.70016  Biso   1.000  C
  C990     1.0000 0.77385  0.12151  0.72615  Biso   1.000  C
  C991     1.0000 0.85109  0.07001  0.64891  Biso   1.000  C
  C992     1.0000 0.85315  0.03373  0.64685  Biso   1.000  C
  C993     1.0000 0.29984  0.37718  0.29984  Biso   1.000  C
  C994     1.0000 0.27385  0.37849  0.27385  Biso   1.000  C
  C995     1.0000 0.35109  0.42999  0.35109  Biso   1.000  C
  C996     1.0000 0.35315  0.46627  0.35315  Biso   1.000  C
  C997     1.0000 0.29984  0.87718  0.79984  Biso   1.000  C
  C998     1.0000 0.27385  0.87849  0.77385  Biso   1.000  C
  C999     1.0000 0.35109  0.92999  0.85109  Biso   1.000  C
  C1000    1.0000 0.35315  0.96627  0.85315  Biso   1.000  C
  C1001    1.0000 0.79984  0.37718  0.79984  Biso   1.000  C
  C1002    1.0000 0.77385  0.37849  0.77385  Biso   1.000  C
  C1003    1.0000 0.85109  0.42999  0.85109  Biso   1.000  C
  C1004    1.0000 0.85315  0.46627  0.85315  Biso   1.000  C
  C1005    1.0000 0.79984  0.87718  0.29984  Biso   1.000  C
  C1006    1.0000 0.77385  0.87849  0.27385  Biso   1.000  C
  C1007    1.0000 0.85109  0.92999  0.35109  Biso   1.000  C
  C1008    1.0000 0.85315  0.96627  0.35315  Biso   1.000  C
  C1009    1.0000 0.70016  0.62282  0.29984  Biso   1.000  C
  C1010    1.0000 0.72615  0.62151  0.27385  Biso   1.000  C
  C1011    1.0000 0.64891  0.57001  0.35109  Biso   1.000  C
  C1012    1.0000 0.64685  0.53373  0.35315  Biso   1.000  C
  C1013    1.0000 0.70016  0.12282  0.79984  Biso   1.000  C
  C1014    1.0000 0.72615  0.12151  0.77385  Biso   1.000  C
  C1015    1.0000 0.64891  0.07001  0.85109  Biso   1.000  C
  C1016    1.0000 0.64685  0.03373  0.85315  Biso   1.000  C
  C1017    1.0000 0.20016  0.62282  0.79984  Biso   1.000  C
  C1018    1.0000 0.22615  0.62151  0.77385  Biso   1.000  C
  C1019    1.0000 0.14891  0.57001  0.85109  Biso   1.000  C
  C1020    1.0000 0.14685  0.53373  0.85315  Biso   1.000  C
  C1021    1.0000 0.20016  0.12282  0.29984  Biso   1.000  C
  C1022    1.0000 0.22615  0.12151  0.27385  Biso   1.000  C
  C1023    1.0000 0.14891  0.07001  0.35109  Biso   1.000  C
  C1024    1.0000 0.14685  0.03373  0.35315  Biso   1.000  C
  C1025    1.0000 0.70016  0.70016  0.37718  Biso   1.000  C
  C1026    1.0000 0.72615  0.72615  0.37849  Biso   1.000  C
  C1027    1.0000 0.64891  0.64891  0.42999  Biso   1.000  C
  C1028    1.0000 0.64685  0.64685  0.46627  Biso   1.000  C
  C1029    1.0000 0.70016  0.20016  0.87718  Biso   1.000  C
  C1030    1.0000 0.72615  0.22615  0.87849  Biso   1.000  C
  C1031    1.0000 0.64891  0.14891  0.92999  Biso   1.000  C
  C1032    1.0000 0.64685  0.14685  0.96627  Biso   1.000  C
  C1033    1.0000 0.20016  0.70016  0.87718  Biso   1.000  C
  C1034    1.0000 0.22615  0.72615  0.87849  Biso   1.000  C
  C1035    1.0000 0.14891  0.64891  0.92999  Biso   1.000  C
  C1036    1.0000 0.14685  0.64685  0.96627  Biso   1.000  C
  C1037    1.0000 0.20016  0.20016  0.37718  Biso   1.000  C
  C1038    1.0000 0.22615  0.22615  0.37849  Biso   1.000  C
  C1039    1.0000 0.14891  0.14891  0.42999  Biso   1.000  C
  C1040    1.0000 0.14685  0.14685  0.46627  Biso   1.000  C
  C1041    1.0000 0.70016  0.29984  0.62282  Biso   1.000  C
  C1042    1.0000 0.72615  0.27385  0.62151  Biso   1.000  C
  C1043    1.0000 0.64891  0.35109  0.57001  Biso   1.000  C
  C1044    1.0000 0.64685  0.35315  0.53373  Biso   1.000  C
  C1045    1.0000 0.70016  0.79984  0.12282  Biso   1.000  C
  C1046    1.0000 0.72615  0.77385  0.12151  Biso   1.000  C
  C1047    1.0000 0.64891  0.85109  0.07001  Biso   1.000  C
  C1048    1.0000 0.64685  0.85315  0.03373  Biso   1.000  C
  C1049    1.0000 0.20016  0.29984  0.12282  Biso   1.000  C
  C1050    1.0000 0.22615  0.27385  0.12151  Biso   1.000  C
  C1051    1.0000 0.14891  0.35109  0.07001  Biso   1.000  C
  C1052    1.0000 0.14685  0.35315  0.03373  Biso   1.000  C
  C1053    1.0000 0.20016  0.79984  0.62282  Biso   1.000  C
  C1054    1.0000 0.22615  0.77385  0.62151  Biso   1.000  C
  C1055    1.0000 0.14891  0.85109  0.57001  Biso   1.000  C
  C1056    1.0000 0.14685  0.85315  0.53373  Biso   1.000  C
  C1057    1.0000 0.29984  0.29984  0.37718  Biso   1.000  C
  C1058    1.0000 0.27385  0.27385  0.37849  Biso   1.000  C
  C1059    1.0000 0.35109  0.35109  0.42999  Biso   1.000  C
  C1060    1.0000 0.35315  0.35315  0.46627  Biso   1.000  C
  C1061    1.0000 0.29984  0.79984  0.87718  Biso   1.000  C
  C1062    1.0000 0.27385  0.77385  0.87849  Biso   1.000  C
  C1063    1.0000 0.35109  0.85109  0.92999  Biso   1.000  C
  C1064    1.0000 0.35315  0.85315  0.96627  Biso   1.000  C
  C1065    1.0000 0.79984  0.29984  0.87718  Biso   1.000  C
  C1066    1.0000 0.77385  0.27385  0.87849  Biso   1.000  C
  C1067    1.0000 0.85109  0.35109  0.92999  Biso   1.000  C
  C1068    1.0000 0.85315  0.35315  0.96627  Biso   1.000  C
  C1069    1.0000 0.79984  0.79984  0.37718  Biso   1.000  C
  C1070    1.0000 0.77385  0.77385  0.37849  Biso   1.000  C
  C1071    1.0000 0.85109  0.85109  0.42999  Biso   1.000  C
  C1072    1.0000 0.85315  0.85315  0.46627  Biso   1.000  C
  C1073    1.0000 0.29984  0.70016  0.62282  Biso   1.000  C
  C1074    1.0000 0.27385  0.72615  0.62151  Biso   1.000  C
  C1075    1.0000 0.35109  0.64891  0.57001  Biso   1.000  C
  C1076    1.0000 0.35315  0.64685  0.53373  Biso   1.000  C
  C1077    1.0000 0.29984  0.20016  0.12282  Biso   1.000  C
  C1078    1.0000 0.27385  0.22615  0.12151  Biso   1.000  C
  C1079    1.0000 0.35109  0.14891  0.07001  Biso   1.000  C
  C1080    1.0000 0.35315  0.14685  0.03373  Biso   1.000  C
  C1081    1.0000 0.79984  0.70016  0.12282  Biso   1.000  C
  C1082    1.0000 0.77385  0.72615  0.12151  Biso   1.000  C
  C1083    1.0000 0.85109  0.64891  0.07001  Biso   1.000  C
  C1084    1.0000 0.85315  0.64685  0.03373  Biso   1.000  C
  C1085    1.0000 0.79984  0.20016  0.62282  Biso   1.000  C
  C1086    1.0000 0.77385  0.22615  0.62151  Biso   1.000  C
  C1087    1.0000 0.85109  0.14891  0.57001  Biso   1.000  C
  C1088    1.0000 0.85315  0.14685  0.53373  Biso   1.000  C
  C1089    1.0000 0.37718  0.70016  0.70016  Biso   1.000  C
  C1090    1.0000 0.37849  0.72615  0.72615  Biso   1.000  C
  C1091    1.0000 0.42999  0.64891  0.64891  Biso   1.000  C
  C1092    1.0000 0.46627  0.64685  0.64685  Biso   1.000  C
  C1093    1.0000 0.37718  0.20016  0.20016  Biso   1.000  C
  C1094    1.0000 0.37849  0.22615  0.22615  Biso   1.000  C
  C1095    1.0000 0.42999  0.14891  0.14891  Biso   1.000  C
  C1096    1.0000 0.46627  0.14685  0.14685  Biso   1.000  C
  C1097    1.0000 0.87718  0.70016  0.20016  Biso   1.000  C
  C1098    1.0000 0.87849  0.72615  0.22615  Biso   1.000  C
  C1099    1.0000 0.92999  0.64891  0.14891  Biso   1.000  C
  C1100    1.0000 0.96627  0.64685  0.14685  Biso   1.000  C
  C1101    1.0000 0.87718  0.20016  0.70016  Biso   1.000  C
  C1102    1.0000 0.87849  0.22615  0.72615  Biso   1.000  C
  C1103    1.0000 0.92999  0.14891  0.64891  Biso   1.000  C
  C1104    1.0000 0.96627  0.14685  0.64685  Biso   1.000  C
  C1105    1.0000 0.62282  0.70016  0.29984  Biso   1.000  C
  C1106    1.0000 0.62151  0.72615  0.27385  Biso   1.000  C
  C1107    1.0000 0.57001  0.64891  0.35109  Biso   1.000  C
  C1108    1.0000 0.53373  0.64685  0.35315  Biso   1.000  C
  C1109    1.0000 0.62282  0.20016  0.79984  Biso   1.000  C
  C1110    1.0000 0.62151  0.22615  0.77385  Biso   1.000  C
  C1111    1.0000 0.57001  0.14891  0.85109  Biso   1.000  C
  C1112    1.0000 0.53373  0.14685  0.85315  Biso   1.000  C
  C1113    1.0000 0.12282  0.70016  0.79984  Biso   1.000  C
  C1114    1.0000 0.12151  0.72615  0.77385  Biso   1.000  C
  C1115    1.0000 0.07001  0.64891  0.85109  Biso   1.000  C
  C1116    1.0000 0.03373  0.64685  0.85315  Biso   1.000  C
  C1117    1.0000 0.12282  0.20016  0.29984  Biso   1.000  C
  C1118    1.0000 0.12151  0.22615  0.27385  Biso   1.000  C
  C1119    1.0000 0.07001  0.14891  0.35109  Biso   1.000  C
  C1120    1.0000 0.03373  0.14685  0.35315  Biso   1.000  C
  C1121    1.0000 0.37718  0.29984  0.29984  Biso   1.000  C
  C1122    1.0000 0.37849  0.27385  0.27385  Biso   1.000  C
  C1123    1.0000 0.42999  0.35109  0.35109  Biso   1.000  C
  C1124    1.0000 0.46627  0.35315  0.35315  Biso   1.000  C
  C1125    1.0000 0.37718  0.79984  0.79984  Biso   1.000  C
  C1126    1.0000 0.37849  0.77385  0.77385  Biso   1.000  C
  C1127    1.0000 0.42999  0.85109  0.85109  Biso   1.000  C
  C1128    1.0000 0.46627  0.85315  0.85315  Biso   1.000  C
  C1129    1.0000 0.87718  0.29984  0.79984  Biso   1.000  C
  C1130    1.0000 0.87849  0.27385  0.77385  Biso   1.000  C
  C1131    1.0000 0.92999  0.35109  0.85109  Biso   1.000  C
  C1132    1.0000 0.96627  0.35315  0.85315  Biso   1.000  C
  C1133    1.0000 0.87718  0.79984  0.29984  Biso   1.000  C
  C1134    1.0000 0.87849  0.77385  0.27385  Biso   1.000  C
  C1135    1.0000 0.92999  0.85109  0.35109  Biso   1.000  C
  C1136    1.0000 0.96627  0.85315  0.35315  Biso   1.000  C
  C1137    1.0000 0.62282  0.29984  0.70016  Biso   1.000  C
  C1138    1.0000 0.62151  0.27385  0.72615  Biso   1.000  C
  C1139    1.0000 0.57001  0.35109  0.64891  Biso   1.000  C
  C1140    1.0000 0.53373  0.35315  0.64685  Biso   1.000  C
  C1141    1.0000 0.62282  0.79984  0.20016  Biso   1.000  C
  C1142    1.0000 0.62151  0.77385  0.22615  Biso   1.000  C
  C1143    1.0000 0.57001  0.85109  0.14891  Biso   1.000  C
  C1144    1.0000 0.53373  0.85315  0.14685  Biso   1.000  C
  C1145    1.0000 0.12282  0.29984  0.20016  Biso   1.000  C
  C1146    1.0000 0.12151  0.27385  0.22615  Biso   1.000  C
  C1147    1.0000 0.07001  0.35109  0.14891  Biso   1.000  C
  C1148    1.0000 0.03373  0.35315  0.14685  Biso   1.000  C
  C1149    1.0000 0.12282  0.79984  0.70016  Biso   1.000  C
  C1150    1.0000 0.12151  0.77385  0.72615  Biso   1.000  C
  C1151    1.0000 0.07001  0.85109  0.64891  Biso   1.000  C
  C1152    1.0000 0.03373  0.85315  0.64685  Biso   1.000  C
  C1153    1.0000 0.37718  0.70016  0.29984  Biso   1.000  C
  C1154    1.0000 0.37849  0.72615  0.27385  Biso   1.000  C
  C1155    1.0000 0.42999  0.64891  0.35109  Biso   1.000  C
  C1156    1.0000 0.46627  0.64685  0.35315  Biso   1.000  C
  C1157    1.0000 0.37718  0.20016  0.79984  Biso   1.000  C
  C1158    1.0000 0.37849  0.22615  0.77385  Biso   1.000  C
  C1159    1.0000 0.42999  0.14891  0.85109  Biso   1.000  C
  C1160    1.0000 0.46627  0.14685  0.85315  Biso   1.000  C
  C1161    1.0000 0.87718  0.70016  0.79984  Biso   1.000  C
  C1162    1.0000 0.87849  0.72615  0.77385  Biso   1.000  C
  C1163    1.0000 0.92999  0.64891  0.85109  Biso   1.000  C
  C1164    1.0000 0.96627  0.64685  0.85315  Biso   1.000  C
  C1165    1.0000 0.87718  0.20016  0.29984  Biso   1.000  C
  C1166    1.0000 0.87849  0.22615  0.27385  Biso   1.000  C
  C1167    1.0000 0.92999  0.14891  0.35109  Biso   1.000  C
  C1168    1.0000 0.96627  0.14685  0.35315  Biso   1.000  C
  C1169    1.0000 0.62282  0.29984  0.29984  Biso   1.000  C
  C1170    1.0000 0.62151  0.27385  0.27385  Biso   1.000  C
  C1171    1.0000 0.57001  0.35109  0.35109  Biso   1.000  C
  C1172    1.0000 0.53373  0.35315  0.35315  Biso   1.000  C
  C1173    1.0000 0.62282  0.79984  0.79984  Biso   1.000  C
  C1174    1.0000 0.62151  0.77385  0.77385  Biso   1.000  C
  C1175    1.0000 0.57001  0.85109  0.85109  Biso   1.000  C
  C1176    1.0000 0.53373  0.85315  0.85315  Biso   1.000  C
  C1177    1.0000 0.12282  0.29984  0.79984  Biso   1.000  C
  C1178    1.0000 0.12151  0.27385  0.77385  Biso   1.000  C
  C1179    1.0000 0.07001  0.35109  0.85109  Biso   1.000  C
  C1180    1.0000 0.03373  0.35315  0.85315  Biso   1.000  C
  C1181    1.0000 0.12282  0.79984  0.29984  Biso   1.000  C
  C1182    1.0000 0.12151  0.77385  0.27385  Biso   1.000  C
  C1183    1.0000 0.07001  0.85109  0.35109  Biso   1.000  C
  C1184    1.0000 0.03373  0.85315  0.35315  Biso   1.000  C
  C1185    1.0000 0.37718  0.29984  0.70016  Biso   1.000  C
  C1186    1.0000 0.37849  0.27385  0.72615  Biso   1.000  C
  C1187    1.0000 0.42999  0.35109  0.64891  Biso   1.000  C
  C1188    1.0000 0.46627  0.35315  0.64685  Biso   1.000  C
  C1189    1.0000 0.37718  0.79984  0.20016  Biso   1.000  C
  C1190    1.0000 0.37849  0.77385  0.22615  Biso   1.000  C
  C1191    1.0000 0.42999  0.85109  0.14891  Biso   1.000  C
  C1192    1.0000 0.46627  0.85315  0.14685  Biso   1.000  C
  C1193    1.0000 0.87718  0.29984  0.20016  Biso   1.000  C
  C1194    1.0000 0.87849  0.27385  0.22615  Biso   1.000  C
  C1195    1.0000 0.92999  0.35109  0.14891  Biso   1.000  C
  C1196    1.0000 0.96627  0.35315  0.14685  Biso   1.000  C
  C1197    1.0000 0.87718  0.79984  0.70016  Biso   1.000  C
  C1198    1.0000 0.87849  0.77385  0.72615  Biso   1.000  C
  C1199    1.0000 0.92999  0.85109  0.64891  Biso   1.000  C
  C1200    1.0000 0.96627  0.85315  0.64685  Biso   1.000  C
  C1201    1.0000 0.62282  0.70016  0.70016  Biso   1.000  C
  C1202    1.0000 0.62151  0.72615  0.72615  Biso   1.000  C
  C1203    1.0000 0.57001  0.64891  0.64891  Biso   1.000  C
  C1204    1.0000 0.53373  0.64685  0.64685  Biso   1.000  C
  C1205    1.0000 0.62282  0.20016  0.20016  Biso   1.000  C
  C1206    1.0000 0.62151  0.22615  0.22615  Biso   1.000  C
  C1207    1.0000 0.57001  0.14891  0.14891  Biso   1.000  C
  C1208    1.0000 0.53373  0.14685  0.14685  Biso   1.000  C
  C1209    1.0000 0.12282  0.70016  0.20016  Biso   1.000  C
  C1210    1.0000 0.12151  0.72615  0.22615  Biso   1.000  C
  C1211    1.0000 0.07001  0.64891  0.14891  Biso   1.000  C
  C1212    1.0000 0.03373  0.64685  0.14685  Biso   1.000  C
  C1213    1.0000 0.12282  0.20016  0.70016  Biso   1.000  C
  C1214    1.0000 0.12151  0.22615  0.72615  Biso   1.000  C
  C1215    1.0000 0.07001  0.14891  0.64891  Biso   1.000  C
  C1216    1.0000 0.03373  0.14685  0.64685  Biso   1.000  C
  C1217    1.0000 0.70016  0.70016  0.62282  Biso   1.000  C
  C1218    1.0000 0.72615  0.72615  0.62151  Biso   1.000  C
  C1219    1.0000 0.64891  0.64891  0.57001  Biso   1.000  C
  C1220    1.0000 0.64685  0.64685  0.53373  Biso   1.000  C
  C1221    1.0000 0.70016  0.20016  0.12282  Biso   1.000  C
  C1222    1.0000 0.72615  0.22615  0.12151  Biso   1.000  C
  C1223    1.0000 0.64891  0.14891  0.07001  Biso   1.000  C
  C1224    1.0000 0.64685  0.14685  0.03373  Biso   1.000  C
  C1225    1.0000 0.20016  0.70016  0.12282  Biso   1.000  C
  C1226    1.0000 0.22615  0.72615  0.12151  Biso   1.000  C
  C1227    1.0000 0.14891  0.64891  0.07001  Biso   1.000  C
  C1228    1.0000 0.14685  0.64685  0.03373  Biso   1.000  C
  C1229    1.0000 0.20016  0.20016  0.62282  Biso   1.000  C
  C1230    1.0000 0.22615  0.22615  0.62151  Biso   1.000  C
  C1231    1.0000 0.14891  0.14891  0.57001  Biso   1.000  C
  C1232    1.0000 0.14685  0.14685  0.53373  Biso   1.000  C
  C1233    1.0000 0.29984  0.70016  0.37718  Biso   1.000  C
  C1234    1.0000 0.27385  0.72615  0.37849  Biso   1.000  C
  C1235    1.0000 0.35109  0.64891  0.42999  Biso   1.000  C
  C1236    1.0000 0.35315  0.64685  0.46627  Biso   1.000  C
  C1237    1.0000 0.29984  0.20016  0.87718  Biso   1.000  C
  C1238    1.0000 0.27385  0.22615  0.87849  Biso   1.000  C
  C1239    1.0000 0.35109  0.14891  0.92999  Biso   1.000  C
  C1240    1.0000 0.35315  0.14685  0.96627  Biso   1.000  C
  C1241    1.0000 0.79984  0.70016  0.87718  Biso   1.000  C
  C1242    1.0000 0.77385  0.72615  0.87849  Biso   1.000  C
  C1243    1.0000 0.85109  0.64891  0.92999  Biso   1.000  C
  C1244    1.0000 0.85315  0.64685  0.96627  Biso   1.000  C
  C1245    1.0000 0.79984  0.20016  0.37718  Biso   1.000  C
  C1246    1.0000 0.77385  0.22615  0.37849  Biso   1.000  C
  C1247    1.0000 0.85109  0.14891  0.42999  Biso   1.000  C
  C1248    1.0000 0.85315  0.14685  0.46627  Biso   1.000  C
  C1249    1.0000 0.29984  0.29984  0.62282  Biso   1.000  C
  C1250    1.0000 0.27385  0.27385  0.62151  Biso   1.000  C
  C1251    1.0000 0.35109  0.35109  0.57001  Biso   1.000  C
  C1252    1.0000 0.35315  0.35315  0.53373  Biso   1.000  C
  C1253    1.0000 0.29984  0.79984  0.12282  Biso   1.000  C
  C1254    1.0000 0.27385  0.77385  0.12151  Biso   1.000  C
  C1255    1.0000 0.35109  0.85109  0.07001  Biso   1.000  C
  C1256    1.0000 0.35315  0.85315  0.03373  Biso   1.000  C
  C1257    1.0000 0.79984  0.29984  0.12282  Biso   1.000  C
  C1258    1.0000 0.77385  0.27385  0.12151  Biso   1.000  C
  C1259    1.0000 0.85109  0.35109  0.07001  Biso   1.000  C
  C1260    1.0000 0.85315  0.35315  0.03373  Biso   1.000  C
  C1261    1.0000 0.79984  0.79984  0.62282  Biso   1.000  C
  C1262    1.0000 0.77385  0.77385  0.62151  Biso   1.000  C
  C1263    1.0000 0.85109  0.85109  0.57001  Biso   1.000  C
  C1264    1.0000 0.85315  0.85315  0.53373  Biso   1.000  C
  C1265    1.0000 0.70016  0.29984  0.37718  Biso   1.000  C
  C1266    1.0000 0.72615  0.27385  0.37849  Biso   1.000  C
  C1267    1.0000 0.64891  0.35109  0.42999  Biso   1.000  C
  C1268    1.0000 0.64685  0.35315  0.46627  Biso   1.000  C
  C1269    1.0000 0.70016  0.79984  0.87718  Biso   1.000  C
  C1270    1.0000 0.72615  0.77385  0.87849  Biso   1.000  C
  C1271    1.0000 0.64891  0.85109  0.92999  Biso   1.000  C
  C1272    1.0000 0.64685  0.85315  0.96627  Biso   1.000  C
  C1273    1.0000 0.20016  0.29984  0.87718  Biso   1.000  C
  C1274    1.0000 0.22615  0.27385  0.87849  Biso   1.000  C
  C1275    1.0000 0.14891  0.35109  0.92999  Biso   1.000  C
  C1276    1.0000 0.14685  0.35315  0.96627  Biso   1.000  C
  C1277    1.0000 0.20016  0.79984  0.37718  Biso   1.000  C
  C1278    1.0000 0.22615  0.77385  0.37849  Biso   1.000  C
  C1279    1.0000 0.14891  0.85109  0.42999  Biso   1.000  C
  C1280    1.0000 0.14685  0.85315  0.46627  Biso   1.000  C
  C1281    1.0000 0.70016  0.37718  0.29984  Biso   1.000  C
  C1282    1.0000 0.72615  0.37849  0.27385  Biso   1.000  C
  C1283    1.0000 0.64891  0.42999  0.35109  Biso   1.000  C
  C1284    1.0000 0.64685  0.46627  0.35315  Biso   1.000  C
  C1285    1.0000 0.70016  0.87718  0.79984  Biso   1.000  C
  C1286    1.0000 0.72615  0.87849  0.77385  Biso   1.000  C
  C1287    1.0000 0.64891  0.92999  0.85109  Biso   1.000  C
  C1288    1.0000 0.64685  0.96627  0.85315  Biso   1.000  C
  C1289    1.0000 0.20016  0.37718  0.79984  Biso   1.000  C
  C1290    1.0000 0.22615  0.37849  0.77385  Biso   1.000  C
  C1291    1.0000 0.14891  0.42999  0.85109  Biso   1.000  C
  C1292    1.0000 0.14685  0.46627  0.85315  Biso   1.000  C
  C1293    1.0000 0.20016  0.87718  0.29984  Biso   1.000  C
  C1294    1.0000 0.22615  0.87849  0.27385  Biso   1.000  C
  C1295    1.0000 0.14891  0.92999  0.35109  Biso   1.000  C
  C1296    1.0000 0.14685  0.96627  0.35315  Biso   1.000  C
  C1297    1.0000 0.70016  0.62282  0.70016  Biso   1.000  C
  C1298    1.0000 0.72615  0.62151  0.72615  Biso   1.000  C
  C1299    1.0000 0.64891  0.57001  0.64891  Biso   1.000  C
  C1300    1.0000 0.64685  0.53373  0.64685  Biso   1.000  C
  C1301    1.0000 0.70016  0.12282  0.20016  Biso   1.000  C
  C1302    1.0000 0.72615  0.12151  0.22615  Biso   1.000  C
  C1303    1.0000 0.64891  0.07001  0.14891  Biso   1.000  C
  C1304    1.0000 0.64685  0.03373  0.14685  Biso   1.000  C
  C1305    1.0000 0.20016  0.62282  0.20016  Biso   1.000  C
  C1306    1.0000 0.22615  0.62151  0.22615  Biso   1.000  C
  C1307    1.0000 0.14891  0.57001  0.14891  Biso   1.000  C
  C1308    1.0000 0.14685  0.53373  0.14685  Biso   1.000  C
  C1309    1.0000 0.20016  0.12282  0.70016  Biso   1.000  C
  C1310    1.0000 0.22615  0.12151  0.72615  Biso   1.000  C
  C1311    1.0000 0.14891  0.07001  0.64891  Biso   1.000  C
  C1312    1.0000 0.14685  0.03373  0.64685  Biso   1.000  C
  C1313    1.0000 0.29984  0.37718  0.70016  Biso   1.000  C
  C1314    1.0000 0.27385  0.37849  0.72615  Biso   1.000  C
  C1315    1.0000 0.35109  0.42999  0.64891  Biso   1.000  C
  C1316    1.0000 0.35315  0.46627  0.64685  Biso   1.000  C
  C1317    1.0000 0.29984  0.87718  0.20016  Biso   1.000  C
  C1318    1.0000 0.27385  0.87849  0.22615  Biso   1.000  C
  C1319    1.0000 0.35109  0.92999  0.14891  Biso   1.000  C
  C1320    1.0000 0.35315  0.96627  0.14685  Biso   1.000  C
  C1321    1.0000 0.79984  0.37718  0.20016  Biso   1.000  C
  C1322    1.0000 0.77385  0.37849  0.22615  Biso   1.000  C
  C1323    1.0000 0.85109  0.42999  0.14891  Biso   1.000  C
  C1324    1.0000 0.85315  0.46627  0.14685  Biso   1.000  C
  C1325    1.0000 0.79984  0.87718  0.70016  Biso   1.000  C
  C1326    1.0000 0.77385  0.87849  0.72615  Biso   1.000  C
  C1327    1.0000 0.85109  0.92999  0.64891  Biso   1.000  C
  C1328    1.0000 0.85315  0.96627  0.64685  Biso   1.000  C
  C1329    1.0000 0.29984  0.62282  0.29984  Biso   1.000  C
  C1330    1.0000 0.27385  0.62151  0.27385  Biso   1.000  C
  C1331    1.0000 0.35109  0.57001  0.35109  Biso   1.000  C
  C1332    1.0000 0.35315  0.53373  0.35315  Biso   1.000  C
  C1333    1.0000 0.29984  0.12282  0.79984  Biso   1.000  C
  C1334    1.0000 0.27385  0.12151  0.77385  Biso   1.000  C
  C1335    1.0000 0.35109  0.07001  0.85109  Biso   1.000  C
  C1336    1.0000 0.35315  0.03373  0.85315  Biso   1.000  C
  C1337    1.0000 0.79984  0.62282  0.79984  Biso   1.000  C
  C1338    1.0000 0.77385  0.62151  0.77385  Biso   1.000  C
  C1339    1.0000 0.85109  0.57001  0.85109  Biso   1.000  C
  C1340    1.0000 0.85315  0.53373  0.85315  Biso   1.000  C
  C1341    1.0000 0.79984  0.12282  0.29984  Biso   1.000  C
  C1342    1.0000 0.77385  0.12151  0.27385  Biso   1.000  C
  C1343    1.0000 0.85109  0.07001  0.35109  Biso   1.000  C
  C1344    1.0000 0.85315  0.03373  0.35315  Biso   1.000  C
