data_image0
_cell_length_a       41.258
_cell_length_b       41.258
_cell_length_c       41.258
_cell_angle_alpha    90
_cell_angle_beta     90
_cell_angle_gamma    90

_symmetry_space_group_name_H-M    "P 1"
_symmetry_int_tables_number       1

loop_
  _symmetry_equiv_pos_as_xyz
  'x, y, z'

loop_
  _atom_site_label
  _atom_site_occupancy
  _atom_site_fract_x
  _atom_site_fract_y
  _atom_site_fract_z
  _atom_site_thermal_displace_type
  _atom_site_B_iso_or_equiv
  _atom_site_type_symbol
  O1       1.0000 0.71280  0.37130  0.67040  Biso   1.000  O
  O2       1.0000 0.66580  0.41630  0.62880  Biso   1.000  O
  C1       1.0000 0.75831  0.37734  0.71788  Biso   1.000  C
  H1       1.0000 0.76420  0.37830  0.69570  Biso   1.000  H
  C2       1.0000 0.66832  0.48319  0.62760  Biso   1.000  C
  H2       1.0000 0.68210  0.47170  0.61320  Biso   1.000  H
  O3       1.0000 0.70610  0.38180  0.67450  Biso   1.000  O
  O4       1.0000 0.67320  0.41690  0.63470  Biso   1.000  O
  O5       1.0000 0.71280  0.87130  0.17040  Biso   1.000  O
  O6       1.0000 0.66580  0.91630  0.12880  Biso   1.000  O
  C3       1.0000 0.75831  0.87734  0.21788  Biso   1.000  C
  H3       1.0000 0.76420  0.87830  0.19570  Biso   1.000  H
  C4       1.0000 0.66832  0.98319  0.12760  Biso   1.000  C
  H4       1.0000 0.68210  0.97170  0.11320  Biso   1.000  H
  O7       1.0000 0.70610  0.88180  0.17450  Biso   1.000  O
  O8       1.0000 0.67320  0.91690  0.13470  Biso   1.000  O
  O9       1.0000 0.21280  0.37130  0.17040  Biso   1.000  O
  O10      1.0000 0.16580  0.41630  0.12880  Biso   1.000  O
  C5       1.0000 0.25831  0.37734  0.21788  Biso   1.000  C
  H5       1.0000 0.26420  0.37830  0.19570  Biso   1.000  H
  C6       1.0000 0.16832  0.48319  0.12760  Biso   1.000  C
  H6       1.0000 0.18210  0.47170  0.11320  Biso   1.000  H
  O11      1.0000 0.20610  0.38180  0.17450  Biso   1.000  O
  O12      1.0000 0.17320  0.41690  0.13470  Biso   1.000  O
  O13      1.0000 0.21280  0.87130  0.67040  Biso   1.000  O
  O14      1.0000 0.16580  0.91630  0.62880  Biso   1.000  O
  C7       1.0000 0.25831  0.87734  0.71788  Biso   1.000  C
  H7       1.0000 0.26420  0.87830  0.69570  Biso   1.000  H
  C8       1.0000 0.16832  0.98319  0.62760  Biso   1.000  C
  H8       1.0000 0.18210  0.97170  0.61320  Biso   1.000  H
  O15      1.0000 0.20610  0.88180  0.67450  Biso   1.000  O
  O16      1.0000 0.17320  0.91690  0.63470  Biso   1.000  O
  O17      1.0000 0.28720  0.62870  0.67040  Biso   1.000  O
  O18      1.0000 0.33420  0.58370  0.62880  Biso   1.000  O
  C9       1.0000 0.24169  0.62266  0.71788  Biso   1.000  C
  H9       1.0000 0.23580  0.62170  0.69570  Biso   1.000  H
  C10      1.0000 0.33168  0.51681  0.62760  Biso   1.000  C
  H10      1.0000 0.31790  0.52830  0.61320  Biso   1.000  H
  O19      1.0000 0.29390  0.61820  0.67450  Biso   1.000  O
  O20      1.0000 0.32680  0.58310  0.63470  Biso   1.000  O
  O21      1.0000 0.28720  0.12870  0.17040  Biso   1.000  O
  O22      1.0000 0.33420  0.08370  0.12880  Biso   1.000  O
  C11      1.0000 0.24169  0.12266  0.21788  Biso   1.000  C
  H11      1.0000 0.23580  0.12170  0.19570  Biso   1.000  H
  C12      1.0000 0.33168  0.01681  0.12760  Biso   1.000  C
  H12      1.0000 0.31790  0.02830  0.11320  Biso   1.000  H
  O23      1.0000 0.29390  0.11820  0.17450  Biso   1.000  O
  O24      1.0000 0.32680  0.08310  0.13470  Biso   1.000  O
  O25      1.0000 0.78720  0.62870  0.17040  Biso   1.000  O
  O26      1.0000 0.83420  0.58370  0.12880  Biso   1.000  O
  C13      1.0000 0.74169  0.62266  0.21788  Biso   1.000  C
  H13      1.0000 0.73580  0.62170  0.19570  Biso   1.000  H
  C14      1.0000 0.83168  0.51681  0.12760  Biso   1.000  C
  H14      1.0000 0.81790  0.52830  0.11320  Biso   1.000  H
  O27      1.0000 0.79390  0.61820  0.17450  Biso   1.000  O
  O28      1.0000 0.82680  0.58310  0.13470  Biso   1.000  O
  O29      1.0000 0.78720  0.12870  0.67040  Biso   1.000  O
  O30      1.0000 0.83420  0.08370  0.62880  Biso   1.000  O
  C15      1.0000 0.74169  0.12266  0.71788  Biso   1.000  C
  H15      1.0000 0.73580  0.12170  0.69570  Biso   1.000  H
  C16      1.0000 0.83168  0.01681  0.62760  Biso   1.000  C
  H16      1.0000 0.81790  0.02830  0.61320  Biso   1.000  H
  O31      1.0000 0.79390  0.11820  0.67450  Biso   1.000  O
  O32      1.0000 0.82680  0.08310  0.63470  Biso   1.000  O
  O33      1.0000 0.28720  0.37130  0.32960  Biso   1.000  O
  O34      1.0000 0.33420  0.41630  0.37120  Biso   1.000  O
  C17      1.0000 0.24169  0.37734  0.28212  Biso   1.000  C
  H17      1.0000 0.23580  0.37830  0.30430  Biso   1.000  H
  C18      1.0000 0.33168  0.48319  0.37240  Biso   1.000  C
  H18      1.0000 0.31790  0.47170  0.38680  Biso   1.000  H
  O35      1.0000 0.29390  0.38180  0.32550  Biso   1.000  O
  O36      1.0000 0.32680  0.41690  0.36530  Biso   1.000  O
  O37      1.0000 0.28720  0.87130  0.82960  Biso   1.000  O
  O38      1.0000 0.33420  0.91630  0.87120  Biso   1.000  O
  C19      1.0000 0.24169  0.87734  0.78212  Biso   1.000  C
  H19      1.0000 0.23580  0.87830  0.80430  Biso   1.000  H
  C20      1.0000 0.33168  0.98319  0.87240  Biso   1.000  C
  H20      1.0000 0.31790  0.97170  0.88680  Biso   1.000  H
  O39      1.0000 0.29390  0.88180  0.82550  Biso   1.000  O
  O40      1.0000 0.32680  0.91690  0.86530  Biso   1.000  O
  O41      1.0000 0.78720  0.37130  0.82960  Biso   1.000  O
  O42      1.0000 0.83420  0.41630  0.87120  Biso   1.000  O
  C21      1.0000 0.74169  0.37734  0.78212  Biso   1.000  C
  H21      1.0000 0.73580  0.37830  0.80430  Biso   1.000  H
  C22      1.0000 0.83168  0.48319  0.87240  Biso   1.000  C
  H22      1.0000 0.81790  0.47170  0.88680  Biso   1.000  H
  O43      1.0000 0.79390  0.38180  0.82550  Biso   1.000  O
  O44      1.0000 0.82680  0.41690  0.86530  Biso   1.000  O
  O45      1.0000 0.78720  0.87130  0.32960  Biso   1.000  O
  O46      1.0000 0.83420  0.91630  0.37120  Biso   1.000  O
  C23      1.0000 0.74169  0.87734  0.28212  Biso   1.000  C
  H23      1.0000 0.73580  0.87830  0.30430  Biso   1.000  H
  C24      1.0000 0.83168  0.98319  0.37240  Biso   1.000  C
  H24      1.0000 0.81790  0.97170  0.38680  Biso   1.000  H
  O47      1.0000 0.79390  0.88180  0.32550  Biso   1.000  O
  O48      1.0000 0.82680  0.91690  0.36530  Biso   1.000  O
  O49      1.0000 0.71280  0.62870  0.32960  Biso   1.000  O
  O50      1.0000 0.66580  0.58370  0.37120  Biso   1.000  O
  C25      1.0000 0.75831  0.62266  0.28212  Biso   1.000  C
  H25      1.0000 0.76420  0.62170  0.30430  Biso   1.000  H
  C26      1.0000 0.66832  0.51681  0.37240  Biso   1.000  C
  H26      1.0000 0.68210  0.52830  0.38680  Biso   1.000  H
  O51      1.0000 0.70610  0.61820  0.32550  Biso   1.000  O
  O52      1.0000 0.67320  0.58310  0.36530  Biso   1.000  O
  O53      1.0000 0.71280  0.12870  0.82960  Biso   1.000  O
  O54      1.0000 0.66580  0.08370  0.87120  Biso   1.000  O
  C27      1.0000 0.75831  0.12266  0.78212  Biso   1.000  C
  H27      1.0000 0.76420  0.12170  0.80430  Biso   1.000  H
  C28      1.0000 0.66832  0.01681  0.87240  Biso   1.000  C
  H28      1.0000 0.68210  0.02830  0.88680  Biso   1.000  H
  O55      1.0000 0.70610  0.11820  0.82550  Biso   1.000  O
  O56      1.0000 0.67320  0.08310  0.86530  Biso   1.000  O
  O57      1.0000 0.21280  0.62870  0.82960  Biso   1.000  O
  O58      1.0000 0.16580  0.58370  0.87120  Biso   1.000  O
  C29      1.0000 0.25831  0.62266  0.78212  Biso   1.000  C
  H29      1.0000 0.26420  0.62170  0.80430  Biso   1.000  H
  C30      1.0000 0.16832  0.51681  0.87240  Biso   1.000  C
  H30      1.0000 0.18210  0.52830  0.88680  Biso   1.000  H
  O59      1.0000 0.20610  0.61820  0.82550  Biso   1.000  O
  O60      1.0000 0.17320  0.58310  0.86530  Biso   1.000  O
  O61      1.0000 0.21280  0.12870  0.32960  Biso   1.000  O
  O62      1.0000 0.16580  0.08370  0.37120  Biso   1.000  O
  C31      1.0000 0.25831  0.12266  0.28212  Biso   1.000  C
  H31      1.0000 0.26420  0.12170  0.30430  Biso   1.000  H
  C32      1.0000 0.16832  0.01681  0.37240  Biso   1.000  C
  H32      1.0000 0.18210  0.02830  0.38680  Biso   1.000  H
  O63      1.0000 0.20610  0.11820  0.32550  Biso   1.000  O
  O64      1.0000 0.17320  0.08310  0.36530  Biso   1.000  O
  O65      1.0000 0.67040  0.71280  0.37130  Biso   1.000  O
  O66      1.0000 0.62880  0.66580  0.41630  Biso   1.000  O
  C33      1.0000 0.71788  0.75831  0.37734  Biso   1.000  C
  H33      1.0000 0.69570  0.76420  0.37830  Biso   1.000  H
  C34      1.0000 0.62760  0.66832  0.48319  Biso   1.000  C
  H34      1.0000 0.61320  0.68210  0.47170  Biso   1.000  H
  O67      1.0000 0.67450  0.70610  0.38180  Biso   1.000  O
  O68      1.0000 0.63470  0.67320  0.41690  Biso   1.000  O
  O69      1.0000 0.67040  0.21280  0.87130  Biso   1.000  O
  O70      1.0000 0.62880  0.16580  0.91630  Biso   1.000  O
  C35      1.0000 0.71788  0.25831  0.87734  Biso   1.000  C
  H35      1.0000 0.69570  0.26420  0.87830  Biso   1.000  H
  C36      1.0000 0.62760  0.16832  0.98319  Biso   1.000  C
  H36      1.0000 0.61320  0.18210  0.97170  Biso   1.000  H
  O71      1.0000 0.67450  0.20610  0.88180  Biso   1.000  O
  O72      1.0000 0.63470  0.17320  0.91690  Biso   1.000  O
  O73      1.0000 0.17040  0.71280  0.87130  Biso   1.000  O
  O74      1.0000 0.12880  0.66580  0.91630  Biso   1.000  O
  C37      1.0000 0.21788  0.75831  0.87734  Biso   1.000  C
  H37      1.0000 0.19570  0.76420  0.87830  Biso   1.000  H
  C38      1.0000 0.12760  0.66832  0.98319  Biso   1.000  C
  H38      1.0000 0.11320  0.68210  0.97170  Biso   1.000  H
  O75      1.0000 0.17450  0.70610  0.88180  Biso   1.000  O
  O76      1.0000 0.13470  0.67320  0.91690  Biso   1.000  O
  O77      1.0000 0.17040  0.21280  0.37130  Biso   1.000  O
  O78      1.0000 0.12880  0.16580  0.41630  Biso   1.000  O
  C39      1.0000 0.21788  0.25831  0.37734  Biso   1.000  C
  H39      1.0000 0.19570  0.26420  0.37830  Biso   1.000  H
  C40      1.0000 0.12760  0.16832  0.48319  Biso   1.000  C
  H40      1.0000 0.11320  0.18210  0.47170  Biso   1.000  H
  O79      1.0000 0.17450  0.20610  0.38180  Biso   1.000  O
  O80      1.0000 0.13470  0.17320  0.41690  Biso   1.000  O
  O81      1.0000 0.67040  0.28720  0.62870  Biso   1.000  O
  O82      1.0000 0.62880  0.33420  0.58370  Biso   1.000  O
  C41      1.0000 0.71788  0.24169  0.62266  Biso   1.000  C
  H41      1.0000 0.69570  0.23580  0.62170  Biso   1.000  H
  C42      1.0000 0.62760  0.33168  0.51681  Biso   1.000  C
  H42      1.0000 0.61320  0.31790  0.52830  Biso   1.000  H
  O83      1.0000 0.67450  0.29390  0.61820  Biso   1.000  O
  O84      1.0000 0.63470  0.32680  0.58310  Biso   1.000  O
  O85      1.0000 0.67040  0.78720  0.12870  Biso   1.000  O
  O86      1.0000 0.62880  0.83420  0.08370  Biso   1.000  O
  C43      1.0000 0.71788  0.74169  0.12266  Biso   1.000  C
  H43      1.0000 0.69570  0.73580  0.12170  Biso   1.000  H
  C44      1.0000 0.62760  0.83168  0.01681  Biso   1.000  C
  H44      1.0000 0.61320  0.81790  0.02830  Biso   1.000  H
  O87      1.0000 0.67450  0.79390  0.11820  Biso   1.000  O
  O88      1.0000 0.63470  0.82680  0.08310  Biso   1.000  O
  O89      1.0000 0.17040  0.28720  0.12870  Biso   1.000  O
  O90      1.0000 0.12880  0.33420  0.08370  Biso   1.000  O
  C45      1.0000 0.21788  0.24169  0.12266  Biso   1.000  C
  H45      1.0000 0.19570  0.23580  0.12170  Biso   1.000  H
  C46      1.0000 0.12760  0.33168  0.01681  Biso   1.000  C
  H46      1.0000 0.11320  0.31790  0.02830  Biso   1.000  H
  O91      1.0000 0.17450  0.29390  0.11820  Biso   1.000  O
  O92      1.0000 0.13470  0.32680  0.08310  Biso   1.000  O
  O93      1.0000 0.17040  0.78720  0.62870  Biso   1.000  O
  O94      1.0000 0.12880  0.83420  0.58370  Biso   1.000  O
  C47      1.0000 0.21788  0.74169  0.62266  Biso   1.000  C
  H47      1.0000 0.19570  0.73580  0.62170  Biso   1.000  H
  C48      1.0000 0.12760  0.83168  0.51681  Biso   1.000  C
  H48      1.0000 0.11320  0.81790  0.52830  Biso   1.000  H
  O95      1.0000 0.17450  0.79390  0.61820  Biso   1.000  O
  O96      1.0000 0.13470  0.82680  0.58310  Biso   1.000  O
  O97      1.0000 0.32960  0.28720  0.37130  Biso   1.000  O
  O98      1.0000 0.37120  0.33420  0.41630  Biso   1.000  O
  C49      1.0000 0.28212  0.24169  0.37734  Biso   1.000  C
  H49      1.0000 0.30430  0.23580  0.37830  Biso   1.000  H
  C50      1.0000 0.37240  0.33168  0.48319  Biso   1.000  C
  H50      1.0000 0.38680  0.31790  0.47170  Biso   1.000  H
  O99      1.0000 0.32550  0.29390  0.38180  Biso   1.000  O
  O100     1.0000 0.36530  0.32680  0.41690  Biso   1.000  O
  O101     1.0000 0.32960  0.78720  0.87130  Biso   1.000  O
  O102     1.0000 0.37120  0.83420  0.91630  Biso   1.000  O
  C51      1.0000 0.28212  0.74169  0.87734  Biso   1.000  C
  H51      1.0000 0.30430  0.73580  0.87830  Biso   1.000  H
  C52      1.0000 0.37240  0.83168  0.98319  Biso   1.000  C
  H52      1.0000 0.38680  0.81790  0.97170  Biso   1.000  H
  O103     1.0000 0.32550  0.79390  0.88180  Biso   1.000  O
  O104     1.0000 0.36530  0.82680  0.91690  Biso   1.000  O
  O105     1.0000 0.82960  0.28720  0.87130  Biso   1.000  O
  O106     1.0000 0.87120  0.33420  0.91630  Biso   1.000  O
  C53      1.0000 0.78212  0.24169  0.87734  Biso   1.000  C
  H53      1.0000 0.80430  0.23580  0.87830  Biso   1.000  H
  C54      1.0000 0.87240  0.33168  0.98319  Biso   1.000  C
  H54      1.0000 0.88680  0.31790  0.97170  Biso   1.000  H
  O107     1.0000 0.82550  0.29390  0.88180  Biso   1.000  O
  O108     1.0000 0.86530  0.32680  0.91690  Biso   1.000  O
  O109     1.0000 0.82960  0.78720  0.37130  Biso   1.000  O
  O110     1.0000 0.87120  0.83420  0.41630  Biso   1.000  O
  C55      1.0000 0.78212  0.74169  0.37734  Biso   1.000  C
  H55      1.0000 0.80430  0.73580  0.37830  Biso   1.000  H
  C56      1.0000 0.87240  0.83168  0.48319  Biso   1.000  C
  H56      1.0000 0.88680  0.81790  0.47170  Biso   1.000  H
  O111     1.0000 0.82550  0.79390  0.38180  Biso   1.000  O
  O112     1.0000 0.86530  0.82680  0.41690  Biso   1.000  O
  O113     1.0000 0.32960  0.71280  0.62870  Biso   1.000  O
  O114     1.0000 0.37120  0.66580  0.58370  Biso   1.000  O
  C57      1.0000 0.28212  0.75831  0.62266  Biso   1.000  C
  H57      1.0000 0.30430  0.76420  0.62170  Biso   1.000  H
  C58      1.0000 0.37240  0.66832  0.51681  Biso   1.000  C
  H58      1.0000 0.38680  0.68210  0.52830  Biso   1.000  H
  O115     1.0000 0.32550  0.70610  0.61820  Biso   1.000  O
  O116     1.0000 0.36530  0.67320  0.58310  Biso   1.000  O
  O117     1.0000 0.32960  0.21280  0.12870  Biso   1.000  O
  O118     1.0000 0.37120  0.16580  0.08370  Biso   1.000  O
  C59      1.0000 0.28212  0.25831  0.12266  Biso   1.000  C
  H59      1.0000 0.30430  0.26420  0.12170  Biso   1.000  H
  C60      1.0000 0.37240  0.16832  0.01681  Biso   1.000  C
  H60      1.0000 0.38680  0.18210  0.02830  Biso   1.000  H
  O119     1.0000 0.32550  0.20610  0.11820  Biso   1.000  O
  O120     1.0000 0.36530  0.17320  0.08310  Biso   1.000  O
  O121     1.0000 0.82960  0.71280  0.12870  Biso   1.000  O
  O122     1.0000 0.87120  0.66580  0.08370  Biso   1.000  O
  C61      1.0000 0.78212  0.75831  0.12266  Biso   1.000  C
  H61      1.0000 0.80430  0.76420  0.12170  Biso   1.000  H
  C62      1.0000 0.87240  0.66832  0.01681  Biso   1.000  C
  H62      1.0000 0.88680  0.68210  0.02830  Biso   1.000  H
  O123     1.0000 0.82550  0.70610  0.11820  Biso   1.000  O
  O124     1.0000 0.86530  0.67320  0.08310  Biso   1.000  O
  O125     1.0000 0.82960  0.21280  0.62870  Biso   1.000  O
  O126     1.0000 0.87120  0.16580  0.58370  Biso   1.000  O
  C63      1.0000 0.78212  0.25831  0.62266  Biso   1.000  C
  H63      1.0000 0.80430  0.26420  0.62170  Biso   1.000  H
  C64      1.0000 0.87240  0.16832  0.51681  Biso   1.000  C
  H64      1.0000 0.88680  0.18210  0.52830  Biso   1.000  H
  O127     1.0000 0.82550  0.20610  0.61820  Biso   1.000  O
  O128     1.0000 0.86530  0.17320  0.58310  Biso   1.000  O
  O129     1.0000 0.37130  0.67040  0.71280  Biso   1.000  O
  O130     1.0000 0.41630  0.62880  0.66580  Biso   1.000  O
  C65      1.0000 0.37734  0.71788  0.75831  Biso   1.000  C
  H65      1.0000 0.37830  0.69570  0.76420  Biso   1.000  H
  C66      1.0000 0.48319  0.62760  0.66832  Biso   1.000  C
  H66      1.0000 0.47170  0.61320  0.68210  Biso   1.000  H
  O131     1.0000 0.38180  0.67450  0.70610  Biso   1.000  O
  O132     1.0000 0.41690  0.63470  0.67320  Biso   1.000  O
  O133     1.0000 0.37130  0.17040  0.21280  Biso   1.000  O
  O134     1.0000 0.41630  0.12880  0.16580  Biso   1.000  O
  C67      1.0000 0.37734  0.21788  0.25831  Biso   1.000  C
  H67      1.0000 0.37830  0.19570  0.26420  Biso   1.000  H
  C68      1.0000 0.48319  0.12760  0.16832  Biso   1.000  C
  H68      1.0000 0.47170  0.11320  0.18210  Biso   1.000  H
  O135     1.0000 0.38180  0.17450  0.20610  Biso   1.000  O
  O136     1.0000 0.41690  0.13470  0.17320  Biso   1.000  O
  O137     1.0000 0.87130  0.67040  0.21280  Biso   1.000  O
  O138     1.0000 0.91630  0.62880  0.16580  Biso   1.000  O
  C69      1.0000 0.87734  0.71788  0.25831  Biso   1.000  C
  H69      1.0000 0.87830  0.69570  0.26420  Biso   1.000  H
  C70      1.0000 0.98319  0.62760  0.16832  Biso   1.000  C
  H70      1.0000 0.97170  0.61320  0.18210  Biso   1.000  H
  O139     1.0000 0.88180  0.67450  0.20610  Biso   1.000  O
  O140     1.0000 0.91690  0.63470  0.17320  Biso   1.000  O
  O141     1.0000 0.87130  0.17040  0.71280  Biso   1.000  O
  O142     1.0000 0.91630  0.12880  0.66580  Biso   1.000  O
  C71      1.0000 0.87734  0.21788  0.75831  Biso   1.000  C
  H71      1.0000 0.87830  0.19570  0.76420  Biso   1.000  H
  C72      1.0000 0.98319  0.12760  0.66832  Biso   1.000  C
  H72      1.0000 0.97170  0.11320  0.68210  Biso   1.000  H
  O143     1.0000 0.88180  0.17450  0.70610  Biso   1.000  O
  O144     1.0000 0.91690  0.13470  0.67320  Biso   1.000  O
  O145     1.0000 0.62870  0.67040  0.28720  Biso   1.000  O
  O146     1.0000 0.58370  0.62880  0.33420  Biso   1.000  O
  C73      1.0000 0.62266  0.71788  0.24169  Biso   1.000  C
  H73      1.0000 0.62170  0.69570  0.23580  Biso   1.000  H
  C74      1.0000 0.51681  0.62760  0.33168  Biso   1.000  C
  H74      1.0000 0.52830  0.61320  0.31790  Biso   1.000  H
  O147     1.0000 0.61820  0.67450  0.29390  Biso   1.000  O
  O148     1.0000 0.58310  0.63470  0.32680  Biso   1.000  O
  O149     1.0000 0.62870  0.17040  0.78720  Biso   1.000  O
  O150     1.0000 0.58370  0.12880  0.83420  Biso   1.000  O
  C75      1.0000 0.62266  0.21788  0.74169  Biso   1.000  C
  H75      1.0000 0.62170  0.19570  0.73580  Biso   1.000  H
  C76      1.0000 0.51681  0.12760  0.83168  Biso   1.000  C
  H76      1.0000 0.52830  0.11320  0.81790  Biso   1.000  H
  O151     1.0000 0.61820  0.17450  0.79390  Biso   1.000  O
  O152     1.0000 0.58310  0.13470  0.82680  Biso   1.000  O
  O153     1.0000 0.12870  0.67040  0.78720  Biso   1.000  O
  O154     1.0000 0.08370  0.62880  0.83420  Biso   1.000  O
  C77      1.0000 0.12266  0.71788  0.74169  Biso   1.000  C
  H77      1.0000 0.12170  0.69570  0.73580  Biso   1.000  H
  C78      1.0000 0.01681  0.62760  0.83168  Biso   1.000  C
  H78      1.0000 0.02830  0.61320  0.81790  Biso   1.000  H
  O155     1.0000 0.11820  0.67450  0.79390  Biso   1.000  O
  O156     1.0000 0.08310  0.63470  0.82680  Biso   1.000  O
  O157     1.0000 0.12870  0.17040  0.28720  Biso   1.000  O
  O158     1.0000 0.08370  0.12880  0.33420  Biso   1.000  O
  C79      1.0000 0.12266  0.21788  0.24169  Biso   1.000  C
  H79      1.0000 0.12170  0.19570  0.23580  Biso   1.000  H
  C80      1.0000 0.01681  0.12760  0.33168  Biso   1.000  C
  H80      1.0000 0.02830  0.11320  0.31790  Biso   1.000  H
  O159     1.0000 0.11820  0.17450  0.29390  Biso   1.000  O
  O160     1.0000 0.08310  0.13470  0.32680  Biso   1.000  O
  O161     1.0000 0.37130  0.32960  0.28720  Biso   1.000  O
  O162     1.0000 0.41630  0.37120  0.33420  Biso   1.000  O
  C81      1.0000 0.37734  0.28212  0.24169  Biso   1.000  C
  H81      1.0000 0.37830  0.30430  0.23580  Biso   1.000  H
  C82      1.0000 0.48319  0.37240  0.33168  Biso   1.000  C
  H82      1.0000 0.47170  0.38680  0.31790  Biso   1.000  H
  O163     1.0000 0.38180  0.32550  0.29390  Biso   1.000  O
  O164     1.0000 0.41690  0.36530  0.32680  Biso   1.000  O
  O165     1.0000 0.37130  0.82960  0.78720  Biso   1.000  O
  O166     1.0000 0.41630  0.87120  0.83420  Biso   1.000  O
  C83      1.0000 0.37734  0.78212  0.74169  Biso   1.000  C
  H83      1.0000 0.37830  0.80430  0.73580  Biso   1.000  H
  C84      1.0000 0.48319  0.87240  0.83168  Biso   1.000  C
  H84      1.0000 0.47170  0.88680  0.81790  Biso   1.000  H
  O167     1.0000 0.38180  0.82550  0.79390  Biso   1.000  O
  O168     1.0000 0.41690  0.86530  0.82680  Biso   1.000  O
  O169     1.0000 0.87130  0.32960  0.78720  Biso   1.000  O
  O170     1.0000 0.91630  0.37120  0.83420  Biso   1.000  O
  C85      1.0000 0.87734  0.28212  0.74169  Biso   1.000  C
  H85      1.0000 0.87830  0.30430  0.73580  Biso   1.000  H
  C86      1.0000 0.98319  0.37240  0.83168  Biso   1.000  C
  H86      1.0000 0.97170  0.38680  0.81790  Biso   1.000  H
  O171     1.0000 0.88180  0.32550  0.79390  Biso   1.000  O
  O172     1.0000 0.91690  0.36530  0.82680  Biso   1.000  O
  O173     1.0000 0.87130  0.82960  0.28720  Biso   1.000  O
  O174     1.0000 0.91630  0.87120  0.33420  Biso   1.000  O
  C87      1.0000 0.87734  0.78212  0.24169  Biso   1.000  C
  H87      1.0000 0.87830  0.80430  0.23580  Biso   1.000  H
  C88      1.0000 0.98319  0.87240  0.33168  Biso   1.000  C
  H88      1.0000 0.97170  0.88680  0.31790  Biso   1.000  H
  O175     1.0000 0.88180  0.82550  0.29390  Biso   1.000  O
  O176     1.0000 0.91690  0.86530  0.32680  Biso   1.000  O
  O177     1.0000 0.62870  0.32960  0.71280  Biso   1.000  O
  O178     1.0000 0.58370  0.37120  0.66580  Biso   1.000  O
  C89      1.0000 0.62266  0.28212  0.75831  Biso   1.000  C
  H89      1.0000 0.62170  0.30430  0.76420  Biso   1.000  H
  C90      1.0000 0.51681  0.37240  0.66832  Biso   1.000  C
  H90      1.0000 0.52830  0.38680  0.68210  Biso   1.000  H
  O179     1.0000 0.61820  0.32550  0.70610  Biso   1.000  O
  O180     1.0000 0.58310  0.36530  0.67320  Biso   1.000  O
  O181     1.0000 0.62870  0.82960  0.21280  Biso   1.000  O
  O182     1.0000 0.58370  0.87120  0.16580  Biso   1.000  O
  C91      1.0000 0.62266  0.78212  0.25831  Biso   1.000  C
  H91      1.0000 0.62170  0.80430  0.26420  Biso   1.000  H
  C92      1.0000 0.51681  0.87240  0.16832  Biso   1.000  C
  H92      1.0000 0.52830  0.88680  0.18210  Biso   1.000  H
  O183     1.0000 0.61820  0.82550  0.20610  Biso   1.000  O
  O184     1.0000 0.58310  0.86530  0.17320  Biso   1.000  O
  O185     1.0000 0.12870  0.32960  0.21280  Biso   1.000  O
  O186     1.0000 0.08370  0.37120  0.16580  Biso   1.000  O
  C93      1.0000 0.12266  0.28212  0.25831  Biso   1.000  C
  H93      1.0000 0.12170  0.30430  0.26420  Biso   1.000  H
  C94      1.0000 0.01681  0.37240  0.16832  Biso   1.000  C
  H94      1.0000 0.02830  0.38680  0.18210  Biso   1.000  H
  O187     1.0000 0.11820  0.32550  0.20610  Biso   1.000  O
  O188     1.0000 0.08310  0.36530  0.17320  Biso   1.000  O
  O189     1.0000 0.12870  0.82960  0.71280  Biso   1.000  O
  O190     1.0000 0.08370  0.87120  0.66580  Biso   1.000  O
  C95      1.0000 0.12266  0.78212  0.75831  Biso   1.000  C
  H95      1.0000 0.12170  0.80430  0.76420  Biso   1.000  H
  C96      1.0000 0.01681  0.87240  0.66832  Biso   1.000  C
  H96      1.0000 0.02830  0.88680  0.68210  Biso   1.000  H
  O191     1.0000 0.11820  0.82550  0.70610  Biso   1.000  O
  O192     1.0000 0.08310  0.86530  0.67320  Biso   1.000  O
  O193     1.0000 0.37130  0.71280  0.32960  Biso   1.000  O
  O194     1.0000 0.41630  0.66580  0.37120  Biso   1.000  O
  C97      1.0000 0.37734  0.75831  0.28212  Biso   1.000  C
  H97      1.0000 0.37830  0.76420  0.30430  Biso   1.000  H
  C98      1.0000 0.48319  0.66832  0.37240  Biso   1.000  C
  H98      1.0000 0.47170  0.68210  0.38680  Biso   1.000  H
  O195     1.0000 0.38180  0.70610  0.32550  Biso   1.000  O
  O196     1.0000 0.41690  0.67320  0.36530  Biso   1.000  O
  O197     1.0000 0.37130  0.21280  0.82960  Biso   1.000  O
  O198     1.0000 0.41630  0.16580  0.87120  Biso   1.000  O
  C99      1.0000 0.37734  0.25831  0.78212  Biso   1.000  C
  H99      1.0000 0.37830  0.26420  0.80430  Biso   1.000  H
  C100     1.0000 0.48319  0.16832  0.87240  Biso   1.000  C
  H100     1.0000 0.47170  0.18210  0.88680  Biso   1.000  H
  O199     1.0000 0.38180  0.20610  0.82550  Biso   1.000  O
  O200     1.0000 0.41690  0.17320  0.86530  Biso   1.000  O
  O201     1.0000 0.87130  0.71280  0.82960  Biso   1.000  O
  O202     1.0000 0.91630  0.66580  0.87120  Biso   1.000  O
  C101     1.0000 0.87734  0.75831  0.78212  Biso   1.000  C
  H101     1.0000 0.87830  0.76420  0.80430  Biso   1.000  H
  C102     1.0000 0.98319  0.66832  0.87240  Biso   1.000  C
  H102     1.0000 0.97170  0.68210  0.88680  Biso   1.000  H
  O203     1.0000 0.88180  0.70610  0.82550  Biso   1.000  O
  O204     1.0000 0.91690  0.67320  0.86530  Biso   1.000  O
  O205     1.0000 0.87130  0.21280  0.32960  Biso   1.000  O
  O206     1.0000 0.91630  0.16580  0.37120  Biso   1.000  O
  C103     1.0000 0.87734  0.25831  0.28212  Biso   1.000  C
  H103     1.0000 0.87830  0.26420  0.30430  Biso   1.000  H
  C104     1.0000 0.98319  0.16832  0.37240  Biso   1.000  C
  H104     1.0000 0.97170  0.18210  0.38680  Biso   1.000  H
  O207     1.0000 0.88180  0.20610  0.32550  Biso   1.000  O
  O208     1.0000 0.91690  0.17320  0.36530  Biso   1.000  O
  O209     1.0000 0.62870  0.28720  0.32960  Biso   1.000  O
  O210     1.0000 0.58370  0.33420  0.37120  Biso   1.000  O
  C105     1.0000 0.62266  0.24169  0.28212  Biso   1.000  C
  H105     1.0000 0.62170  0.23580  0.30430  Biso   1.000  H
  C106     1.0000 0.51681  0.33168  0.37240  Biso   1.000  C
  H106     1.0000 0.52830  0.31790  0.38680  Biso   1.000  H
  O211     1.0000 0.61820  0.29390  0.32550  Biso   1.000  O
  O212     1.0000 0.58310  0.32680  0.36530  Biso   1.000  O
  O213     1.0000 0.62870  0.78720  0.82960  Biso   1.000  O
  O214     1.0000 0.58370  0.83420  0.87120  Biso   1.000  O
  C107     1.0000 0.62266  0.74169  0.78212  Biso   1.000  C
  H107     1.0000 0.62170  0.73580  0.80430  Biso   1.000  H
  C108     1.0000 0.51681  0.83168  0.87240  Biso   1.000  C
  H108     1.0000 0.52830  0.81790  0.88680  Biso   1.000  H
  O215     1.0000 0.61820  0.79390  0.82550  Biso   1.000  O
  O216     1.0000 0.58310  0.82680  0.86530  Biso   1.000  O
  O217     1.0000 0.12870  0.28720  0.82960  Biso   1.000  O
  O218     1.0000 0.08370  0.33420  0.87120  Biso   1.000  O
  C109     1.0000 0.12266  0.24169  0.78212  Biso   1.000  C
  H109     1.0000 0.12170  0.23580  0.80430  Biso   1.000  H
  C110     1.0000 0.01681  0.33168  0.87240  Biso   1.000  C
  H110     1.0000 0.02830  0.31790  0.88680  Biso   1.000  H
  O219     1.0000 0.11820  0.29390  0.82550  Biso   1.000  O
  O220     1.0000 0.08310  0.32680  0.86530  Biso   1.000  O
  O221     1.0000 0.12870  0.78720  0.32960  Biso   1.000  O
  O222     1.0000 0.08370  0.83420  0.37120  Biso   1.000  O
  C111     1.0000 0.12266  0.74169  0.28212  Biso   1.000  C
  H111     1.0000 0.12170  0.73580  0.30430  Biso   1.000  H
  C112     1.0000 0.01681  0.83168  0.37240  Biso   1.000  C
  H112     1.0000 0.02830  0.81790  0.38680  Biso   1.000  H
  O223     1.0000 0.11820  0.79390  0.32550  Biso   1.000  O
  O224     1.0000 0.08310  0.82680  0.36530  Biso   1.000  O
  O225     1.0000 0.37130  0.28720  0.67040  Biso   1.000  O
  O226     1.0000 0.41630  0.33420  0.62880  Biso   1.000  O
  C113     1.0000 0.37734  0.24169  0.71788  Biso   1.000  C
  H113     1.0000 0.37830  0.23580  0.69570  Biso   1.000  H
  C114     1.0000 0.48319  0.33168  0.62760  Biso   1.000  C
  H114     1.0000 0.47170  0.31790  0.61320  Biso   1.000  H
  O227     1.0000 0.38180  0.29390  0.67450  Biso   1.000  O
  O228     1.0000 0.41690  0.32680  0.63470  Biso   1.000  O
  O229     1.0000 0.37130  0.78720  0.17040  Biso   1.000  O
  O230     1.0000 0.41630  0.83420  0.12880  Biso   1.000  O
  C115     1.0000 0.37734  0.74169  0.21788  Biso   1.000  C
  H115     1.0000 0.37830  0.73580  0.19570  Biso   1.000  H
  C116     1.0000 0.48319  0.83168  0.12760  Biso   1.000  C
  H116     1.0000 0.47170  0.81790  0.11320  Biso   1.000  H
  O231     1.0000 0.38180  0.79390  0.17450  Biso   1.000  O
  O232     1.0000 0.41690  0.82680  0.13470  Biso   1.000  O
  O233     1.0000 0.87130  0.28720  0.17040  Biso   1.000  O
  O234     1.0000 0.91630  0.33420  0.12880  Biso   1.000  O
  C117     1.0000 0.87734  0.24169  0.21788  Biso   1.000  C
  H117     1.0000 0.87830  0.23580  0.19570  Biso   1.000  H
  C118     1.0000 0.98319  0.33168  0.12760  Biso   1.000  C
  H118     1.0000 0.97170  0.31790  0.11320  Biso   1.000  H
  O235     1.0000 0.88180  0.29390  0.17450  Biso   1.000  O
  O236     1.0000 0.91690  0.32680  0.13470  Biso   1.000  O
  O237     1.0000 0.87130  0.78720  0.67040  Biso   1.000  O
  O238     1.0000 0.91630  0.83420  0.62880  Biso   1.000  O
  C119     1.0000 0.87734  0.74169  0.71788  Biso   1.000  C
  H119     1.0000 0.87830  0.73580  0.69570  Biso   1.000  H
  C120     1.0000 0.98319  0.83168  0.62760  Biso   1.000  C
  H120     1.0000 0.97170  0.81790  0.61320  Biso   1.000  H
  O239     1.0000 0.88180  0.79390  0.67450  Biso   1.000  O
  O240     1.0000 0.91690  0.82680  0.63470  Biso   1.000  O
  O241     1.0000 0.62870  0.71280  0.67040  Biso   1.000  O
  O242     1.0000 0.58370  0.66580  0.62880  Biso   1.000  O
  C121     1.0000 0.62266  0.75831  0.71788  Biso   1.000  C
  H121     1.0000 0.62170  0.76420  0.69570  Biso   1.000  H
  C122     1.0000 0.51681  0.66832  0.62760  Biso   1.000  C
  H122     1.0000 0.52830  0.68210  0.61320  Biso   1.000  H
  O243     1.0000 0.61820  0.70610  0.67450  Biso   1.000  O
  O244     1.0000 0.58310  0.67320  0.63470  Biso   1.000  O
  O245     1.0000 0.62870  0.21280  0.17040  Biso   1.000  O
  O246     1.0000 0.58370  0.16580  0.12880  Biso   1.000  O
  C123     1.0000 0.62266  0.25831  0.21788  Biso   1.000  C
  H123     1.0000 0.62170  0.26420  0.19570  Biso   1.000  H
  C124     1.0000 0.51681  0.16832  0.12760  Biso   1.000  C
  H124     1.0000 0.52830  0.18210  0.11320  Biso   1.000  H
  O247     1.0000 0.61820  0.20610  0.17450  Biso   1.000  O
  O248     1.0000 0.58310  0.17320  0.13470  Biso   1.000  O
  O249     1.0000 0.12870  0.71280  0.17040  Biso   1.000  O
  O250     1.0000 0.08370  0.66580  0.12880  Biso   1.000  O
  C125     1.0000 0.12266  0.75831  0.21788  Biso   1.000  C
  H125     1.0000 0.12170  0.76420  0.19570  Biso   1.000  H
  C126     1.0000 0.01681  0.66832  0.12760  Biso   1.000  C
  H126     1.0000 0.02830  0.68210  0.11320  Biso   1.000  H
  O251     1.0000 0.11820  0.70610  0.17450  Biso   1.000  O
  O252     1.0000 0.08310  0.67320  0.13470  Biso   1.000  O
  O253     1.0000 0.12870  0.21280  0.67040  Biso   1.000  O
  O254     1.0000 0.08370  0.16580  0.62880  Biso   1.000  O
  C127     1.0000 0.12266  0.25831  0.71788  Biso   1.000  C
  H127     1.0000 0.12170  0.26420  0.69570  Biso   1.000  H
  C128     1.0000 0.01681  0.16832  0.62760  Biso   1.000  C
  H128     1.0000 0.02830  0.18210  0.61320  Biso   1.000  H
  O255     1.0000 0.11820  0.20610  0.67450  Biso   1.000  O
  O256     1.0000 0.08310  0.17320  0.63470  Biso   1.000  O
  O257     1.0000 0.71280  0.67040  0.62870  Biso   1.000  O
  O258     1.0000 0.66580  0.62880  0.58370  Biso   1.000  O
  C129     1.0000 0.75831  0.71788  0.62266  Biso   1.000  C
  H129     1.0000 0.76420  0.69570  0.62170  Biso   1.000  H
  C130     1.0000 0.66832  0.62760  0.51681  Biso   1.000  C
  H130     1.0000 0.68210  0.61320  0.52830  Biso   1.000  H
  O259     1.0000 0.70610  0.67450  0.61820  Biso   1.000  O
  O260     1.0000 0.67320  0.63470  0.58310  Biso   1.000  O
  O261     1.0000 0.71280  0.17040  0.12870  Biso   1.000  O
  O262     1.0000 0.66580  0.12880  0.08370  Biso   1.000  O
  C131     1.0000 0.75831  0.21788  0.12266  Biso   1.000  C
  H131     1.0000 0.76420  0.19570  0.12170  Biso   1.000  H
  C132     1.0000 0.66832  0.12760  0.01681  Biso   1.000  C
  H132     1.0000 0.68210  0.11320  0.02830  Biso   1.000  H
  O263     1.0000 0.70610  0.17450  0.11820  Biso   1.000  O
  O264     1.0000 0.67320  0.13470  0.08310  Biso   1.000  O
  O265     1.0000 0.21280  0.67040  0.12870  Biso   1.000  O
  O266     1.0000 0.16580  0.62880  0.08370  Biso   1.000  O
  C133     1.0000 0.25831  0.71788  0.12266  Biso   1.000  C
  H133     1.0000 0.26420  0.69570  0.12170  Biso   1.000  H
  C134     1.0000 0.16832  0.62760  0.01681  Biso   1.000  C
  H134     1.0000 0.18210  0.61320  0.02830  Biso   1.000  H
  O267     1.0000 0.20610  0.67450  0.11820  Biso   1.000  O
  O268     1.0000 0.17320  0.63470  0.08310  Biso   1.000  O
  O269     1.0000 0.21280  0.17040  0.62870  Biso   1.000  O
  O270     1.0000 0.16580  0.12880  0.58370  Biso   1.000  O
  C135     1.0000 0.25831  0.21788  0.62266  Biso   1.000  C
  H135     1.0000 0.26420  0.19570  0.62170  Biso   1.000  H
  C136     1.0000 0.16832  0.12760  0.51681  Biso   1.000  C
  H136     1.0000 0.18210  0.11320  0.52830  Biso   1.000  H
  O271     1.0000 0.20610  0.17450  0.61820  Biso   1.000  O
  O272     1.0000 0.17320  0.13470  0.58310  Biso   1.000  O
  O273     1.0000 0.28720  0.67040  0.37130  Biso   1.000  O
  O274     1.0000 0.33420  0.62880  0.41630  Biso   1.000  O
  C137     1.0000 0.24169  0.71788  0.37734  Biso   1.000  C
  H137     1.0000 0.23580  0.69570  0.37830  Biso   1.000  H
  C138     1.0000 0.33168  0.62760  0.48319  Biso   1.000  C
  H138     1.0000 0.31790  0.61320  0.47170  Biso   1.000  H
  O275     1.0000 0.29390  0.67450  0.38180  Biso   1.000  O
  O276     1.0000 0.32680  0.63470  0.41690  Biso   1.000  O
  O277     1.0000 0.28720  0.17040  0.87130  Biso   1.000  O
  O278     1.0000 0.33420  0.12880  0.91630  Biso   1.000  O
  C139     1.0000 0.24169  0.21788  0.87734  Biso   1.000  C
  H139     1.0000 0.23580  0.19570  0.87830  Biso   1.000  H
  C140     1.0000 0.33168  0.12760  0.98319  Biso   1.000  C
  H140     1.0000 0.31790  0.11320  0.97170  Biso   1.000  H
  O279     1.0000 0.29390  0.17450  0.88180  Biso   1.000  O
  O280     1.0000 0.32680  0.13470  0.91690  Biso   1.000  O
  O281     1.0000 0.78720  0.67040  0.87130  Biso   1.000  O
  O282     1.0000 0.83420  0.62880  0.91630  Biso   1.000  O
  C141     1.0000 0.74169  0.71788  0.87734  Biso   1.000  C
  H141     1.0000 0.73580  0.69570  0.87830  Biso   1.000  H
  C142     1.0000 0.83168  0.62760  0.98319  Biso   1.000  C
  H142     1.0000 0.81790  0.61320  0.97170  Biso   1.000  H
  O283     1.0000 0.79390  0.67450  0.88180  Biso   1.000  O
  O284     1.0000 0.82680  0.63470  0.91690  Biso   1.000  O
  O285     1.0000 0.78720  0.17040  0.37130  Biso   1.000  O
  O286     1.0000 0.83420  0.12880  0.41630  Biso   1.000  O
  C143     1.0000 0.74169  0.21788  0.37734  Biso   1.000  C
  H143     1.0000 0.73580  0.19570  0.37830  Biso   1.000  H
  C144     1.0000 0.83168  0.12760  0.48319  Biso   1.000  C
  H144     1.0000 0.81790  0.11320  0.47170  Biso   1.000  H
  O287     1.0000 0.79390  0.17450  0.38180  Biso   1.000  O
  O288     1.0000 0.82680  0.13470  0.41690  Biso   1.000  O
  O289     1.0000 0.28720  0.32960  0.62870  Biso   1.000  O
  O290     1.0000 0.33420  0.37120  0.58370  Biso   1.000  O
  C145     1.0000 0.24169  0.28212  0.62266  Biso   1.000  C
  H145     1.0000 0.23580  0.30430  0.62170  Biso   1.000  H
  C146     1.0000 0.33168  0.37240  0.51681  Biso   1.000  C
  H146     1.0000 0.31790  0.38680  0.52830  Biso   1.000  H
  O291     1.0000 0.29390  0.32550  0.61820  Biso   1.000  O
  O292     1.0000 0.32680  0.36530  0.58310  Biso   1.000  O
  O293     1.0000 0.28720  0.82960  0.12870  Biso   1.000  O
  O294     1.0000 0.33420  0.87120  0.08370  Biso   1.000  O
  C147     1.0000 0.24169  0.78212  0.12266  Biso   1.000  C
  H147     1.0000 0.23580  0.80430  0.12170  Biso   1.000  H
  C148     1.0000 0.33168  0.87240  0.01681  Biso   1.000  C
  H148     1.0000 0.31790  0.88680  0.02830  Biso   1.000  H
  O295     1.0000 0.29390  0.82550  0.11820  Biso   1.000  O
  O296     1.0000 0.32680  0.86530  0.08310  Biso   1.000  O
  O297     1.0000 0.78720  0.32960  0.12870  Biso   1.000  O
  O298     1.0000 0.83420  0.37120  0.08370  Biso   1.000  O
  C149     1.0000 0.74169  0.28212  0.12266  Biso   1.000  C
  H149     1.0000 0.73580  0.30430  0.12170  Biso   1.000  H
  C150     1.0000 0.83168  0.37240  0.01681  Biso   1.000  C
  H150     1.0000 0.81790  0.38680  0.02830  Biso   1.000  H
  O299     1.0000 0.79390  0.32550  0.11820  Biso   1.000  O
  O300     1.0000 0.82680  0.36530  0.08310  Biso   1.000  O
  O301     1.0000 0.78720  0.82960  0.62870  Biso   1.000  O
  O302     1.0000 0.83420  0.87120  0.58370  Biso   1.000  O
  C151     1.0000 0.74169  0.78212  0.62266  Biso   1.000  C
  H151     1.0000 0.73580  0.80430  0.62170  Biso   1.000  H
  C152     1.0000 0.83168  0.87240  0.51681  Biso   1.000  C
  H152     1.0000 0.81790  0.88680  0.52830  Biso   1.000  H
  O303     1.0000 0.79390  0.82550  0.61820  Biso   1.000  O
  O304     1.0000 0.82680  0.86530  0.58310  Biso   1.000  O
  O305     1.0000 0.71280  0.32960  0.37130  Biso   1.000  O
  O306     1.0000 0.66580  0.37120  0.41630  Biso   1.000  O
  C153     1.0000 0.75831  0.28212  0.37734  Biso   1.000  C
  H153     1.0000 0.76420  0.30430  0.37830  Biso   1.000  H
  C154     1.0000 0.66832  0.37240  0.48319  Biso   1.000  C
  H154     1.0000 0.68210  0.38680  0.47170  Biso   1.000  H
  O307     1.0000 0.70610  0.32550  0.38180  Biso   1.000  O
  O308     1.0000 0.67320  0.36530  0.41690  Biso   1.000  O
  O309     1.0000 0.71280  0.82960  0.87130  Biso   1.000  O
  O310     1.0000 0.66580  0.87120  0.91630  Biso   1.000  O
  C155     1.0000 0.75831  0.78212  0.87734  Biso   1.000  C
  H155     1.0000 0.76420  0.80430  0.87830  Biso   1.000  H
  C156     1.0000 0.66832  0.87240  0.98319  Biso   1.000  C
  H156     1.0000 0.68210  0.88680  0.97170  Biso   1.000  H
  O311     1.0000 0.70610  0.82550  0.88180  Biso   1.000  O
  O312     1.0000 0.67320  0.86530  0.91690  Biso   1.000  O
  O313     1.0000 0.21280  0.32960  0.87130  Biso   1.000  O
  O314     1.0000 0.16580  0.37120  0.91630  Biso   1.000  O
  C157     1.0000 0.25831  0.28212  0.87734  Biso   1.000  C
  H157     1.0000 0.26420  0.30430  0.87830  Biso   1.000  H
  C158     1.0000 0.16832  0.37240  0.98319  Biso   1.000  C
  H158     1.0000 0.18210  0.38680  0.97170  Biso   1.000  H
  O315     1.0000 0.20610  0.32550  0.88180  Biso   1.000  O
  O316     1.0000 0.17320  0.36530  0.91690  Biso   1.000  O
  O317     1.0000 0.21280  0.82960  0.37130  Biso   1.000  O
  O318     1.0000 0.16580  0.87120  0.41630  Biso   1.000  O
  C159     1.0000 0.25831  0.78212  0.37734  Biso   1.000  C
  H159     1.0000 0.26420  0.80430  0.37830  Biso   1.000  H
  C160     1.0000 0.16832  0.87240  0.48319  Biso   1.000  C
  H160     1.0000 0.18210  0.88680  0.47170  Biso   1.000  H
  O319     1.0000 0.20610  0.82550  0.38180  Biso   1.000  O
  O320     1.0000 0.17320  0.86530  0.41690  Biso   1.000  O
  O321     1.0000 0.67040  0.37130  0.28720  Biso   1.000  O
  O322     1.0000 0.62880  0.41630  0.33420  Biso   1.000  O
  C161     1.0000 0.71788  0.37734  0.24169  Biso   1.000  C
  H161     1.0000 0.69570  0.37830  0.23580  Biso   1.000  H
  C162     1.0000 0.62760  0.48319  0.33168  Biso   1.000  C
  H162     1.0000 0.61320  0.47170  0.31790  Biso   1.000  H
  O323     1.0000 0.67450  0.38180  0.29390  Biso   1.000  O
  O324     1.0000 0.63470  0.41690  0.32680  Biso   1.000  O
  O325     1.0000 0.67040  0.87130  0.78720  Biso   1.000  O
  O326     1.0000 0.62880  0.91630  0.83420  Biso   1.000  O
  C163     1.0000 0.71788  0.87734  0.74169  Biso   1.000  C
  H163     1.0000 0.69570  0.87830  0.73580  Biso   1.000  H
  C164     1.0000 0.62760  0.98319  0.83168  Biso   1.000  C
  H164     1.0000 0.61320  0.97170  0.81790  Biso   1.000  H
  O327     1.0000 0.67450  0.88180  0.79390  Biso   1.000  O
  O328     1.0000 0.63470  0.91690  0.82680  Biso   1.000  O
  O329     1.0000 0.17040  0.37130  0.78720  Biso   1.000  O
  O330     1.0000 0.12880  0.41630  0.83420  Biso   1.000  O
  C165     1.0000 0.21788  0.37734  0.74169  Biso   1.000  C
  H165     1.0000 0.19570  0.37830  0.73580  Biso   1.000  H
  C166     1.0000 0.12760  0.48319  0.83168  Biso   1.000  C
  H166     1.0000 0.11320  0.47170  0.81790  Biso   1.000  H
  O331     1.0000 0.17450  0.38180  0.79390  Biso   1.000  O
  O332     1.0000 0.13470  0.41690  0.82680  Biso   1.000  O
  O333     1.0000 0.17040  0.87130  0.28720  Biso   1.000  O
  O334     1.0000 0.12880  0.91630  0.33420  Biso   1.000  O
  C167     1.0000 0.21788  0.87734  0.24169  Biso   1.000  C
  H167     1.0000 0.19570  0.87830  0.23580  Biso   1.000  H
  C168     1.0000 0.12760  0.98319  0.33168  Biso   1.000  C
  H168     1.0000 0.11320  0.97170  0.31790  Biso   1.000  H
  O335     1.0000 0.17450  0.88180  0.29390  Biso   1.000  O
  O336     1.0000 0.13470  0.91690  0.32680  Biso   1.000  O
  O337     1.0000 0.67040  0.62870  0.71280  Biso   1.000  O
  O338     1.0000 0.62880  0.58370  0.66580  Biso   1.000  O
  C169     1.0000 0.71788  0.62266  0.75831  Biso   1.000  C
  H169     1.0000 0.69570  0.62170  0.76420  Biso   1.000  H
  C170     1.0000 0.62760  0.51681  0.66832  Biso   1.000  C
  H170     1.0000 0.61320  0.52830  0.68210  Biso   1.000  H
  O339     1.0000 0.67450  0.61820  0.70610  Biso   1.000  O
  O340     1.0000 0.63470  0.58310  0.67320  Biso   1.000  O
  O341     1.0000 0.67040  0.12870  0.21280  Biso   1.000  O
  O342     1.0000 0.62880  0.08370  0.16580  Biso   1.000  O
  C171     1.0000 0.71788  0.12266  0.25831  Biso   1.000  C
  H171     1.0000 0.69570  0.12170  0.26420  Biso   1.000  H
  C172     1.0000 0.62760  0.01681  0.16832  Biso   1.000  C
  H172     1.0000 0.61320  0.02830  0.18210  Biso   1.000  H
  O343     1.0000 0.67450  0.11820  0.20610  Biso   1.000  O
  O344     1.0000 0.63470  0.08310  0.17320  Biso   1.000  O
  O345     1.0000 0.17040  0.62870  0.21280  Biso   1.000  O
  O346     1.0000 0.12880  0.58370  0.16580  Biso   1.000  O
  C173     1.0000 0.21788  0.62266  0.25831  Biso   1.000  C
  H173     1.0000 0.19570  0.62170  0.26420  Biso   1.000  H
  C174     1.0000 0.12760  0.51681  0.16832  Biso   1.000  C
  H174     1.0000 0.11320  0.52830  0.18210  Biso   1.000  H
  O347     1.0000 0.17450  0.61820  0.20610  Biso   1.000  O
  O348     1.0000 0.13470  0.58310  0.17320  Biso   1.000  O
  O349     1.0000 0.17040  0.12870  0.71280  Biso   1.000  O
  O350     1.0000 0.12880  0.08370  0.66580  Biso   1.000  O
  C175     1.0000 0.21788  0.12266  0.75831  Biso   1.000  C
  H175     1.0000 0.19570  0.12170  0.76420  Biso   1.000  H
  C176     1.0000 0.12760  0.01681  0.66832  Biso   1.000  C
  H176     1.0000 0.11320  0.02830  0.68210  Biso   1.000  H
  O351     1.0000 0.17450  0.11820  0.70610  Biso   1.000  O
  O352     1.0000 0.13470  0.08310  0.67320  Biso   1.000  O
  O353     1.0000 0.32960  0.37130  0.71280  Biso   1.000  O
  O354     1.0000 0.37120  0.41630  0.66580  Biso   1.000  O
  C177     1.0000 0.28212  0.37734  0.75831  Biso   1.000  C
  H177     1.0000 0.30430  0.37830  0.76420  Biso   1.000  H
  C178     1.0000 0.37240  0.48319  0.66832  Biso   1.000  C
  H178     1.0000 0.38680  0.47170  0.68210  Biso   1.000  H
  O355     1.0000 0.32550  0.38180  0.70610  Biso   1.000  O
  O356     1.0000 0.36530  0.41690  0.67320  Biso   1.000  O
  O357     1.0000 0.32960  0.87130  0.21280  Biso   1.000  O
  O358     1.0000 0.37120  0.91630  0.16580  Biso   1.000  O
  C179     1.0000 0.28212  0.87734  0.25831  Biso   1.000  C
  H179     1.0000 0.30430  0.87830  0.26420  Biso   1.000  H
  C180     1.0000 0.37240  0.98319  0.16832  Biso   1.000  C
  H180     1.0000 0.38680  0.97170  0.18210  Biso   1.000  H
  O359     1.0000 0.32550  0.88180  0.20610  Biso   1.000  O
  O360     1.0000 0.36530  0.91690  0.17320  Biso   1.000  O
  O361     1.0000 0.82960  0.37130  0.21280  Biso   1.000  O
  O362     1.0000 0.87120  0.41630  0.16580  Biso   1.000  O
  C181     1.0000 0.78212  0.37734  0.25831  Biso   1.000  C
  H181     1.0000 0.80430  0.37830  0.26420  Biso   1.000  H
  C182     1.0000 0.87240  0.48319  0.16832  Biso   1.000  C
  H182     1.0000 0.88680  0.47170  0.18210  Biso   1.000  H
  O363     1.0000 0.82550  0.38180  0.20610  Biso   1.000  O
  O364     1.0000 0.86530  0.41690  0.17320  Biso   1.000  O
  O365     1.0000 0.82960  0.87130  0.71280  Biso   1.000  O
  O366     1.0000 0.87120  0.91630  0.66580  Biso   1.000  O
  C183     1.0000 0.78212  0.87734  0.75831  Biso   1.000  C
  H183     1.0000 0.80430  0.87830  0.76420  Biso   1.000  H
  C184     1.0000 0.87240  0.98319  0.66832  Biso   1.000  C
  H184     1.0000 0.88680  0.97170  0.68210  Biso   1.000  H
  O367     1.0000 0.82550  0.88180  0.70610  Biso   1.000  O
  O368     1.0000 0.86530  0.91690  0.67320  Biso   1.000  O
  O369     1.0000 0.32960  0.62870  0.28720  Biso   1.000  O
  O370     1.0000 0.37120  0.58370  0.33420  Biso   1.000  O
  C185     1.0000 0.28212  0.62266  0.24169  Biso   1.000  C
  H185     1.0000 0.30430  0.62170  0.23580  Biso   1.000  H
  C186     1.0000 0.37240  0.51681  0.33168  Biso   1.000  C
  H186     1.0000 0.38680  0.52830  0.31790  Biso   1.000  H
  O371     1.0000 0.32550  0.61820  0.29390  Biso   1.000  O
  O372     1.0000 0.36530  0.58310  0.32680  Biso   1.000  O
  O373     1.0000 0.32960  0.12870  0.78720  Biso   1.000  O
  O374     1.0000 0.37120  0.08370  0.83420  Biso   1.000  O
  C187     1.0000 0.28212  0.12266  0.74169  Biso   1.000  C
  H187     1.0000 0.30430  0.12170  0.73580  Biso   1.000  H
  C188     1.0000 0.37240  0.01681  0.83168  Biso   1.000  C
  H188     1.0000 0.38680  0.02830  0.81790  Biso   1.000  H
  O375     1.0000 0.32550  0.11820  0.79390  Biso   1.000  O
  O376     1.0000 0.36530  0.08310  0.82680  Biso   1.000  O
  O377     1.0000 0.82960  0.62870  0.78720  Biso   1.000  O
  O378     1.0000 0.87120  0.58370  0.83420  Biso   1.000  O
  C189     1.0000 0.78212  0.62266  0.74169  Biso   1.000  C
  H189     1.0000 0.80430  0.62170  0.73580  Biso   1.000  H
  C190     1.0000 0.87240  0.51681  0.83168  Biso   1.000  C
  H190     1.0000 0.88680  0.52830  0.81790  Biso   1.000  H
  O379     1.0000 0.82550  0.61820  0.79390  Biso   1.000  O
  O380     1.0000 0.86530  0.58310  0.82680  Biso   1.000  O
  O381     1.0000 0.82960  0.12870  0.28720  Biso   1.000  O
  O382     1.0000 0.87120  0.08370  0.33420  Biso   1.000  O
  C191     1.0000 0.78212  0.12266  0.24169  Biso   1.000  C
  H191     1.0000 0.80430  0.12170  0.23580  Biso   1.000  H
  C192     1.0000 0.87240  0.01681  0.33168  Biso   1.000  C
  H192     1.0000 0.88680  0.02830  0.31790  Biso   1.000  H
  O383     1.0000 0.82550  0.11820  0.29390  Biso   1.000  O
  O384     1.0000 0.86530  0.08310  0.32680  Biso   1.000  O
  O385     1.0000 0.28720  0.62870  0.32960  Biso   1.000  O
  O386     1.0000 0.33420  0.58370  0.37120  Biso   1.000  O
  C193     1.0000 0.24169  0.62266  0.28212  Biso   1.000  C
  H193     1.0000 0.23580  0.62170  0.30430  Biso   1.000  H
  C194     1.0000 0.33168  0.51681  0.37240  Biso   1.000  C
  H194     1.0000 0.31790  0.52830  0.38680  Biso   1.000  H
  O387     1.0000 0.29390  0.61820  0.32550  Biso   1.000  O
  O388     1.0000 0.32680  0.58310  0.36530  Biso   1.000  O
  O389     1.0000 0.28720  0.12870  0.82960  Biso   1.000  O
  O390     1.0000 0.33420  0.08370  0.87120  Biso   1.000  O
  C195     1.0000 0.24169  0.12266  0.78212  Biso   1.000  C
  H195     1.0000 0.23580  0.12170  0.80430  Biso   1.000  H
  C196     1.0000 0.33168  0.01681  0.87240  Biso   1.000  C
  H196     1.0000 0.31790  0.02830  0.88680  Biso   1.000  H
  O391     1.0000 0.29390  0.11820  0.82550  Biso   1.000  O
  O392     1.0000 0.32680  0.08310  0.86530  Biso   1.000  O
  O393     1.0000 0.78720  0.62870  0.82960  Biso   1.000  O
  O394     1.0000 0.83420  0.58370  0.87120  Biso   1.000  O
  C197     1.0000 0.74169  0.62266  0.78212  Biso   1.000  C
  H197     1.0000 0.73580  0.62170  0.80430  Biso   1.000  H
  C198     1.0000 0.83168  0.51681  0.87240  Biso   1.000  C
  H198     1.0000 0.81790  0.52830  0.88680  Biso   1.000  H
  O395     1.0000 0.79390  0.61820  0.82550  Biso   1.000  O
  O396     1.0000 0.82680  0.58310  0.86530  Biso   1.000  O
  O397     1.0000 0.78720  0.12870  0.32960  Biso   1.000  O
  O398     1.0000 0.83420  0.08370  0.37120  Biso   1.000  O
  C199     1.0000 0.74169  0.12266  0.28212  Biso   1.000  C
  H199     1.0000 0.73580  0.12170  0.30430  Biso   1.000  H
  C200     1.0000 0.83168  0.01681  0.37240  Biso   1.000  C
  H200     1.0000 0.81790  0.02830  0.38680  Biso   1.000  H
  O399     1.0000 0.79390  0.11820  0.32550  Biso   1.000  O
  O400     1.0000 0.82680  0.08310  0.36530  Biso   1.000  O
  O401     1.0000 0.71280  0.37130  0.32960  Biso   1.000  O
  O402     1.0000 0.66580  0.41630  0.37120  Biso   1.000  O
  C201     1.0000 0.75831  0.37734  0.28212  Biso   1.000  C
  H201     1.0000 0.76420  0.37830  0.30430  Biso   1.000  H
  C202     1.0000 0.66832  0.48319  0.37240  Biso   1.000  C
  H202     1.0000 0.68210  0.47170  0.38680  Biso   1.000  H
  O403     1.0000 0.70610  0.38180  0.32550  Biso   1.000  O
  O404     1.0000 0.67320  0.41690  0.36530  Biso   1.000  O
  O405     1.0000 0.71280  0.87130  0.82960  Biso   1.000  O
  O406     1.0000 0.66580  0.91630  0.87120  Biso   1.000  O
  C203     1.0000 0.75831  0.87734  0.78212  Biso   1.000  C
  H203     1.0000 0.76420  0.87830  0.80430  Biso   1.000  H
  C204     1.0000 0.66832  0.98319  0.87240  Biso   1.000  C
  H204     1.0000 0.68210  0.97170  0.88680  Biso   1.000  H
  O407     1.0000 0.70610  0.88180  0.82550  Biso   1.000  O
  O408     1.0000 0.67320  0.91690  0.86530  Biso   1.000  O
  O409     1.0000 0.21280  0.37130  0.82960  Biso   1.000  O
  O410     1.0000 0.16580  0.41630  0.87120  Biso   1.000  O
  C205     1.0000 0.25831  0.37734  0.78212  Biso   1.000  C
  H205     1.0000 0.26420  0.37830  0.80430  Biso   1.000  H
  C206     1.0000 0.16832  0.48319  0.87240  Biso   1.000  C
  H206     1.0000 0.18210  0.47170  0.88680  Biso   1.000  H
  O411     1.0000 0.20610  0.38180  0.82550  Biso   1.000  O
  O412     1.0000 0.17320  0.41690  0.86530  Biso   1.000  O
  O413     1.0000 0.21280  0.87130  0.32960  Biso   1.000  O
  O414     1.0000 0.16580  0.91630  0.37120  Biso   1.000  O
  C207     1.0000 0.25831  0.87734  0.28212  Biso   1.000  C
  H207     1.0000 0.26420  0.87830  0.30430  Biso   1.000  H
  C208     1.0000 0.16832  0.98319  0.37240  Biso   1.000  C
  H208     1.0000 0.18210  0.97170  0.38680  Biso   1.000  H
  O415     1.0000 0.20610  0.88180  0.32550  Biso   1.000  O
  O416     1.0000 0.17320  0.91690  0.36530  Biso   1.000  O
  O417     1.0000 0.71280  0.62870  0.67040  Biso   1.000  O
  O418     1.0000 0.66580  0.58370  0.62880  Biso   1.000  O
  C209     1.0000 0.75831  0.62266  0.71788  Biso   1.000  C
  H209     1.0000 0.76420  0.62170  0.69570  Biso   1.000  H
  C210     1.0000 0.66832  0.51681  0.62760  Biso   1.000  C
  H210     1.0000 0.68210  0.52830  0.61320  Biso   1.000  H
  O419     1.0000 0.70610  0.61820  0.67450  Biso   1.000  O
  O420     1.0000 0.67320  0.58310  0.63470  Biso   1.000  O
  O421     1.0000 0.71280  0.12870  0.17040  Biso   1.000  O
  O422     1.0000 0.66580  0.08370  0.12880  Biso   1.000  O
  C211     1.0000 0.75831  0.12266  0.21788  Biso   1.000  C
  H211     1.0000 0.76420  0.12170  0.19570  Biso   1.000  H
  C212     1.0000 0.66832  0.01681  0.12760  Biso   1.000  C
  H212     1.0000 0.68210  0.02830  0.11320  Biso   1.000  H
  O423     1.0000 0.70610  0.11820  0.17450  Biso   1.000  O
  O424     1.0000 0.67320  0.08310  0.13470  Biso   1.000  O
  O425     1.0000 0.21280  0.62870  0.17040  Biso   1.000  O
  O426     1.0000 0.16580  0.58370  0.12880  Biso   1.000  O
  C213     1.0000 0.25831  0.62266  0.21788  Biso   1.000  C
  H213     1.0000 0.26420  0.62170  0.19570  Biso   1.000  H
  C214     1.0000 0.16832  0.51681  0.12760  Biso   1.000  C
  H214     1.0000 0.18210  0.52830  0.11320  Biso   1.000  H
  O427     1.0000 0.20610  0.61820  0.17450  Biso   1.000  O
  O428     1.0000 0.17320  0.58310  0.13470  Biso   1.000  O
  O429     1.0000 0.21280  0.12870  0.67040  Biso   1.000  O
  O430     1.0000 0.16580  0.08370  0.62880  Biso   1.000  O
  C215     1.0000 0.25831  0.12266  0.71788  Biso   1.000  C
  H215     1.0000 0.26420  0.12170  0.69570  Biso   1.000  H
  C216     1.0000 0.16832  0.01681  0.62760  Biso   1.000  C
  H216     1.0000 0.18210  0.02830  0.61320  Biso   1.000  H
  O431     1.0000 0.20610  0.11820  0.67450  Biso   1.000  O
  O432     1.0000 0.17320  0.08310  0.63470  Biso   1.000  O
  O433     1.0000 0.28720  0.37130  0.67040  Biso   1.000  O
  O434     1.0000 0.33420  0.41630  0.62880  Biso   1.000  O
  C217     1.0000 0.24169  0.37734  0.71788  Biso   1.000  C
  H217     1.0000 0.23580  0.37830  0.69570  Biso   1.000  H
  C218     1.0000 0.33168  0.48319  0.62760  Biso   1.000  C
  H218     1.0000 0.31790  0.47170  0.61320  Biso   1.000  H
  O435     1.0000 0.29390  0.38180  0.67450  Biso   1.000  O
  O436     1.0000 0.32680  0.41690  0.63470  Biso   1.000  O
  O437     1.0000 0.28720  0.87130  0.17040  Biso   1.000  O
  O438     1.0000 0.33420  0.91630  0.12880  Biso   1.000  O
  C219     1.0000 0.24169  0.87734  0.21788  Biso   1.000  C
  H219     1.0000 0.23580  0.87830  0.19570  Biso   1.000  H
  C220     1.0000 0.33168  0.98319  0.12760  Biso   1.000  C
  H220     1.0000 0.31790  0.97170  0.11320  Biso   1.000  H
  O439     1.0000 0.29390  0.88180  0.17450  Biso   1.000  O
  O440     1.0000 0.32680  0.91690  0.13470  Biso   1.000  O
  O441     1.0000 0.78720  0.37130  0.17040  Biso   1.000  O
  O442     1.0000 0.83420  0.41630  0.12880  Biso   1.000  O
  C221     1.0000 0.74169  0.37734  0.21788  Biso   1.000  C
  H221     1.0000 0.73580  0.37830  0.19570  Biso   1.000  H
  C222     1.0000 0.83168  0.48319  0.12760  Biso   1.000  C
  H222     1.0000 0.81790  0.47170  0.11320  Biso   1.000  H
  O443     1.0000 0.79390  0.38180  0.17450  Biso   1.000  O
  O444     1.0000 0.82680  0.41690  0.13470  Biso   1.000  O
  O445     1.0000 0.78720  0.87130  0.67040  Biso   1.000  O
  O446     1.0000 0.83420  0.91630  0.62880  Biso   1.000  O
  C223     1.0000 0.74169  0.87734  0.71788  Biso   1.000  C
  H223     1.0000 0.73580  0.87830  0.69570  Biso   1.000  H
  C224     1.0000 0.83168  0.98319  0.62760  Biso   1.000  C
  H224     1.0000 0.81790  0.97170  0.61320  Biso   1.000  H
  O447     1.0000 0.79390  0.88180  0.67450  Biso   1.000  O
  O448     1.0000 0.82680  0.91690  0.63470  Biso   1.000  O
  O449     1.0000 0.32960  0.28720  0.62870  Biso   1.000  O
  O450     1.0000 0.37120  0.33420  0.58370  Biso   1.000  O
  C225     1.0000 0.28212  0.24169  0.62266  Biso   1.000  C
  H225     1.0000 0.30430  0.23580  0.62170  Biso   1.000  H
  C226     1.0000 0.37240  0.33168  0.51681  Biso   1.000  C
  H226     1.0000 0.38680  0.31790  0.52830  Biso   1.000  H
  O451     1.0000 0.32550  0.29390  0.61820  Biso   1.000  O
  O452     1.0000 0.36530  0.32680  0.58310  Biso   1.000  O
  O453     1.0000 0.32960  0.78720  0.12870  Biso   1.000  O
  O454     1.0000 0.37120  0.83420  0.08370  Biso   1.000  O
  C227     1.0000 0.28212  0.74169  0.12266  Biso   1.000  C
  H227     1.0000 0.30430  0.73580  0.12170  Biso   1.000  H
  C228     1.0000 0.37240  0.83168  0.01681  Biso   1.000  C
  H228     1.0000 0.38680  0.81790  0.02830  Biso   1.000  H
  O455     1.0000 0.32550  0.79390  0.11820  Biso   1.000  O
  O456     1.0000 0.36530  0.82680  0.08310  Biso   1.000  O
  O457     1.0000 0.82960  0.28720  0.12870  Biso   1.000  O
  O458     1.0000 0.87120  0.33420  0.08370  Biso   1.000  O
  C229     1.0000 0.78212  0.24169  0.12266  Biso   1.000  C
  H229     1.0000 0.80430  0.23580  0.12170  Biso   1.000  H
  C230     1.0000 0.87240  0.33168  0.01681  Biso   1.000  C
  H230     1.0000 0.88680  0.31790  0.02830  Biso   1.000  H
  O459     1.0000 0.82550  0.29390  0.11820  Biso   1.000  O
  O460     1.0000 0.86530  0.32680  0.08310  Biso   1.000  O
  O461     1.0000 0.82960  0.78720  0.62870  Biso   1.000  O
  O462     1.0000 0.87120  0.83420  0.58370  Biso   1.000  O
  C231     1.0000 0.78212  0.74169  0.62266  Biso   1.000  C
  H231     1.0000 0.80430  0.73580  0.62170  Biso   1.000  H
  C232     1.0000 0.87240  0.83168  0.51681  Biso   1.000  C
  H232     1.0000 0.88680  0.81790  0.52830  Biso   1.000  H
  O463     1.0000 0.82550  0.79390  0.61820  Biso   1.000  O
  O464     1.0000 0.86530  0.82680  0.58310  Biso   1.000  O
  O465     1.0000 0.32960  0.71280  0.37130  Biso   1.000  O
  O466     1.0000 0.37120  0.66580  0.41630  Biso   1.000  O
  C233     1.0000 0.28212  0.75831  0.37734  Biso   1.000  C
  H233     1.0000 0.30430  0.76420  0.37830  Biso   1.000  H
  C234     1.0000 0.37240  0.66832  0.48319  Biso   1.000  C
  H234     1.0000 0.38680  0.68210  0.47170  Biso   1.000  H
  O467     1.0000 0.32550  0.70610  0.38180  Biso   1.000  O
  O468     1.0000 0.36530  0.67320  0.41690  Biso   1.000  O
  O469     1.0000 0.32960  0.21280  0.87130  Biso   1.000  O
  O470     1.0000 0.37120  0.16580  0.91630  Biso   1.000  O
  C235     1.0000 0.28212  0.25831  0.87734  Biso   1.000  C
  H235     1.0000 0.30430  0.26420  0.87830  Biso   1.000  H
  C236     1.0000 0.37240  0.16832  0.98319  Biso   1.000  C
  H236     1.0000 0.38680  0.18210  0.97170  Biso   1.000  H
  O471     1.0000 0.32550  0.20610  0.88180  Biso   1.000  O
  O472     1.0000 0.36530  0.17320  0.91690  Biso   1.000  O
  O473     1.0000 0.82960  0.71280  0.87130  Biso   1.000  O
  O474     1.0000 0.87120  0.66580  0.91630  Biso   1.000  O
  C237     1.0000 0.78212  0.75831  0.87734  Biso   1.000  C
  H237     1.0000 0.80430  0.76420  0.87830  Biso   1.000  H
  C238     1.0000 0.87240  0.66832  0.98319  Biso   1.000  C
  H238     1.0000 0.88680  0.68210  0.97170  Biso   1.000  H
  O475     1.0000 0.82550  0.70610  0.88180  Biso   1.000  O
  O476     1.0000 0.86530  0.67320  0.91690  Biso   1.000  O
  O477     1.0000 0.82960  0.21280  0.37130  Biso   1.000  O
  O478     1.0000 0.87120  0.16580  0.41630  Biso   1.000  O
  C239     1.0000 0.78212  0.25831  0.37734  Biso   1.000  C
  H239     1.0000 0.80430  0.26420  0.37830  Biso   1.000  H
  C240     1.0000 0.87240  0.16832  0.48319  Biso   1.000  C
  H240     1.0000 0.88680  0.18210  0.47170  Biso   1.000  H
  O479     1.0000 0.82550  0.20610  0.38180  Biso   1.000  O
  O480     1.0000 0.86530  0.17320  0.41690  Biso   1.000  O
  O481     1.0000 0.67040  0.71280  0.62870  Biso   1.000  O
  O482     1.0000 0.62880  0.66580  0.58370  Biso   1.000  O
  C241     1.0000 0.71788  0.75831  0.62266  Biso   1.000  C
  H241     1.0000 0.69570  0.76420  0.62170  Biso   1.000  H
  C242     1.0000 0.62760  0.66832  0.51681  Biso   1.000  C
  H242     1.0000 0.61320  0.68210  0.52830  Biso   1.000  H
  O483     1.0000 0.67450  0.70610  0.61820  Biso   1.000  O
  O484     1.0000 0.63470  0.67320  0.58310  Biso   1.000  O
  O485     1.0000 0.67040  0.21280  0.12870  Biso   1.000  O
  O486     1.0000 0.62880  0.16580  0.08370  Biso   1.000  O
  C243     1.0000 0.71788  0.25831  0.12266  Biso   1.000  C
  H243     1.0000 0.69570  0.26420  0.12170  Biso   1.000  H
  C244     1.0000 0.62760  0.16832  0.01681  Biso   1.000  C
  H244     1.0000 0.61320  0.18210  0.02830  Biso   1.000  H
  O487     1.0000 0.67450  0.20610  0.11820  Biso   1.000  O
  O488     1.0000 0.63470  0.17320  0.08310  Biso   1.000  O
  O489     1.0000 0.17040  0.71280  0.12870  Biso   1.000  O
  O490     1.0000 0.12880  0.66580  0.08370  Biso   1.000  O
  C245     1.0000 0.21788  0.75831  0.12266  Biso   1.000  C
  H245     1.0000 0.19570  0.76420  0.12170  Biso   1.000  H
  C246     1.0000 0.12760  0.66832  0.01681  Biso   1.000  C
  H246     1.0000 0.11320  0.68210  0.02830  Biso   1.000  H
  O491     1.0000 0.17450  0.70610  0.11820  Biso   1.000  O
  O492     1.0000 0.13470  0.67320  0.08310  Biso   1.000  O
  O493     1.0000 0.17040  0.21280  0.62870  Biso   1.000  O
  O494     1.0000 0.12880  0.16580  0.58370  Biso   1.000  O
  C247     1.0000 0.21788  0.25831  0.62266  Biso   1.000  C
  H247     1.0000 0.19570  0.26420  0.62170  Biso   1.000  H
  C248     1.0000 0.12760  0.16832  0.51681  Biso   1.000  C
  H248     1.0000 0.11320  0.18210  0.52830  Biso   1.000  H
  O495     1.0000 0.17450  0.20610  0.61820  Biso   1.000  O
  O496     1.0000 0.13470  0.17320  0.58310  Biso   1.000  O
  O497     1.0000 0.67040  0.28720  0.37130  Biso   1.000  O
  O498     1.0000 0.62880  0.33420  0.41630  Biso   1.000  O
  C249     1.0000 0.71788  0.24169  0.37734  Biso   1.000  C
  H249     1.0000 0.69570  0.23580  0.37830  Biso   1.000  H
  C250     1.0000 0.62760  0.33168  0.48319  Biso   1.000  C
  H250     1.0000 0.61320  0.31790  0.47170  Biso   1.000  H
  O499     1.0000 0.67450  0.29390  0.38180  Biso   1.000  O
  O500     1.0000 0.63470  0.32680  0.41690  Biso   1.000  O
  O501     1.0000 0.67040  0.78720  0.87130  Biso   1.000  O
  O502     1.0000 0.62880  0.83420  0.91630  Biso   1.000  O
  C251     1.0000 0.71788  0.74169  0.87734  Biso   1.000  C
  H251     1.0000 0.69570  0.73580  0.87830  Biso   1.000  H
  C252     1.0000 0.62760  0.83168  0.98319  Biso   1.000  C
  H252     1.0000 0.61320  0.81790  0.97170  Biso   1.000  H
  O503     1.0000 0.67450  0.79390  0.88180  Biso   1.000  O
  O504     1.0000 0.63470  0.82680  0.91690  Biso   1.000  O
  O505     1.0000 0.17040  0.28720  0.87130  Biso   1.000  O
  O506     1.0000 0.12880  0.33420  0.91630  Biso   1.000  O
  C253     1.0000 0.21788  0.24169  0.87734  Biso   1.000  C
  H253     1.0000 0.19570  0.23580  0.87830  Biso   1.000  H
  C254     1.0000 0.12760  0.33168  0.98319  Biso   1.000  C
  H254     1.0000 0.11320  0.31790  0.97170  Biso   1.000  H
  O507     1.0000 0.17450  0.29390  0.88180  Biso   1.000  O
  O508     1.0000 0.13470  0.32680  0.91690  Biso   1.000  O
  O509     1.0000 0.17040  0.78720  0.37130  Biso   1.000  O
  O510     1.0000 0.12880  0.83420  0.41630  Biso   1.000  O
  C255     1.0000 0.21788  0.74169  0.37734  Biso   1.000  C
  H255     1.0000 0.19570  0.73580  0.37830  Biso   1.000  H
  C256     1.0000 0.12760  0.83168  0.48319  Biso   1.000  C
  H256     1.0000 0.11320  0.81790  0.47170  Biso   1.000  H
  O511     1.0000 0.17450  0.79390  0.38180  Biso   1.000  O
  O512     1.0000 0.13470  0.82680  0.41690  Biso   1.000  O
  O513     1.0000 0.62870  0.32960  0.28720  Biso   1.000  O
  O514     1.0000 0.58370  0.37120  0.33420  Biso   1.000  O
  C257     1.0000 0.62266  0.28212  0.24169  Biso   1.000  C
  H257     1.0000 0.62170  0.30430  0.23580  Biso   1.000  H
  C258     1.0000 0.51681  0.37240  0.33168  Biso   1.000  C
  H258     1.0000 0.52830  0.38680  0.31790  Biso   1.000  H
  O515     1.0000 0.61820  0.32550  0.29390  Biso   1.000  O
  O516     1.0000 0.58310  0.36530  0.32680  Biso   1.000  O
  O517     1.0000 0.62870  0.82960  0.78720  Biso   1.000  O
  O518     1.0000 0.58370  0.87120  0.83420  Biso   1.000  O
  C259     1.0000 0.62266  0.78212  0.74169  Biso   1.000  C
  H259     1.0000 0.62170  0.80430  0.73580  Biso   1.000  H
  C260     1.0000 0.51681  0.87240  0.83168  Biso   1.000  C
  H260     1.0000 0.52830  0.88680  0.81790  Biso   1.000  H
  O519     1.0000 0.61820  0.82550  0.79390  Biso   1.000  O
  O520     1.0000 0.58310  0.86530  0.82680  Biso   1.000  O
  O521     1.0000 0.12870  0.32960  0.78720  Biso   1.000  O
  O522     1.0000 0.08370  0.37120  0.83420  Biso   1.000  O
  C261     1.0000 0.12266  0.28212  0.74169  Biso   1.000  C
  H261     1.0000 0.12170  0.30430  0.73580  Biso   1.000  H
  C262     1.0000 0.01681  0.37240  0.83168  Biso   1.000  C
  H262     1.0000 0.02830  0.38680  0.81790  Biso   1.000  H
  O523     1.0000 0.11820  0.32550  0.79390  Biso   1.000  O
  O524     1.0000 0.08310  0.36530  0.82680  Biso   1.000  O
  O525     1.0000 0.12870  0.82960  0.28720  Biso   1.000  O
  O526     1.0000 0.08370  0.87120  0.33420  Biso   1.000  O
  C263     1.0000 0.12266  0.78212  0.24169  Biso   1.000  C
  H263     1.0000 0.12170  0.80430  0.23580  Biso   1.000  H
  C264     1.0000 0.01681  0.87240  0.33168  Biso   1.000  C
  H264     1.0000 0.02830  0.88680  0.31790  Biso   1.000  H
  O527     1.0000 0.11820  0.82550  0.29390  Biso   1.000  O
  O528     1.0000 0.08310  0.86530  0.32680  Biso   1.000  O
  O529     1.0000 0.37130  0.32960  0.71280  Biso   1.000  O
  O530     1.0000 0.41630  0.37120  0.66580  Biso   1.000  O
  C265     1.0000 0.37734  0.28212  0.75831  Biso   1.000  C
  H265     1.0000 0.37830  0.30430  0.76420  Biso   1.000  H
  C266     1.0000 0.48319  0.37240  0.66832  Biso   1.000  C
  H266     1.0000 0.47170  0.38680  0.68210  Biso   1.000  H
  O531     1.0000 0.38180  0.32550  0.70610  Biso   1.000  O
  O532     1.0000 0.41690  0.36530  0.67320  Biso   1.000  O
  O533     1.0000 0.37130  0.82960  0.21280  Biso   1.000  O
  O534     1.0000 0.41630  0.87120  0.16580  Biso   1.000  O
  C267     1.0000 0.37734  0.78212  0.25831  Biso   1.000  C
  H267     1.0000 0.37830  0.80430  0.26420  Biso   1.000  H
  C268     1.0000 0.48319  0.87240  0.16832  Biso   1.000  C
  H268     1.0000 0.47170  0.88680  0.18210  Biso   1.000  H
  O535     1.0000 0.38180  0.82550  0.20610  Biso   1.000  O
  O536     1.0000 0.41690  0.86530  0.17320  Biso   1.000  O
  O537     1.0000 0.87130  0.32960  0.21280  Biso   1.000  O
  O538     1.0000 0.91630  0.37120  0.16580  Biso   1.000  O
  C269     1.0000 0.87734  0.28212  0.25831  Biso   1.000  C
  H269     1.0000 0.87830  0.30430  0.26420  Biso   1.000  H
  C270     1.0000 0.98319  0.37240  0.16832  Biso   1.000  C
  H270     1.0000 0.97170  0.38680  0.18210  Biso   1.000  H
  O539     1.0000 0.88180  0.32550  0.20610  Biso   1.000  O
  O540     1.0000 0.91690  0.36530  0.17320  Biso   1.000  O
  O541     1.0000 0.87130  0.82960  0.71280  Biso   1.000  O
  O542     1.0000 0.91630  0.87120  0.66580  Biso   1.000  O
  C271     1.0000 0.87734  0.78212  0.75831  Biso   1.000  C
  H271     1.0000 0.87830  0.80430  0.76420  Biso   1.000  H
  C272     1.0000 0.98319  0.87240  0.66832  Biso   1.000  C
  H272     1.0000 0.97170  0.88680  0.68210  Biso   1.000  H
  O543     1.0000 0.88180  0.82550  0.70610  Biso   1.000  O
  O544     1.0000 0.91690  0.86530  0.67320  Biso   1.000  O
  O545     1.0000 0.62870  0.67040  0.71280  Biso   1.000  O
  O546     1.0000 0.58370  0.62880  0.66580  Biso   1.000  O
  C273     1.0000 0.62266  0.71788  0.75831  Biso   1.000  C
  H273     1.0000 0.62170  0.69570  0.76420  Biso   1.000  H
  C274     1.0000 0.51681  0.62760  0.66832  Biso   1.000  C
  H274     1.0000 0.52830  0.61320  0.68210  Biso   1.000  H
  O547     1.0000 0.61820  0.67450  0.70610  Biso   1.000  O
  O548     1.0000 0.58310  0.63470  0.67320  Biso   1.000  O
  O549     1.0000 0.62870  0.17040  0.21280  Biso   1.000  O
  O550     1.0000 0.58370  0.12880  0.16580  Biso   1.000  O
  C275     1.0000 0.62266  0.21788  0.25831  Biso   1.000  C
  H275     1.0000 0.62170  0.19570  0.26420  Biso   1.000  H
  C276     1.0000 0.51681  0.12760  0.16832  Biso   1.000  C
  H276     1.0000 0.52830  0.11320  0.18210  Biso   1.000  H
  O551     1.0000 0.61820  0.17450  0.20610  Biso   1.000  O
  O552     1.0000 0.58310  0.13470  0.17320  Biso   1.000  O
  O553     1.0000 0.12870  0.67040  0.21280  Biso   1.000  O
  O554     1.0000 0.08370  0.62880  0.16580  Biso   1.000  O
  C277     1.0000 0.12266  0.71788  0.25831  Biso   1.000  C
  H277     1.0000 0.12170  0.69570  0.26420  Biso   1.000  H
  C278     1.0000 0.01681  0.62760  0.16832  Biso   1.000  C
  H278     1.0000 0.02830  0.61320  0.18210  Biso   1.000  H
  O555     1.0000 0.11820  0.67450  0.20610  Biso   1.000  O
  O556     1.0000 0.08310  0.63470  0.17320  Biso   1.000  O
  O557     1.0000 0.12870  0.17040  0.71280  Biso   1.000  O
  O558     1.0000 0.08370  0.12880  0.66580  Biso   1.000  O
  C279     1.0000 0.12266  0.21788  0.75831  Biso   1.000  C
  H279     1.0000 0.12170  0.19570  0.76420  Biso   1.000  H
  C280     1.0000 0.01681  0.12760  0.66832  Biso   1.000  C
  H280     1.0000 0.02830  0.11320  0.68210  Biso   1.000  H
  O559     1.0000 0.11820  0.17450  0.70610  Biso   1.000  O
  O560     1.0000 0.08310  0.13470  0.67320  Biso   1.000  O
  O561     1.0000 0.37130  0.67040  0.28720  Biso   1.000  O
  O562     1.0000 0.41630  0.62880  0.33420  Biso   1.000  O
  C281     1.0000 0.37734  0.71788  0.24169  Biso   1.000  C
  H281     1.0000 0.37830  0.69570  0.23580  Biso   1.000  H
  C282     1.0000 0.48319  0.62760  0.33168  Biso   1.000  C
  H282     1.0000 0.47170  0.61320  0.31790  Biso   1.000  H
  O563     1.0000 0.38180  0.67450  0.29390  Biso   1.000  O
  O564     1.0000 0.41690  0.63470  0.32680  Biso   1.000  O
  O565     1.0000 0.37130  0.17040  0.78720  Biso   1.000  O
  O566     1.0000 0.41630  0.12880  0.83420  Biso   1.000  O
  C283     1.0000 0.37734  0.21788  0.74169  Biso   1.000  C
  H283     1.0000 0.37830  0.19570  0.73580  Biso   1.000  H
  C284     1.0000 0.48319  0.12760  0.83168  Biso   1.000  C
  H284     1.0000 0.47170  0.11320  0.81790  Biso   1.000  H
  O567     1.0000 0.38180  0.17450  0.79390  Biso   1.000  O
  O568     1.0000 0.41690  0.13470  0.82680  Biso   1.000  O
  O569     1.0000 0.87130  0.67040  0.78720  Biso   1.000  O
  O570     1.0000 0.91630  0.62880  0.83420  Biso   1.000  O
  C285     1.0000 0.87734  0.71788  0.74169  Biso   1.000  C
  H285     1.0000 0.87830  0.69570  0.73580  Biso   1.000  H
  C286     1.0000 0.98319  0.62760  0.83168  Biso   1.000  C
  H286     1.0000 0.97170  0.61320  0.81790  Biso   1.000  H
  O571     1.0000 0.88180  0.67450  0.79390  Biso   1.000  O
  O572     1.0000 0.91690  0.63470  0.82680  Biso   1.000  O
  O573     1.0000 0.87130  0.17040  0.28720  Biso   1.000  O
  O574     1.0000 0.91630  0.12880  0.33420  Biso   1.000  O
  C287     1.0000 0.87734  0.21788  0.24169  Biso   1.000  C
  H287     1.0000 0.87830  0.19570  0.23580  Biso   1.000  H
  C288     1.0000 0.98319  0.12760  0.33168  Biso   1.000  C
  H288     1.0000 0.97170  0.11320  0.31790  Biso   1.000  H
  O575     1.0000 0.88180  0.17450  0.29390  Biso   1.000  O
  O576     1.0000 0.91690  0.13470  0.32680  Biso   1.000  O
  O577     1.0000 0.62870  0.28720  0.67040  Biso   1.000  O
  O578     1.0000 0.58370  0.33420  0.62880  Biso   1.000  O
  C289     1.0000 0.62266  0.24169  0.71788  Biso   1.000  C
  H289     1.0000 0.62170  0.23580  0.69570  Biso   1.000  H
  C290     1.0000 0.51681  0.33168  0.62760  Biso   1.000  C
  H290     1.0000 0.52830  0.31790  0.61320  Biso   1.000  H
  O579     1.0000 0.61820  0.29390  0.67450  Biso   1.000  O
  O580     1.0000 0.58310  0.32680  0.63470  Biso   1.000  O
  O581     1.0000 0.62870  0.78720  0.17040  Biso   1.000  O
  O582     1.0000 0.58370  0.83420  0.12880  Biso   1.000  O
  C291     1.0000 0.62266  0.74169  0.21788  Biso   1.000  C
  H291     1.0000 0.62170  0.73580  0.19570  Biso   1.000  H
  C292     1.0000 0.51681  0.83168  0.12760  Biso   1.000  C
  H292     1.0000 0.52830  0.81790  0.11320  Biso   1.000  H
  O583     1.0000 0.61820  0.79390  0.17450  Biso   1.000  O
  O584     1.0000 0.58310  0.82680  0.13470  Biso   1.000  O
  O585     1.0000 0.12870  0.28720  0.17040  Biso   1.000  O
  O586     1.0000 0.08370  0.33420  0.12880  Biso   1.000  O
  C293     1.0000 0.12266  0.24169  0.21788  Biso   1.000  C
  H293     1.0000 0.12170  0.23580  0.19570  Biso   1.000  H
  C294     1.0000 0.01681  0.33168  0.12760  Biso   1.000  C
  H294     1.0000 0.02830  0.31790  0.11320  Biso   1.000  H
  O587     1.0000 0.11820  0.29390  0.17450  Biso   1.000  O
  O588     1.0000 0.08310  0.32680  0.13470  Biso   1.000  O
  O589     1.0000 0.12870  0.78720  0.67040  Biso   1.000  O
  O590     1.0000 0.08370  0.83420  0.62880  Biso   1.000  O
  C295     1.0000 0.12266  0.74169  0.71788  Biso   1.000  C
  H295     1.0000 0.12170  0.73580  0.69570  Biso   1.000  H
  C296     1.0000 0.01681  0.83168  0.62760  Biso   1.000  C
  H296     1.0000 0.02830  0.81790  0.61320  Biso   1.000  H
  O591     1.0000 0.11820  0.79390  0.67450  Biso   1.000  O
  O592     1.0000 0.08310  0.82680  0.63470  Biso   1.000  O
  O593     1.0000 0.37130  0.71280  0.67040  Biso   1.000  O
  O594     1.0000 0.41630  0.66580  0.62880  Biso   1.000  O
  C297     1.0000 0.37734  0.75831  0.71788  Biso   1.000  C
  H297     1.0000 0.37830  0.76420  0.69570  Biso   1.000  H
  C298     1.0000 0.48319  0.66832  0.62760  Biso   1.000  C
  H298     1.0000 0.47170  0.68210  0.61320  Biso   1.000  H
  O595     1.0000 0.38180  0.70610  0.67450  Biso   1.000  O
  O596     1.0000 0.41690  0.67320  0.63470  Biso   1.000  O
  O597     1.0000 0.37130  0.21280  0.17040  Biso   1.000  O
  O598     1.0000 0.41630  0.16580  0.12880  Biso   1.000  O
  C299     1.0000 0.37734  0.25831  0.21788  Biso   1.000  C
  H299     1.0000 0.37830  0.26420  0.19570  Biso   1.000  H
  C300     1.0000 0.48319  0.16832  0.12760  Biso   1.000  C
  H300     1.0000 0.47170  0.18210  0.11320  Biso   1.000  H
  O599     1.0000 0.38180  0.20610  0.17450  Biso   1.000  O
  O600     1.0000 0.41690  0.17320  0.13470  Biso   1.000  O
  O601     1.0000 0.87130  0.71280  0.17040  Biso   1.000  O
  O602     1.0000 0.91630  0.66580  0.12880  Biso   1.000  O
  C301     1.0000 0.87734  0.75831  0.21788  Biso   1.000  C
  H301     1.0000 0.87830  0.76420  0.19570  Biso   1.000  H
  C302     1.0000 0.98319  0.66832  0.12760  Biso   1.000  C
  H302     1.0000 0.97170  0.68210  0.11320  Biso   1.000  H
  O603     1.0000 0.88180  0.70610  0.17450  Biso   1.000  O
  O604     1.0000 0.91690  0.67320  0.13470  Biso   1.000  O
  O605     1.0000 0.87130  0.21280  0.67040  Biso   1.000  O
  O606     1.0000 0.91630  0.16580  0.62880  Biso   1.000  O
  C303     1.0000 0.87734  0.25831  0.71788  Biso   1.000  C
  H303     1.0000 0.87830  0.26420  0.69570  Biso   1.000  H
  C304     1.0000 0.98319  0.16832  0.62760  Biso   1.000  C
  H304     1.0000 0.97170  0.18210  0.61320  Biso   1.000  H
  O607     1.0000 0.88180  0.20610  0.67450  Biso   1.000  O
  O608     1.0000 0.91690  0.17320  0.63470  Biso   1.000  O
  O609     1.0000 0.62870  0.71280  0.32960  Biso   1.000  O
  O610     1.0000 0.58370  0.66580  0.37120  Biso   1.000  O
  C305     1.0000 0.62266  0.75831  0.28212  Biso   1.000  C
  H305     1.0000 0.62170  0.76420  0.30430  Biso   1.000  H
  C306     1.0000 0.51681  0.66832  0.37240  Biso   1.000  C
  H306     1.0000 0.52830  0.68210  0.38680  Biso   1.000  H
  O611     1.0000 0.61820  0.70610  0.32550  Biso   1.000  O
  O612     1.0000 0.58310  0.67320  0.36530  Biso   1.000  O
  O613     1.0000 0.62870  0.21280  0.82960  Biso   1.000  O
  O614     1.0000 0.58370  0.16580  0.87120  Biso   1.000  O
  C307     1.0000 0.62266  0.25831  0.78212  Biso   1.000  C
  H307     1.0000 0.62170  0.26420  0.80430  Biso   1.000  H
  C308     1.0000 0.51681  0.16832  0.87240  Biso   1.000  C
  H308     1.0000 0.52830  0.18210  0.88680  Biso   1.000  H
  O615     1.0000 0.61820  0.20610  0.82550  Biso   1.000  O
  O616     1.0000 0.58310  0.17320  0.86530  Biso   1.000  O
  O617     1.0000 0.12870  0.71280  0.82960  Biso   1.000  O
  O618     1.0000 0.08370  0.66580  0.87120  Biso   1.000  O
  C309     1.0000 0.12266  0.75831  0.78212  Biso   1.000  C
  H309     1.0000 0.12170  0.76420  0.80430  Biso   1.000  H
  C310     1.0000 0.01681  0.66832  0.87240  Biso   1.000  C
  H310     1.0000 0.02830  0.68210  0.88680  Biso   1.000  H
  O619     1.0000 0.11820  0.70610  0.82550  Biso   1.000  O
  O620     1.0000 0.08310  0.67320  0.86530  Biso   1.000  O
  O621     1.0000 0.12870  0.21280  0.32960  Biso   1.000  O
  O622     1.0000 0.08370  0.16580  0.37120  Biso   1.000  O
  C311     1.0000 0.12266  0.25831  0.28212  Biso   1.000  C
  H311     1.0000 0.12170  0.26420  0.30430  Biso   1.000  H
  C312     1.0000 0.01681  0.16832  0.37240  Biso   1.000  C
  H312     1.0000 0.02830  0.18210  0.38680  Biso   1.000  H
  O623     1.0000 0.11820  0.20610  0.32550  Biso   1.000  O
  O624     1.0000 0.08310  0.17320  0.36530  Biso   1.000  O
  O625     1.0000 0.37130  0.28720  0.32960  Biso   1.000  O
  O626     1.0000 0.41630  0.33420  0.37120  Biso   1.000  O
  C313     1.0000 0.37734  0.24169  0.28212  Biso   1.000  C
  H313     1.0000 0.37830  0.23580  0.30430  Biso   1.000  H
  C314     1.0000 0.48319  0.33168  0.37240  Biso   1.000  C
  H314     1.0000 0.47170  0.31790  0.38680  Biso   1.000  H
  O627     1.0000 0.38180  0.29390  0.32550  Biso   1.000  O
  O628     1.0000 0.41690  0.32680  0.36530  Biso   1.000  O
  O629     1.0000 0.37130  0.78720  0.82960  Biso   1.000  O
  O630     1.0000 0.41630  0.83420  0.87120  Biso   1.000  O
  C315     1.0000 0.37734  0.74169  0.78212  Biso   1.000  C
  H315     1.0000 0.37830  0.73580  0.80430  Biso   1.000  H
  C316     1.0000 0.48319  0.83168  0.87240  Biso   1.000  C
  H316     1.0000 0.47170  0.81790  0.88680  Biso   1.000  H
  O631     1.0000 0.38180  0.79390  0.82550  Biso   1.000  O
  O632     1.0000 0.41690  0.82680  0.86530  Biso   1.000  O
  O633     1.0000 0.87130  0.28720  0.82960  Biso   1.000  O
  O634     1.0000 0.91630  0.33420  0.87120  Biso   1.000  O
  C317     1.0000 0.87734  0.24169  0.78212  Biso   1.000  C
  H317     1.0000 0.87830  0.23580  0.80430  Biso   1.000  H
  C318     1.0000 0.98319  0.33168  0.87240  Biso   1.000  C
  H318     1.0000 0.97170  0.31790  0.88680  Biso   1.000  H
  O635     1.0000 0.88180  0.29390  0.82550  Biso   1.000  O
  O636     1.0000 0.91690  0.32680  0.86530  Biso   1.000  O
  O637     1.0000 0.87130  0.78720  0.32960  Biso   1.000  O
  O638     1.0000 0.91630  0.83420  0.37120  Biso   1.000  O
  C319     1.0000 0.87734  0.74169  0.28212  Biso   1.000  C
  H319     1.0000 0.87830  0.73580  0.30430  Biso   1.000  H
  C320     1.0000 0.98319  0.83168  0.37240  Biso   1.000  C
  H320     1.0000 0.97170  0.81790  0.38680  Biso   1.000  H
  O639     1.0000 0.88180  0.79390  0.32550  Biso   1.000  O
  O640     1.0000 0.91690  0.82680  0.36530  Biso   1.000  O
  O641     1.0000 0.28720  0.32960  0.37130  Biso   1.000  O
  O642     1.0000 0.33420  0.37120  0.41630  Biso   1.000  O
  C321     1.0000 0.24169  0.28212  0.37734  Biso   1.000  C
  H321     1.0000 0.23580  0.30430  0.37830  Biso   1.000  H
  C322     1.0000 0.33168  0.37240  0.48319  Biso   1.000  C
  H322     1.0000 0.31790  0.38680  0.47170  Biso   1.000  H
  O643     1.0000 0.29390  0.32550  0.38180  Biso   1.000  O
  O644     1.0000 0.32680  0.36530  0.41690  Biso   1.000  O
  O645     1.0000 0.28720  0.82960  0.87130  Biso   1.000  O
  O646     1.0000 0.33420  0.87120  0.91630  Biso   1.000  O
  C323     1.0000 0.24169  0.78212  0.87734  Biso   1.000  C
  H323     1.0000 0.23580  0.80430  0.87830  Biso   1.000  H
  C324     1.0000 0.33168  0.87240  0.98319  Biso   1.000  C
  H324     1.0000 0.31790  0.88680  0.97170  Biso   1.000  H
  O647     1.0000 0.29390  0.82550  0.88180  Biso   1.000  O
  O648     1.0000 0.32680  0.86530  0.91690  Biso   1.000  O
  O649     1.0000 0.78720  0.32960  0.87130  Biso   1.000  O
  O650     1.0000 0.83420  0.37120  0.91630  Biso   1.000  O
  C325     1.0000 0.74169  0.28212  0.87734  Biso   1.000  C
  H325     1.0000 0.73580  0.30430  0.87830  Biso   1.000  H
  C326     1.0000 0.83168  0.37240  0.98319  Biso   1.000  C
  H326     1.0000 0.81790  0.38680  0.97170  Biso   1.000  H
  O651     1.0000 0.79390  0.32550  0.88180  Biso   1.000  O
  O652     1.0000 0.82680  0.36530  0.91690  Biso   1.000  O
  O653     1.0000 0.78720  0.82960  0.37130  Biso   1.000  O
  O654     1.0000 0.83420  0.87120  0.41630  Biso   1.000  O
  C327     1.0000 0.74169  0.78212  0.37734  Biso   1.000  C
  H327     1.0000 0.73580  0.80430  0.37830  Biso   1.000  H
  C328     1.0000 0.83168  0.87240  0.48319  Biso   1.000  C
  H328     1.0000 0.81790  0.88680  0.47170  Biso   1.000  H
  O655     1.0000 0.79390  0.82550  0.38180  Biso   1.000  O
  O656     1.0000 0.82680  0.86530  0.41690  Biso   1.000  O
  O657     1.0000 0.71280  0.32960  0.62870  Biso   1.000  O
  O658     1.0000 0.66580  0.37120  0.58370  Biso   1.000  O
  C329     1.0000 0.75831  0.28212  0.62266  Biso   1.000  C
  H329     1.0000 0.76420  0.30430  0.62170  Biso   1.000  H
  C330     1.0000 0.66832  0.37240  0.51681  Biso   1.000  C
  H330     1.0000 0.68210  0.38680  0.52830  Biso   1.000  H
  O659     1.0000 0.70610  0.32550  0.61820  Biso   1.000  O
  O660     1.0000 0.67320  0.36530  0.58310  Biso   1.000  O
  O661     1.0000 0.71280  0.82960  0.12870  Biso   1.000  O
  O662     1.0000 0.66580  0.87120  0.08370  Biso   1.000  O
  C331     1.0000 0.75831  0.78212  0.12266  Biso   1.000  C
  H331     1.0000 0.76420  0.80430  0.12170  Biso   1.000  H
  C332     1.0000 0.66832  0.87240  0.01681  Biso   1.000  C
  H332     1.0000 0.68210  0.88680  0.02830  Biso   1.000  H
  O663     1.0000 0.70610  0.82550  0.11820  Biso   1.000  O
  O664     1.0000 0.67320  0.86530  0.08310  Biso   1.000  O
  O665     1.0000 0.21280  0.32960  0.12870  Biso   1.000  O
  O666     1.0000 0.16580  0.37120  0.08370  Biso   1.000  O
  C333     1.0000 0.25831  0.28212  0.12266  Biso   1.000  C
  H333     1.0000 0.26420  0.30430  0.12170  Biso   1.000  H
  C334     1.0000 0.16832  0.37240  0.01681  Biso   1.000  C
  H334     1.0000 0.18210  0.38680  0.02830  Biso   1.000  H
  O667     1.0000 0.20610  0.32550  0.11820  Biso   1.000  O
  O668     1.0000 0.17320  0.36530  0.08310  Biso   1.000  O
  O669     1.0000 0.21280  0.82960  0.62870  Biso   1.000  O
  O670     1.0000 0.16580  0.87120  0.58370  Biso   1.000  O
  C335     1.0000 0.25831  0.78212  0.62266  Biso   1.000  C
  H335     1.0000 0.26420  0.80430  0.62170  Biso   1.000  H
  C336     1.0000 0.16832  0.87240  0.51681  Biso   1.000  C
  H336     1.0000 0.18210  0.88680  0.52830  Biso   1.000  H
  O671     1.0000 0.20610  0.82550  0.61820  Biso   1.000  O
  O672     1.0000 0.17320  0.86530  0.58310  Biso   1.000  O
  O673     1.0000 0.71280  0.67040  0.37130  Biso   1.000  O
  O674     1.0000 0.66580  0.62880  0.41630  Biso   1.000  O
  C337     1.0000 0.75831  0.71788  0.37734  Biso   1.000  C
  H337     1.0000 0.76420  0.69570  0.37830  Biso   1.000  H
  C338     1.0000 0.66832  0.62760  0.48319  Biso   1.000  C
  H338     1.0000 0.68210  0.61320  0.47170  Biso   1.000  H
  O675     1.0000 0.70610  0.67450  0.38180  Biso   1.000  O
  O676     1.0000 0.67320  0.63470  0.41690  Biso   1.000  O
  O677     1.0000 0.71280  0.17040  0.87130  Biso   1.000  O
  O678     1.0000 0.66580  0.12880  0.91630  Biso   1.000  O
  C339     1.0000 0.75831  0.21788  0.87734  Biso   1.000  C
  H339     1.0000 0.76420  0.19570  0.87830  Biso   1.000  H
  C340     1.0000 0.66832  0.12760  0.98319  Biso   1.000  C
  H340     1.0000 0.68210  0.11320  0.97170  Biso   1.000  H
  O679     1.0000 0.70610  0.17450  0.88180  Biso   1.000  O
  O680     1.0000 0.67320  0.13470  0.91690  Biso   1.000  O
  O681     1.0000 0.21280  0.67040  0.87130  Biso   1.000  O
  O682     1.0000 0.16580  0.62880  0.91630  Biso   1.000  O
  C341     1.0000 0.25831  0.71788  0.87734  Biso   1.000  C
  H341     1.0000 0.26420  0.69570  0.87830  Biso   1.000  H
  C342     1.0000 0.16832  0.62760  0.98319  Biso   1.000  C
  H342     1.0000 0.18210  0.61320  0.97170  Biso   1.000  H
  O683     1.0000 0.20610  0.67450  0.88180  Biso   1.000  O
  O684     1.0000 0.17320  0.63470  0.91690  Biso   1.000  O
  O685     1.0000 0.21280  0.17040  0.37130  Biso   1.000  O
  O686     1.0000 0.16580  0.12880  0.41630  Biso   1.000  O
  C343     1.0000 0.25831  0.21788  0.37734  Biso   1.000  C
  H343     1.0000 0.26420  0.19570  0.37830  Biso   1.000  H
  C344     1.0000 0.16832  0.12760  0.48319  Biso   1.000  C
  H344     1.0000 0.18210  0.11320  0.47170  Biso   1.000  H
  O687     1.0000 0.20610  0.17450  0.38180  Biso   1.000  O
  O688     1.0000 0.17320  0.13470  0.41690  Biso   1.000  O
  O689     1.0000 0.28720  0.67040  0.62870  Biso   1.000  O
  O690     1.0000 0.33420  0.62880  0.58370  Biso   1.000  O
  C345     1.0000 0.24169  0.71788  0.62266  Biso   1.000  C
  H345     1.0000 0.23580  0.69570  0.62170  Biso   1.000  H
  C346     1.0000 0.33168  0.62760  0.51681  Biso   1.000  C
  H346     1.0000 0.31790  0.61320  0.52830  Biso   1.000  H
  O691     1.0000 0.29390  0.67450  0.61820  Biso   1.000  O
  O692     1.0000 0.32680  0.63470  0.58310  Biso   1.000  O
  O693     1.0000 0.28720  0.17040  0.12870  Biso   1.000  O
  O694     1.0000 0.33420  0.12880  0.08370  Biso   1.000  O
  C347     1.0000 0.24169  0.21788  0.12266  Biso   1.000  C
  H347     1.0000 0.23580  0.19570  0.12170  Biso   1.000  H
  C348     1.0000 0.33168  0.12760  0.01681  Biso   1.000  C
  H348     1.0000 0.31790  0.11320  0.02830  Biso   1.000  H
  O695     1.0000 0.29390  0.17450  0.11820  Biso   1.000  O
  O696     1.0000 0.32680  0.13470  0.08310  Biso   1.000  O
  O697     1.0000 0.78720  0.67040  0.12870  Biso   1.000  O
  O698     1.0000 0.83420  0.62880  0.08370  Biso   1.000  O
  C349     1.0000 0.74169  0.71788  0.12266  Biso   1.000  C
  H349     1.0000 0.73580  0.69570  0.12170  Biso   1.000  H
  C350     1.0000 0.83168  0.62760  0.01681  Biso   1.000  C
  H350     1.0000 0.81790  0.61320  0.02830  Biso   1.000  H
  O699     1.0000 0.79390  0.67450  0.11820  Biso   1.000  O
  O700     1.0000 0.82680  0.63470  0.08310  Biso   1.000  O
  O701     1.0000 0.78720  0.17040  0.62870  Biso   1.000  O
  O702     1.0000 0.83420  0.12880  0.58370  Biso   1.000  O
  C351     1.0000 0.74169  0.21788  0.62266  Biso   1.000  C
  H351     1.0000 0.73580  0.19570  0.62170  Biso   1.000  H
  C352     1.0000 0.83168  0.12760  0.51681  Biso   1.000  C
  H352     1.0000 0.81790  0.11320  0.52830  Biso   1.000  H
  O703     1.0000 0.79390  0.17450  0.61820  Biso   1.000  O
  O704     1.0000 0.82680  0.13470  0.58310  Biso   1.000  O
  O705     1.0000 0.32960  0.62870  0.71280  Biso   1.000  O
  O706     1.0000 0.37120  0.58370  0.66580  Biso   1.000  O
  C353     1.0000 0.28212  0.62266  0.75831  Biso   1.000  C
  H353     1.0000 0.30430  0.62170  0.76420  Biso   1.000  H
  C354     1.0000 0.37240  0.51681  0.66832  Biso   1.000  C
  H354     1.0000 0.38680  0.52830  0.68210  Biso   1.000  H
  O707     1.0000 0.32550  0.61820  0.70610  Biso   1.000  O
  O708     1.0000 0.36530  0.58310  0.67320  Biso   1.000  O
  O709     1.0000 0.32960  0.12870  0.21280  Biso   1.000  O
  O710     1.0000 0.37120  0.08370  0.16580  Biso   1.000  O
  C355     1.0000 0.28212  0.12266  0.25831  Biso   1.000  C
  H355     1.0000 0.30430  0.12170  0.26420  Biso   1.000  H
  C356     1.0000 0.37240  0.01681  0.16832  Biso   1.000  C
  H356     1.0000 0.38680  0.02830  0.18210  Biso   1.000  H
  O711     1.0000 0.32550  0.11820  0.20610  Biso   1.000  O
  O712     1.0000 0.36530  0.08310  0.17320  Biso   1.000  O
  O713     1.0000 0.82960  0.62870  0.21280  Biso   1.000  O
  O714     1.0000 0.87120  0.58370  0.16580  Biso   1.000  O
  C357     1.0000 0.78212  0.62266  0.25831  Biso   1.000  C
  H357     1.0000 0.80430  0.62170  0.26420  Biso   1.000  H
  C358     1.0000 0.87240  0.51681  0.16832  Biso   1.000  C
  H358     1.0000 0.88680  0.52830  0.18210  Biso   1.000  H
  O715     1.0000 0.82550  0.61820  0.20610  Biso   1.000  O
  O716     1.0000 0.86530  0.58310  0.17320  Biso   1.000  O
  O717     1.0000 0.82960  0.12870  0.71280  Biso   1.000  O
  O718     1.0000 0.87120  0.08370  0.66580  Biso   1.000  O
  C359     1.0000 0.78212  0.12266  0.75831  Biso   1.000  C
  H359     1.0000 0.80430  0.12170  0.76420  Biso   1.000  H
  C360     1.0000 0.87240  0.01681  0.66832  Biso   1.000  C
  H360     1.0000 0.88680  0.02830  0.68210  Biso   1.000  H
  O719     1.0000 0.82550  0.11820  0.70610  Biso   1.000  O
  O720     1.0000 0.86530  0.08310  0.67320  Biso   1.000  O
  O721     1.0000 0.32960  0.37130  0.28720  Biso   1.000  O
  O722     1.0000 0.37120  0.41630  0.33420  Biso   1.000  O
  C361     1.0000 0.28212  0.37734  0.24169  Biso   1.000  C
  H361     1.0000 0.30430  0.37830  0.23580  Biso   1.000  H
  C362     1.0000 0.37240  0.48319  0.33168  Biso   1.000  C
  H362     1.0000 0.38680  0.47170  0.31790  Biso   1.000  H
  O723     1.0000 0.32550  0.38180  0.29390  Biso   1.000  O
  O724     1.0000 0.36530  0.41690  0.32680  Biso   1.000  O
  O725     1.0000 0.32960  0.87130  0.78720  Biso   1.000  O
  O726     1.0000 0.37120  0.91630  0.83420  Biso   1.000  O
  C363     1.0000 0.28212  0.87734  0.74169  Biso   1.000  C
  H363     1.0000 0.30430  0.87830  0.73580  Biso   1.000  H
  C364     1.0000 0.37240  0.98319  0.83168  Biso   1.000  C
  H364     1.0000 0.38680  0.97170  0.81790  Biso   1.000  H
  O727     1.0000 0.32550  0.88180  0.79390  Biso   1.000  O
  O728     1.0000 0.36530  0.91690  0.82680  Biso   1.000  O
  O729     1.0000 0.82960  0.37130  0.78720  Biso   1.000  O
  O730     1.0000 0.87120  0.41630  0.83420  Biso   1.000  O
  C365     1.0000 0.78212  0.37734  0.74169  Biso   1.000  C
  H365     1.0000 0.80430  0.37830  0.73580  Biso   1.000  H
  C366     1.0000 0.87240  0.48319  0.83168  Biso   1.000  C
  H366     1.0000 0.88680  0.47170  0.81790  Biso   1.000  H
  O731     1.0000 0.82550  0.38180  0.79390  Biso   1.000  O
  O732     1.0000 0.86530  0.41690  0.82680  Biso   1.000  O
  O733     1.0000 0.82960  0.87130  0.28720  Biso   1.000  O
  O734     1.0000 0.87120  0.91630  0.33420  Biso   1.000  O
  C367     1.0000 0.78212  0.87734  0.24169  Biso   1.000  C
  H367     1.0000 0.80430  0.87830  0.23580  Biso   1.000  H
  C368     1.0000 0.87240  0.98319  0.33168  Biso   1.000  C
  H368     1.0000 0.88680  0.97170  0.31790  Biso   1.000  H
  O735     1.0000 0.82550  0.88180  0.29390  Biso   1.000  O
  O736     1.0000 0.86530  0.91690  0.32680  Biso   1.000  O
  O737     1.0000 0.67040  0.62870  0.28720  Biso   1.000  O
  O738     1.0000 0.62880  0.58370  0.33420  Biso   1.000  O
  C369     1.0000 0.71788  0.62266  0.24169  Biso   1.000  C
  H369     1.0000 0.69570  0.62170  0.23580  Biso   1.000  H
  C370     1.0000 0.62760  0.51681  0.33168  Biso   1.000  C
  H370     1.0000 0.61320  0.52830  0.31790  Biso   1.000  H
  O739     1.0000 0.67450  0.61820  0.29390  Biso   1.000  O
  O740     1.0000 0.63470  0.58310  0.32680  Biso   1.000  O
  O741     1.0000 0.67040  0.12870  0.78720  Biso   1.000  O
  O742     1.0000 0.62880  0.08370  0.83420  Biso   1.000  O
  C371     1.0000 0.71788  0.12266  0.74169  Biso   1.000  C
  H371     1.0000 0.69570  0.12170  0.73580  Biso   1.000  H
  C372     1.0000 0.62760  0.01681  0.83168  Biso   1.000  C
  H372     1.0000 0.61320  0.02830  0.81790  Biso   1.000  H
  O743     1.0000 0.67450  0.11820  0.79390  Biso   1.000  O
  O744     1.0000 0.63470  0.08310  0.82680  Biso   1.000  O
  O745     1.0000 0.17040  0.62870  0.78720  Biso   1.000  O
  O746     1.0000 0.12880  0.58370  0.83420  Biso   1.000  O
  C373     1.0000 0.21788  0.62266  0.74169  Biso   1.000  C
  H373     1.0000 0.19570  0.62170  0.73580  Biso   1.000  H
  C374     1.0000 0.12760  0.51681  0.83168  Biso   1.000  C
  H374     1.0000 0.11320  0.52830  0.81790  Biso   1.000  H
  O747     1.0000 0.17450  0.61820  0.79390  Biso   1.000  O
  O748     1.0000 0.13470  0.58310  0.82680  Biso   1.000  O
  O749     1.0000 0.17040  0.12870  0.28720  Biso   1.000  O
  O750     1.0000 0.12880  0.08370  0.33420  Biso   1.000  O
  C375     1.0000 0.21788  0.12266  0.24169  Biso   1.000  C
  H375     1.0000 0.19570  0.12170  0.23580  Biso   1.000  H
  C376     1.0000 0.12760  0.01681  0.33168  Biso   1.000  C
  H376     1.0000 0.11320  0.02830  0.31790  Biso   1.000  H
  O751     1.0000 0.17450  0.11820  0.29390  Biso   1.000  O
  O752     1.0000 0.13470  0.08310  0.32680  Biso   1.000  O
  O753     1.0000 0.67040  0.37130  0.71280  Biso   1.000  O
  O754     1.0000 0.62880  0.41630  0.66580  Biso   1.000  O
  C377     1.0000 0.71788  0.37734  0.75831  Biso   1.000  C
  H377     1.0000 0.69570  0.37830  0.76420  Biso   1.000  H
  C378     1.0000 0.62760  0.48319  0.66832  Biso   1.000  C
  H378     1.0000 0.61320  0.47170  0.68210  Biso   1.000  H
  O755     1.0000 0.67450  0.38180  0.70610  Biso   1.000  O
  O756     1.0000 0.63470  0.41690  0.67320  Biso   1.000  O
  O757     1.0000 0.67040  0.87130  0.21280  Biso   1.000  O
  O758     1.0000 0.62880  0.91630  0.16580  Biso   1.000  O
  C379     1.0000 0.71788  0.87734  0.25831  Biso   1.000  C
  H379     1.0000 0.69570  0.87830  0.26420  Biso   1.000  H
  C380     1.0000 0.62760  0.98319  0.16832  Biso   1.000  C
  H380     1.0000 0.61320  0.97170  0.18210  Biso   1.000  H
  O759     1.0000 0.67450  0.88180  0.20610  Biso   1.000  O
  O760     1.0000 0.63470  0.91690  0.17320  Biso   1.000  O
  O761     1.0000 0.17040  0.37130  0.21280  Biso   1.000  O
  O762     1.0000 0.12880  0.41630  0.16580  Biso   1.000  O
  C381     1.0000 0.21788  0.37734  0.25831  Biso   1.000  C
  H381     1.0000 0.19570  0.37830  0.26420  Biso   1.000  H
  C382     1.0000 0.12760  0.48319  0.16832  Biso   1.000  C
  H382     1.0000 0.11320  0.47170  0.18210  Biso   1.000  H
  O763     1.0000 0.17450  0.38180  0.20610  Biso   1.000  O
  O764     1.0000 0.13470  0.41690  0.17320  Biso   1.000  O
  O765     1.0000 0.17040  0.87130  0.71280  Biso   1.000  O
  O766     1.0000 0.12880  0.91630  0.66580  Biso   1.000  O
  C383     1.0000 0.21788  0.87734  0.75831  Biso   1.000  C
  H383     1.0000 0.19570  0.87830  0.76420  Biso   1.000  H
  C384     1.0000 0.12760  0.98319  0.66832  Biso   1.000  C
  H384     1.0000 0.11320  0.97170  0.68210  Biso   1.000  H
  O767     1.0000 0.17450  0.88180  0.70610  Biso   1.000  O
  O768     1.0000 0.13470  0.91690  0.67320  Biso   1.000  O
  Fe1      1.0000 0.68684  0.37079  0.62921  Biso   1.000  Fe
  O769     1.0000 0.77100  0.46670  0.53330  Biso   1.000  O
  O770     1.0000 0.71940  0.46040  0.53960  Biso   1.000  O
  C385     1.0000 0.75210  0.42939  0.57061  Biso   1.000  C
  C386     1.0000 0.72514  0.41512  0.58488  Biso   1.000  C
  H385     1.0000 0.70400  0.42155  0.57845  Biso   1.000  H
  N1       1.0000 0.72909  0.39145  0.60855  Biso   1.000  N
  C387     1.0000 0.76005  0.38204  0.61796  Biso   1.000  C
  H386     1.0000 0.76270  0.36590  0.63410  Biso   1.000  H
  C388     1.0000 0.78704  0.39629  0.60371  Biso   1.000  C
  H387     1.0000 0.80820  0.38990  0.61010  Biso   1.000  H
  C389     1.0000 0.78309  0.41995  0.58005  Biso   1.000  C
  H388     1.0000 0.80150  0.42970  0.57030  Biso   1.000  H
  C390     1.0000 0.74690  0.45530  0.54470  Biso   1.000  C
  Fe2      1.0000 0.68684  0.87079  0.12921  Biso   1.000  Fe
  O771     1.0000 0.77100  0.96670  0.03330  Biso   1.000  O
  O772     1.0000 0.71940  0.96040  0.03960  Biso   1.000  O
  C391     1.0000 0.75210  0.92939  0.07061  Biso   1.000  C
  C392     1.0000 0.72514  0.91512  0.08488  Biso   1.000  C
  H389     1.0000 0.70400  0.92155  0.07845  Biso   1.000  H
  N2       1.0000 0.72909  0.89145  0.10855  Biso   1.000  N
  C393     1.0000 0.76005  0.88204  0.11796  Biso   1.000  C
  H390     1.0000 0.76270  0.86590  0.13410  Biso   1.000  H
  C394     1.0000 0.78704  0.89629  0.10371  Biso   1.000  C
  H391     1.0000 0.80820  0.88990  0.11010  Biso   1.000  H
  C395     1.0000 0.78309  0.91996  0.08005  Biso   1.000  C
  H392     1.0000 0.80150  0.92970  0.07030  Biso   1.000  H
  C396     1.0000 0.74690  0.95530  0.04470  Biso   1.000  C
  Fe3      1.0000 0.18684  0.37079  0.12921  Biso   1.000  Fe
  O773     1.0000 0.27100  0.46670  0.03330  Biso   1.000  O
  O774     1.0000 0.21940  0.46040  0.03960  Biso   1.000  O
  C397     1.0000 0.25210  0.42939  0.07061  Biso   1.000  C
  C398     1.0000 0.22514  0.41512  0.08488  Biso   1.000  C
  H393     1.0000 0.20400  0.42155  0.07845  Biso   1.000  H
  N3       1.0000 0.22909  0.39145  0.10855  Biso   1.000  N
  C399     1.0000 0.26005  0.38204  0.11796  Biso   1.000  C
  H394     1.0000 0.26270  0.36590  0.13410  Biso   1.000  H
  C400     1.0000 0.28704  0.39629  0.10371  Biso   1.000  C
  H395     1.0000 0.30820  0.38990  0.11010  Biso   1.000  H
  C401     1.0000 0.28309  0.41995  0.08005  Biso   1.000  C
  H396     1.0000 0.30150  0.42970  0.07030  Biso   1.000  H
  C402     1.0000 0.24690  0.45530  0.04470  Biso   1.000  C
  Fe4      1.0000 0.18684  0.87079  0.62921  Biso   1.000  Fe
  O775     1.0000 0.27100  0.96670  0.53330  Biso   1.000  O
  O776     1.0000 0.21940  0.96040  0.53960  Biso   1.000  O
  C403     1.0000 0.25210  0.92939  0.57061  Biso   1.000  C
  C404     1.0000 0.22514  0.91512  0.58488  Biso   1.000  C
  H397     1.0000 0.20400  0.92155  0.57845  Biso   1.000  H
  N4       1.0000 0.22909  0.89145  0.60855  Biso   1.000  N
  C405     1.0000 0.26005  0.88204  0.61796  Biso   1.000  C
  H398     1.0000 0.26270  0.86590  0.63410  Biso   1.000  H
  C406     1.0000 0.28704  0.89629  0.60371  Biso   1.000  C
  H399     1.0000 0.30820  0.88990  0.61010  Biso   1.000  H
  C407     1.0000 0.28309  0.91996  0.58005  Biso   1.000  C
  H400     1.0000 0.30150  0.92970  0.57030  Biso   1.000  H
  C408     1.0000 0.24690  0.95530  0.54470  Biso   1.000  C
  Fe5      1.0000 0.31316  0.62921  0.62921  Biso   1.000  Fe
  O777     1.0000 0.22900  0.53330  0.53330  Biso   1.000  O
  O778     1.0000 0.28060  0.53960  0.53960  Biso   1.000  O
  C409     1.0000 0.24790  0.57061  0.57061  Biso   1.000  C
  C410     1.0000 0.27486  0.58488  0.58488  Biso   1.000  C
  H401     1.0000 0.29600  0.57845  0.57845  Biso   1.000  H
  N5       1.0000 0.27091  0.60855  0.60855  Biso   1.000  N
  C411     1.0000 0.23995  0.61796  0.61796  Biso   1.000  C
  H402     1.0000 0.23730  0.63410  0.63410  Biso   1.000  H
  C412     1.0000 0.21296  0.60371  0.60371  Biso   1.000  C
  H403     1.0000 0.19180  0.61010  0.61010  Biso   1.000  H
  C413     1.0000 0.21691  0.58005  0.58005  Biso   1.000  C
  H404     1.0000 0.19850  0.57030  0.57030  Biso   1.000  H
  C414     1.0000 0.25310  0.54470  0.54470  Biso   1.000  C
  Fe6      1.0000 0.31316  0.12921  0.12921  Biso   1.000  Fe
  O779     1.0000 0.22900  0.03330  0.03330  Biso   1.000  O
  O780     1.0000 0.28060  0.03960  0.03960  Biso   1.000  O
  C415     1.0000 0.24790  0.07061  0.07061  Biso   1.000  C
  C416     1.0000 0.27486  0.08488  0.08488  Biso   1.000  C
  H405     1.0000 0.29600  0.07845  0.07845  Biso   1.000  H
  N6       1.0000 0.27091  0.10855  0.10855  Biso   1.000  N
  C417     1.0000 0.23995  0.11796  0.11796  Biso   1.000  C
  H406     1.0000 0.23730  0.13410  0.13410  Biso   1.000  H
  C418     1.0000 0.21296  0.10371  0.10371  Biso   1.000  C
  H407     1.0000 0.19180  0.11010  0.11010  Biso   1.000  H
  C419     1.0000 0.21691  0.08005  0.08005  Biso   1.000  C
  H408     1.0000 0.19850  0.07030  0.07030  Biso   1.000  H
  C420     1.0000 0.25310  0.04470  0.04470  Biso   1.000  C
  Fe7      1.0000 0.81316  0.62921  0.12921  Biso   1.000  Fe
  O781     1.0000 0.72900  0.53330  0.03330  Biso   1.000  O
  O782     1.0000 0.78060  0.53960  0.03960  Biso   1.000  O
  C421     1.0000 0.74790  0.57061  0.07061  Biso   1.000  C
  C422     1.0000 0.77486  0.58488  0.08488  Biso   1.000  C
  H409     1.0000 0.79600  0.57845  0.07845  Biso   1.000  H
  N7       1.0000 0.77091  0.60855  0.10855  Biso   1.000  N
  C423     1.0000 0.73995  0.61796  0.11796  Biso   1.000  C
  H410     1.0000 0.73730  0.63410  0.13410  Biso   1.000  H
  C424     1.0000 0.71296  0.60371  0.10371  Biso   1.000  C
  H411     1.0000 0.69180  0.61010  0.11010  Biso   1.000  H
  C425     1.0000 0.71691  0.58005  0.08005  Biso   1.000  C
  H412     1.0000 0.69850  0.57030  0.07030  Biso   1.000  H
  C426     1.0000 0.75310  0.54470  0.04470  Biso   1.000  C
  Fe8      1.0000 0.81316  0.12921  0.62921  Biso   1.000  Fe
  O783     1.0000 0.72900  0.03330  0.53330  Biso   1.000  O
  O784     1.0000 0.78060  0.03960  0.53960  Biso   1.000  O
  C427     1.0000 0.74790  0.07061  0.57061  Biso   1.000  C
  C428     1.0000 0.77486  0.08488  0.58488  Biso   1.000  C
  H413     1.0000 0.79600  0.07845  0.57845  Biso   1.000  H
  N8       1.0000 0.77091  0.10855  0.60855  Biso   1.000  N
  C429     1.0000 0.73995  0.11796  0.61796  Biso   1.000  C
  H414     1.0000 0.73730  0.13410  0.63410  Biso   1.000  H
  C430     1.0000 0.71296  0.10371  0.60371  Biso   1.000  C
  H415     1.0000 0.69180  0.11010  0.61010  Biso   1.000  H
  C431     1.0000 0.71691  0.08005  0.58005  Biso   1.000  C
  H416     1.0000 0.69850  0.07030  0.57030  Biso   1.000  H
  C432     1.0000 0.75310  0.04470  0.54470  Biso   1.000  C
  Fe9      1.0000 0.31316  0.37079  0.37079  Biso   1.000  Fe
  O785     1.0000 0.22900  0.46670  0.46670  Biso   1.000  O
  O786     1.0000 0.28060  0.46040  0.46040  Biso   1.000  O
  C433     1.0000 0.24790  0.42939  0.42939  Biso   1.000  C
  C434     1.0000 0.27486  0.41512  0.41512  Biso   1.000  C
  H417     1.0000 0.29600  0.42155  0.42155  Biso   1.000  H
  N9       1.0000 0.27091  0.39145  0.39145  Biso   1.000  N
  C435     1.0000 0.23995  0.38204  0.38204  Biso   1.000  C
  H418     1.0000 0.23730  0.36590  0.36590  Biso   1.000  H
  C436     1.0000 0.21296  0.39629  0.39629  Biso   1.000  C
  H419     1.0000 0.19180  0.38990  0.38990  Biso   1.000  H
  C437     1.0000 0.21691  0.41995  0.41995  Biso   1.000  C
  H420     1.0000 0.19850  0.42970  0.42970  Biso   1.000  H
  C438     1.0000 0.25310  0.45530  0.45530  Biso   1.000  C
  Fe10     1.0000 0.31316  0.87079  0.87079  Biso   1.000  Fe
  O787     1.0000 0.22900  0.96670  0.96670  Biso   1.000  O
  O788     1.0000 0.28060  0.96040  0.96040  Biso   1.000  O
  C439     1.0000 0.24790  0.92939  0.92939  Biso   1.000  C
  C440     1.0000 0.27486  0.91512  0.91512  Biso   1.000  C
  H421     1.0000 0.29600  0.92155  0.92155  Biso   1.000  H
  N10      1.0000 0.27091  0.89145  0.89145  Biso   1.000  N
  C441     1.0000 0.23995  0.88204  0.88204  Biso   1.000  C
  H422     1.0000 0.23730  0.86590  0.86590  Biso   1.000  H
  C442     1.0000 0.21296  0.89629  0.89629  Biso   1.000  C
  H423     1.0000 0.19180  0.88990  0.88990  Biso   1.000  H
  C443     1.0000 0.21691  0.91996  0.91995  Biso   1.000  C
  H424     1.0000 0.19850  0.92970  0.92970  Biso   1.000  H
  C444     1.0000 0.25310  0.95530  0.95530  Biso   1.000  C
  Fe11     1.0000 0.81316  0.37079  0.87079  Biso   1.000  Fe
  O789     1.0000 0.72900  0.46670  0.96670  Biso   1.000  O
  O790     1.0000 0.78060  0.46040  0.96040  Biso   1.000  O
  C445     1.0000 0.74790  0.42939  0.92939  Biso   1.000  C
  C446     1.0000 0.77486  0.41512  0.91512  Biso   1.000  C
  H425     1.0000 0.79600  0.42155  0.92155  Biso   1.000  H
  N11      1.0000 0.77091  0.39145  0.89145  Biso   1.000  N
  C447     1.0000 0.73995  0.38204  0.88204  Biso   1.000  C
  H426     1.0000 0.73730  0.36590  0.86590  Biso   1.000  H
  C448     1.0000 0.71296  0.39629  0.89629  Biso   1.000  C
  H427     1.0000 0.69180  0.38990  0.88990  Biso   1.000  H
  C449     1.0000 0.71691  0.41995  0.91995  Biso   1.000  C
  H428     1.0000 0.69850  0.42970  0.92970  Biso   1.000  H
  C450     1.0000 0.75310  0.45530  0.95530  Biso   1.000  C
  Fe12     1.0000 0.81316  0.87079  0.37079  Biso   1.000  Fe
  O791     1.0000 0.72900  0.96670  0.46670  Biso   1.000  O
  O792     1.0000 0.78060  0.96040  0.46040  Biso   1.000  O
  C451     1.0000 0.74790  0.92939  0.42939  Biso   1.000  C
  C452     1.0000 0.77486  0.91512  0.41512  Biso   1.000  C
  H429     1.0000 0.79600  0.92155  0.42155  Biso   1.000  H
  N12      1.0000 0.77091  0.89145  0.39145  Biso   1.000  N
  C453     1.0000 0.73995  0.88204  0.38204  Biso   1.000  C
  H430     1.0000 0.73730  0.86590  0.36590  Biso   1.000  H
  C454     1.0000 0.71296  0.89629  0.39629  Biso   1.000  C
  H431     1.0000 0.69180  0.88990  0.38990  Biso   1.000  H
  C455     1.0000 0.71691  0.91996  0.41995  Biso   1.000  C
  H432     1.0000 0.69850  0.92970  0.42970  Biso   1.000  H
  C456     1.0000 0.75310  0.95530  0.45530  Biso   1.000  C
  Fe13     1.0000 0.68684  0.62921  0.37079  Biso   1.000  Fe
  O793     1.0000 0.77100  0.53330  0.46670  Biso   1.000  O
  O794     1.0000 0.71940  0.53960  0.46040  Biso   1.000  O
  C457     1.0000 0.75210  0.57061  0.42939  Biso   1.000  C
  C458     1.0000 0.72514  0.58488  0.41512  Biso   1.000  C
  H433     1.0000 0.70400  0.57845  0.42155  Biso   1.000  H
  N13      1.0000 0.72909  0.60855  0.39145  Biso   1.000  N
  C459     1.0000 0.76005  0.61796  0.38204  Biso   1.000  C
  H434     1.0000 0.76270  0.63410  0.36590  Biso   1.000  H
  C460     1.0000 0.78704  0.60371  0.39629  Biso   1.000  C
  H435     1.0000 0.80820  0.61010  0.38990  Biso   1.000  H
  C461     1.0000 0.78309  0.58005  0.41995  Biso   1.000  C
  H436     1.0000 0.80150  0.57030  0.42970  Biso   1.000  H
  C462     1.0000 0.74690  0.54470  0.45530  Biso   1.000  C
  Fe14     1.0000 0.68684  0.12921  0.87079  Biso   1.000  Fe
  O795     1.0000 0.77100  0.03330  0.96670  Biso   1.000  O
  O796     1.0000 0.71940  0.03960  0.96040  Biso   1.000  O
  C463     1.0000 0.75210  0.07061  0.92939  Biso   1.000  C
  C464     1.0000 0.72514  0.08488  0.91512  Biso   1.000  C
  H437     1.0000 0.70400  0.07845  0.92155  Biso   1.000  H
  N14      1.0000 0.72909  0.10855  0.89145  Biso   1.000  N
  C465     1.0000 0.76005  0.11796  0.88204  Biso   1.000  C
  H438     1.0000 0.76270  0.13410  0.86590  Biso   1.000  H
  C466     1.0000 0.78704  0.10371  0.89629  Biso   1.000  C
  H439     1.0000 0.80820  0.11010  0.88990  Biso   1.000  H
  C467     1.0000 0.78309  0.08005  0.91995  Biso   1.000  C
  H440     1.0000 0.80150  0.07030  0.92970  Biso   1.000  H
  C468     1.0000 0.74690  0.04470  0.95530  Biso   1.000  C
  Fe15     1.0000 0.18684  0.62921  0.87079  Biso   1.000  Fe
  O797     1.0000 0.27100  0.53330  0.96670  Biso   1.000  O
  O798     1.0000 0.21940  0.53960  0.96040  Biso   1.000  O
  C469     1.0000 0.25210  0.57061  0.92939  Biso   1.000  C
  C470     1.0000 0.22514  0.58488  0.91512  Biso   1.000  C
  H441     1.0000 0.20400  0.57845  0.92155  Biso   1.000  H
  N15      1.0000 0.22909  0.60855  0.89145  Biso   1.000  N
  C471     1.0000 0.26005  0.61796  0.88204  Biso   1.000  C
  H442     1.0000 0.26270  0.63410  0.86590  Biso   1.000  H
  C472     1.0000 0.28704  0.60371  0.89629  Biso   1.000  C
  H443     1.0000 0.30820  0.61010  0.88990  Biso   1.000  H
  C473     1.0000 0.28309  0.58005  0.91995  Biso   1.000  C
  H444     1.0000 0.30150  0.57030  0.92970  Biso   1.000  H
  C474     1.0000 0.24690  0.54470  0.95530  Biso   1.000  C
  Fe16     1.0000 0.18684  0.12921  0.37079  Biso   1.000  Fe
  O799     1.0000 0.27100  0.03330  0.46670  Biso   1.000  O
  O800     1.0000 0.21940  0.03960  0.46040  Biso   1.000  O
  C475     1.0000 0.25210  0.07061  0.42939  Biso   1.000  C
  C476     1.0000 0.22514  0.08488  0.41512  Biso   1.000  C
  H445     1.0000 0.20400  0.07845  0.42155  Biso   1.000  H
  N16      1.0000 0.22909  0.10855  0.39145  Biso   1.000  N
  C477     1.0000 0.26005  0.11796  0.38204  Biso   1.000  C
  H446     1.0000 0.26270  0.13410  0.36590  Biso   1.000  H
  C478     1.0000 0.28704  0.10371  0.39629  Biso   1.000  C
  H447     1.0000 0.30820  0.11010  0.38990  Biso   1.000  H
  C479     1.0000 0.28309  0.08005  0.41995  Biso   1.000  C
  H448     1.0000 0.30150  0.07030  0.42970  Biso   1.000  H
  C480     1.0000 0.24690  0.04470  0.45530  Biso   1.000  C
  Fe17     1.0000 0.62921  0.68684  0.37079  Biso   1.000  Fe
  O801     1.0000 0.53330  0.77100  0.46670  Biso   1.000  O
  O802     1.0000 0.53960  0.71940  0.46040  Biso   1.000  O
  C481     1.0000 0.57061  0.75210  0.42939  Biso   1.000  C
  C482     1.0000 0.58488  0.72514  0.41512  Biso   1.000  C
  H449     1.0000 0.57845  0.70400  0.42155  Biso   1.000  H
  N17      1.0000 0.60855  0.72909  0.39145  Biso   1.000  N
  C483     1.0000 0.61796  0.76005  0.38204  Biso   1.000  C
  H450     1.0000 0.63410  0.76270  0.36590  Biso   1.000  H
  C484     1.0000 0.60371  0.78704  0.39629  Biso   1.000  C
  H451     1.0000 0.61010  0.80820  0.38990  Biso   1.000  H
  C485     1.0000 0.58005  0.78309  0.41995  Biso   1.000  C
  H452     1.0000 0.57030  0.80150  0.42970  Biso   1.000  H
  C486     1.0000 0.54470  0.74690  0.45530  Biso   1.000  C
  Fe18     1.0000 0.62921  0.18684  0.87079  Biso   1.000  Fe
  O803     1.0000 0.53330  0.27100  0.96670  Biso   1.000  O
  O804     1.0000 0.53960  0.21940  0.96040  Biso   1.000  O
  C487     1.0000 0.57061  0.25210  0.92939  Biso   1.000  C
  C488     1.0000 0.58488  0.22514  0.91512  Biso   1.000  C
  H453     1.0000 0.57845  0.20400  0.92155  Biso   1.000  H
  N18      1.0000 0.60855  0.22909  0.89145  Biso   1.000  N
  C489     1.0000 0.61796  0.26005  0.88204  Biso   1.000  C
  H454     1.0000 0.63410  0.26270  0.86590  Biso   1.000  H
  C490     1.0000 0.60371  0.28704  0.89629  Biso   1.000  C
  H455     1.0000 0.61010  0.30820  0.88990  Biso   1.000  H
  C491     1.0000 0.58005  0.28309  0.91996  Biso   1.000  C
  H456     1.0000 0.57030  0.30150  0.92970  Biso   1.000  H
  C492     1.0000 0.54470  0.24690  0.95530  Biso   1.000  C
  Fe19     1.0000 0.12921  0.68684  0.87079  Biso   1.000  Fe
  O805     1.0000 0.03330  0.77100  0.96670  Biso   1.000  O
  O806     1.0000 0.03960  0.71940  0.96040  Biso   1.000  O
  C493     1.0000 0.07061  0.75210  0.92939  Biso   1.000  C
  C494     1.0000 0.08488  0.72514  0.91512  Biso   1.000  C
  H457     1.0000 0.07845  0.70400  0.92155  Biso   1.000  H
  N19      1.0000 0.10855  0.72909  0.89145  Biso   1.000  N
  C495     1.0000 0.11796  0.76005  0.88204  Biso   1.000  C
  H458     1.0000 0.13410  0.76270  0.86590  Biso   1.000  H
  C496     1.0000 0.10371  0.78704  0.89629  Biso   1.000  C
  H459     1.0000 0.11010  0.80820  0.88990  Biso   1.000  H
  C497     1.0000 0.08005  0.78309  0.91996  Biso   1.000  C
  H460     1.0000 0.07030  0.80150  0.92970  Biso   1.000  H
  C498     1.0000 0.04470  0.74690  0.95530  Biso   1.000  C
  Fe20     1.0000 0.12921  0.18684  0.37079  Biso   1.000  Fe
  O807     1.0000 0.03330  0.27100  0.46670  Biso   1.000  O
  O808     1.0000 0.03960  0.21940  0.46040  Biso   1.000  O
  C499     1.0000 0.07061  0.25210  0.42939  Biso   1.000  C
  C500     1.0000 0.08488  0.22514  0.41512  Biso   1.000  C
  H461     1.0000 0.07845  0.20400  0.42155  Biso   1.000  H
  N20      1.0000 0.10855  0.22909  0.39145  Biso   1.000  N
  C501     1.0000 0.11796  0.26005  0.38204  Biso   1.000  C
  H462     1.0000 0.13410  0.26270  0.36590  Biso   1.000  H
  C502     1.0000 0.10371  0.28704  0.39629  Biso   1.000  C
  H463     1.0000 0.11010  0.30820  0.38990  Biso   1.000  H
  C503     1.0000 0.08005  0.28309  0.41995  Biso   1.000  C
  H464     1.0000 0.07030  0.30150  0.42970  Biso   1.000  H
  C504     1.0000 0.04470  0.24690  0.45530  Biso   1.000  C
  Fe21     1.0000 0.62921  0.31316  0.62921  Biso   1.000  Fe
  O809     1.0000 0.53330  0.22900  0.53330  Biso   1.000  O
  O810     1.0000 0.53960  0.28060  0.53960  Biso   1.000  O
  C505     1.0000 0.57061  0.24790  0.57061  Biso   1.000  C
  C506     1.0000 0.58488  0.27486  0.58488  Biso   1.000  C
  H465     1.0000 0.57845  0.29600  0.57845  Biso   1.000  H
  N21      1.0000 0.60855  0.27091  0.60855  Biso   1.000  N
  C507     1.0000 0.61796  0.23995  0.61796  Biso   1.000  C
  H466     1.0000 0.63410  0.23730  0.63410  Biso   1.000  H
  C508     1.0000 0.60371  0.21296  0.60371  Biso   1.000  C
  H467     1.0000 0.61010  0.19180  0.61010  Biso   1.000  H
  C509     1.0000 0.58005  0.21691  0.58005  Biso   1.000  C
  H468     1.0000 0.57030  0.19850  0.57030  Biso   1.000  H
  C510     1.0000 0.54470  0.25310  0.54470  Biso   1.000  C
  Fe22     1.0000 0.62921  0.81316  0.12921  Biso   1.000  Fe
  O811     1.0000 0.53330  0.72900  0.03330  Biso   1.000  O
  O812     1.0000 0.53960  0.78060  0.03960  Biso   1.000  O
  C511     1.0000 0.57061  0.74790  0.07061  Biso   1.000  C
  C512     1.0000 0.58488  0.77486  0.08488  Biso   1.000  C
  H469     1.0000 0.57845  0.79600  0.07845  Biso   1.000  H
  N22      1.0000 0.60855  0.77091  0.10855  Biso   1.000  N
  C513     1.0000 0.61796  0.73995  0.11796  Biso   1.000  C
  H470     1.0000 0.63410  0.73730  0.13410  Biso   1.000  H
  C514     1.0000 0.60371  0.71296  0.10371  Biso   1.000  C
  H471     1.0000 0.61010  0.69180  0.11010  Biso   1.000  H
  C515     1.0000 0.58005  0.71691  0.08005  Biso   1.000  C
  H472     1.0000 0.57030  0.69850  0.07030  Biso   1.000  H
  C516     1.0000 0.54470  0.75310  0.04470  Biso   1.000  C
  Fe23     1.0000 0.12921  0.31316  0.12921  Biso   1.000  Fe
  O813     1.0000 0.03330  0.22900  0.03330  Biso   1.000  O
  O814     1.0000 0.03960  0.28060  0.03960  Biso   1.000  O
  C517     1.0000 0.07061  0.24790  0.07061  Biso   1.000  C
  C518     1.0000 0.08488  0.27486  0.08488  Biso   1.000  C
  H473     1.0000 0.07845  0.29600  0.07845  Biso   1.000  H
  N23      1.0000 0.10855  0.27091  0.10855  Biso   1.000  N
  C519     1.0000 0.11796  0.23995  0.11796  Biso   1.000  C
  H474     1.0000 0.13410  0.23730  0.13410  Biso   1.000  H
  C520     1.0000 0.10371  0.21296  0.10371  Biso   1.000  C
  H475     1.0000 0.11010  0.19180  0.11010  Biso   1.000  H
  C521     1.0000 0.08005  0.21691  0.08005  Biso   1.000  C
  H476     1.0000 0.07030  0.19850  0.07030  Biso   1.000  H
  C522     1.0000 0.04470  0.25310  0.04470  Biso   1.000  C
  Fe24     1.0000 0.12921  0.81316  0.62921  Biso   1.000  Fe
  O815     1.0000 0.03330  0.72900  0.53330  Biso   1.000  O
  O816     1.0000 0.03960  0.78060  0.53960  Biso   1.000  O
  C523     1.0000 0.07061  0.74790  0.57061  Biso   1.000  C
  C524     1.0000 0.08488  0.77486  0.58488  Biso   1.000  C
  H477     1.0000 0.07845  0.79600  0.57845  Biso   1.000  H
  N24      1.0000 0.10855  0.77091  0.60855  Biso   1.000  N
  C525     1.0000 0.11796  0.73995  0.61796  Biso   1.000  C
  H478     1.0000 0.13410  0.73730  0.63410  Biso   1.000  H
  C526     1.0000 0.10371  0.71296  0.60371  Biso   1.000  C
  H479     1.0000 0.11010  0.69180  0.61010  Biso   1.000  H
  C527     1.0000 0.08005  0.71691  0.58005  Biso   1.000  C
  H480     1.0000 0.07030  0.69850  0.57030  Biso   1.000  H
  C528     1.0000 0.04470  0.75310  0.54470  Biso   1.000  C
  Fe25     1.0000 0.37079  0.31316  0.37079  Biso   1.000  Fe
  O817     1.0000 0.46670  0.22900  0.46670  Biso   1.000  O
  O818     1.0000 0.46040  0.28060  0.46040  Biso   1.000  O
  C529     1.0000 0.42939  0.24790  0.42939  Biso   1.000  C
  C530     1.0000 0.41512  0.27486  0.41512  Biso   1.000  C
  H481     1.0000 0.42155  0.29600  0.42155  Biso   1.000  H
  N25      1.0000 0.39145  0.27091  0.39145  Biso   1.000  N
  C531     1.0000 0.38204  0.23995  0.38204  Biso   1.000  C
  H482     1.0000 0.36590  0.23730  0.36590  Biso   1.000  H
  C532     1.0000 0.39629  0.21296  0.39629  Biso   1.000  C
  H483     1.0000 0.38990  0.19180  0.38990  Biso   1.000  H
  C533     1.0000 0.41995  0.21691  0.41995  Biso   1.000  C
  H484     1.0000 0.42970  0.19850  0.42970  Biso   1.000  H
  C534     1.0000 0.45530  0.25310  0.45530  Biso   1.000  C
  Fe26     1.0000 0.37079  0.81316  0.87079  Biso   1.000  Fe
  O819     1.0000 0.46670  0.72900  0.96670  Biso   1.000  O
  O820     1.0000 0.46040  0.78060  0.96040  Biso   1.000  O
  C535     1.0000 0.42939  0.74790  0.92939  Biso   1.000  C
  C536     1.0000 0.41512  0.77486  0.91512  Biso   1.000  C
  H485     1.0000 0.42155  0.79600  0.92155  Biso   1.000  H
  N26      1.0000 0.39145  0.77091  0.89145  Biso   1.000  N
  C537     1.0000 0.38204  0.73995  0.88204  Biso   1.000  C
  H486     1.0000 0.36590  0.73730  0.86590  Biso   1.000  H
  C538     1.0000 0.39629  0.71296  0.89629  Biso   1.000  C
  H487     1.0000 0.38990  0.69180  0.88990  Biso   1.000  H
  C539     1.0000 0.41995  0.71691  0.91996  Biso   1.000  C
  H488     1.0000 0.42970  0.69850  0.92970  Biso   1.000  H
  C540     1.0000 0.45530  0.75310  0.95530  Biso   1.000  C
  Fe27     1.0000 0.87079  0.31316  0.87079  Biso   1.000  Fe
  O821     1.0000 0.96670  0.22900  0.96670  Biso   1.000  O
  O822     1.0000 0.96040  0.28060  0.96040  Biso   1.000  O
  C541     1.0000 0.92939  0.24790  0.92939  Biso   1.000  C
  C542     1.0000 0.91512  0.27486  0.91512  Biso   1.000  C
  H489     1.0000 0.92155  0.29600  0.92155  Biso   1.000  H
  N27      1.0000 0.89145  0.27091  0.89145  Biso   1.000  N
  C543     1.0000 0.88204  0.23995  0.88204  Biso   1.000  C
  H490     1.0000 0.86590  0.23730  0.86590  Biso   1.000  H
  C544     1.0000 0.89629  0.21296  0.89629  Biso   1.000  C
  H491     1.0000 0.88990  0.19180  0.88990  Biso   1.000  H
  C545     1.0000 0.91995  0.21691  0.91996  Biso   1.000  C
  H492     1.0000 0.92970  0.19850  0.92970  Biso   1.000  H
  C546     1.0000 0.95530  0.25310  0.95530  Biso   1.000  C
  Fe28     1.0000 0.87079  0.81316  0.37079  Biso   1.000  Fe
  O823     1.0000 0.96670  0.72900  0.46670  Biso   1.000  O
  O824     1.0000 0.96040  0.78060  0.46040  Biso   1.000  O
  C547     1.0000 0.92939  0.74790  0.42939  Biso   1.000  C
  C548     1.0000 0.91512  0.77486  0.41512  Biso   1.000  C
  H493     1.0000 0.92155  0.79600  0.42155  Biso   1.000  H
  N28      1.0000 0.89145  0.77091  0.39145  Biso   1.000  N
  C549     1.0000 0.88204  0.73995  0.38204  Biso   1.000  C
  H494     1.0000 0.86590  0.73730  0.36590  Biso   1.000  H
  C550     1.0000 0.89629  0.71296  0.39629  Biso   1.000  C
  H495     1.0000 0.88990  0.69180  0.38990  Biso   1.000  H
  C551     1.0000 0.91995  0.71691  0.41995  Biso   1.000  C
  H496     1.0000 0.92970  0.69850  0.42970  Biso   1.000  H
  C552     1.0000 0.95530  0.75310  0.45530  Biso   1.000  C
  Fe29     1.0000 0.37079  0.68684  0.62921  Biso   1.000  Fe
  O825     1.0000 0.46670  0.77100  0.53330  Biso   1.000  O
  O826     1.0000 0.46040  0.71940  0.53960  Biso   1.000  O
  C553     1.0000 0.42939  0.75210  0.57061  Biso   1.000  C
  C554     1.0000 0.41512  0.72514  0.58488  Biso   1.000  C
  H497     1.0000 0.42155  0.70400  0.57845  Biso   1.000  H
  N29      1.0000 0.39145  0.72909  0.60855  Biso   1.000  N
  C555     1.0000 0.38204  0.76005  0.61796  Biso   1.000  C
  H498     1.0000 0.36590  0.76270  0.63410  Biso   1.000  H
  C556     1.0000 0.39629  0.78704  0.60371  Biso   1.000  C
  H499     1.0000 0.38990  0.80820  0.61010  Biso   1.000  H
  C557     1.0000 0.41995  0.78309  0.58005  Biso   1.000  C
  H500     1.0000 0.42970  0.80150  0.57030  Biso   1.000  H
  C558     1.0000 0.45530  0.74690  0.54470  Biso   1.000  C
  Fe30     1.0000 0.37079  0.18684  0.12921  Biso   1.000  Fe
  O827     1.0000 0.46670  0.27100  0.03330  Biso   1.000  O
  O828     1.0000 0.46040  0.21940  0.03960  Biso   1.000  O
  C559     1.0000 0.42939  0.25210  0.07061  Biso   1.000  C
  C560     1.0000 0.41512  0.22514  0.08488  Biso   1.000  C
  H501     1.0000 0.42155  0.20400  0.07845  Biso   1.000  H
  N30      1.0000 0.39145  0.22909  0.10855  Biso   1.000  N
  C561     1.0000 0.38204  0.26005  0.11796  Biso   1.000  C
  H502     1.0000 0.36590  0.26270  0.13410  Biso   1.000  H
  C562     1.0000 0.39629  0.28704  0.10371  Biso   1.000  C
  H503     1.0000 0.38990  0.30820  0.11010  Biso   1.000  H
  C563     1.0000 0.41995  0.28309  0.08005  Biso   1.000  C
  H504     1.0000 0.42970  0.30150  0.07030  Biso   1.000  H
  C564     1.0000 0.45530  0.24690  0.04470  Biso   1.000  C
  Fe31     1.0000 0.87079  0.68684  0.12921  Biso   1.000  Fe
  O829     1.0000 0.96670  0.77100  0.03330  Biso   1.000  O
  O830     1.0000 0.96040  0.71940  0.03960  Biso   1.000  O
  C565     1.0000 0.92939  0.75210  0.07061  Biso   1.000  C
  C566     1.0000 0.91512  0.72514  0.08488  Biso   1.000  C
  H505     1.0000 0.92155  0.70400  0.07845  Biso   1.000  H
  N31      1.0000 0.89145  0.72909  0.10855  Biso   1.000  N
  C567     1.0000 0.88204  0.76005  0.11796  Biso   1.000  C
  H506     1.0000 0.86590  0.76270  0.13410  Biso   1.000  H
  C568     1.0000 0.89629  0.78704  0.10371  Biso   1.000  C
  H507     1.0000 0.88990  0.80820  0.11010  Biso   1.000  H
  C569     1.0000 0.91995  0.78309  0.08005  Biso   1.000  C
  H508     1.0000 0.92970  0.80150  0.07030  Biso   1.000  H
  C570     1.0000 0.95530  0.74690  0.04470  Biso   1.000  C
  Fe32     1.0000 0.87079  0.18684  0.62921  Biso   1.000  Fe
  O831     1.0000 0.96670  0.27100  0.53330  Biso   1.000  O
  O832     1.0000 0.96040  0.21940  0.53960  Biso   1.000  O
  C571     1.0000 0.92939  0.25210  0.57061  Biso   1.000  C
  C572     1.0000 0.91512  0.22514  0.58488  Biso   1.000  C
  H509     1.0000 0.92155  0.20400  0.57845  Biso   1.000  H
  N32      1.0000 0.89145  0.22909  0.60855  Biso   1.000  N
  C573     1.0000 0.88204  0.26005  0.61796  Biso   1.000  C
  H510     1.0000 0.86590  0.26270  0.63410  Biso   1.000  H
  C574     1.0000 0.89629  0.28704  0.60371  Biso   1.000  C
  H511     1.0000 0.88990  0.30820  0.61010  Biso   1.000  H
  C575     1.0000 0.91995  0.28309  0.58005  Biso   1.000  C
  H512     1.0000 0.92970  0.30150  0.57030  Biso   1.000  H
  C576     1.0000 0.95530  0.24690  0.54470  Biso   1.000  C
  Fe33     1.0000 0.37079  0.62921  0.68684  Biso   1.000  Fe
  O833     1.0000 0.46670  0.53330  0.77100  Biso   1.000  O
  O834     1.0000 0.46040  0.53960  0.71940  Biso   1.000  O
  C577     1.0000 0.42939  0.57061  0.75210  Biso   1.000  C
  C578     1.0000 0.41512  0.58488  0.72514  Biso   1.000  C
  H513     1.0000 0.42155  0.57845  0.70400  Biso   1.000  H
  N33      1.0000 0.39145  0.60855  0.72909  Biso   1.000  N
  C579     1.0000 0.38204  0.61796  0.76005  Biso   1.000  C
  H514     1.0000 0.36590  0.63410  0.76270  Biso   1.000  H
  C580     1.0000 0.39629  0.60371  0.78704  Biso   1.000  C
  H515     1.0000 0.38990  0.61010  0.80820  Biso   1.000  H
  C581     1.0000 0.41995  0.58005  0.78309  Biso   1.000  C
  H516     1.0000 0.42970  0.57030  0.80150  Biso   1.000  H
  C582     1.0000 0.45530  0.54470  0.74690  Biso   1.000  C
  Fe34     1.0000 0.37079  0.12921  0.18684  Biso   1.000  Fe
  O835     1.0000 0.46670  0.03330  0.27100  Biso   1.000  O
  O836     1.0000 0.46040  0.03960  0.21940  Biso   1.000  O
  C583     1.0000 0.42939  0.07061  0.25210  Biso   1.000  C
  C584     1.0000 0.41512  0.08488  0.22514  Biso   1.000  C
  H517     1.0000 0.42155  0.07845  0.20400  Biso   1.000  H
  N34      1.0000 0.39145  0.10855  0.22909  Biso   1.000  N
  C585     1.0000 0.38204  0.11796  0.26005  Biso   1.000  C
  H518     1.0000 0.36590  0.13410  0.26270  Biso   1.000  H
  C586     1.0000 0.39629  0.10371  0.28704  Biso   1.000  C
  H519     1.0000 0.38990  0.11010  0.30820  Biso   1.000  H
  C587     1.0000 0.41995  0.08005  0.28309  Biso   1.000  C
  H520     1.0000 0.42970  0.07030  0.30150  Biso   1.000  H
  C588     1.0000 0.45530  0.04470  0.24690  Biso   1.000  C
  Fe35     1.0000 0.87079  0.62921  0.18684  Biso   1.000  Fe
  O837     1.0000 0.96670  0.53330  0.27100  Biso   1.000  O
  O838     1.0000 0.96040  0.53960  0.21940  Biso   1.000  O
  C589     1.0000 0.92939  0.57061  0.25210  Biso   1.000  C
  C590     1.0000 0.91512  0.58488  0.22514  Biso   1.000  C
  H521     1.0000 0.92155  0.57845  0.20400  Biso   1.000  H
  N35      1.0000 0.89145  0.60855  0.22909  Biso   1.000  N
  C591     1.0000 0.88204  0.61796  0.26005  Biso   1.000  C
  H522     1.0000 0.86590  0.63410  0.26270  Biso   1.000  H
  C592     1.0000 0.89629  0.60371  0.28704  Biso   1.000  C
  H523     1.0000 0.88990  0.61010  0.30820  Biso   1.000  H
  C593     1.0000 0.91996  0.58005  0.28309  Biso   1.000  C
  H524     1.0000 0.92970  0.57030  0.30150  Biso   1.000  H
  C594     1.0000 0.95530  0.54470  0.24690  Biso   1.000  C
  Fe36     1.0000 0.87079  0.12921  0.68684  Biso   1.000  Fe
  O839     1.0000 0.96670  0.03330  0.77100  Biso   1.000  O
  O840     1.0000 0.96040  0.03960  0.71940  Biso   1.000  O
  C595     1.0000 0.92939  0.07061  0.75210  Biso   1.000  C
  C596     1.0000 0.91512  0.08488  0.72514  Biso   1.000  C
  H525     1.0000 0.92155  0.07845  0.70400  Biso   1.000  H
  N36      1.0000 0.89145  0.10855  0.72909  Biso   1.000  N
  C597     1.0000 0.88204  0.11796  0.76005  Biso   1.000  C
  H526     1.0000 0.86590  0.13410  0.76270  Biso   1.000  H
  C598     1.0000 0.89629  0.10371  0.78704  Biso   1.000  C
  H527     1.0000 0.88990  0.11010  0.80820  Biso   1.000  H
  C599     1.0000 0.91996  0.08005  0.78309  Biso   1.000  C
  H528     1.0000 0.92970  0.07030  0.80150  Biso   1.000  H
  C600     1.0000 0.95530  0.04470  0.74690  Biso   1.000  C
  Fe37     1.0000 0.62921  0.62921  0.31316  Biso   1.000  Fe
  O841     1.0000 0.53330  0.53330  0.22900  Biso   1.000  O
  O842     1.0000 0.53960  0.53960  0.28060  Biso   1.000  O
  C601     1.0000 0.57061  0.57061  0.24790  Biso   1.000  C
  C602     1.0000 0.58488  0.58488  0.27486  Biso   1.000  C
  H529     1.0000 0.57845  0.57845  0.29600  Biso   1.000  H
  N37      1.0000 0.60855  0.60855  0.27091  Biso   1.000  N
  C603     1.0000 0.61796  0.61796  0.23995  Biso   1.000  C
  H530     1.0000 0.63410  0.63410  0.23730  Biso   1.000  H
  C604     1.0000 0.60371  0.60371  0.21296  Biso   1.000  C
  H531     1.0000 0.61010  0.61010  0.19180  Biso   1.000  H
  C605     1.0000 0.58005  0.58005  0.21691  Biso   1.000  C
  H532     1.0000 0.57030  0.57030  0.19850  Biso   1.000  H
  C606     1.0000 0.54470  0.54470  0.25310  Biso   1.000  C
  Fe38     1.0000 0.62921  0.12921  0.81316  Biso   1.000  Fe
  O843     1.0000 0.53330  0.03330  0.72900  Biso   1.000  O
  O844     1.0000 0.53960  0.03960  0.78060  Biso   1.000  O
  C607     1.0000 0.57061  0.07061  0.74790  Biso   1.000  C
  C608     1.0000 0.58488  0.08488  0.77486  Biso   1.000  C
  H533     1.0000 0.57845  0.07845  0.79600  Biso   1.000  H
  N38      1.0000 0.60855  0.10855  0.77091  Biso   1.000  N
  C609     1.0000 0.61796  0.11796  0.73995  Biso   1.000  C
  H534     1.0000 0.63410  0.13410  0.73730  Biso   1.000  H
  C610     1.0000 0.60371  0.10371  0.71296  Biso   1.000  C
  H535     1.0000 0.61010  0.11010  0.69180  Biso   1.000  H
  C611     1.0000 0.58005  0.08005  0.71691  Biso   1.000  C
  H536     1.0000 0.57030  0.07030  0.69850  Biso   1.000  H
  C612     1.0000 0.54470  0.04470  0.75310  Biso   1.000  C
  Fe39     1.0000 0.12921  0.62921  0.81316  Biso   1.000  Fe
  O845     1.0000 0.03330  0.53330  0.72900  Biso   1.000  O
  O846     1.0000 0.03960  0.53960  0.78060  Biso   1.000  O
  C613     1.0000 0.07061  0.57061  0.74790  Biso   1.000  C
  C614     1.0000 0.08488  0.58488  0.77486  Biso   1.000  C
  H537     1.0000 0.07845  0.57845  0.79600  Biso   1.000  H
  N39      1.0000 0.10855  0.60855  0.77091  Biso   1.000  N
  C615     1.0000 0.11796  0.61796  0.73995  Biso   1.000  C
  H538     1.0000 0.13410  0.63410  0.73730  Biso   1.000  H
  C616     1.0000 0.10371  0.60371  0.71296  Biso   1.000  C
  H539     1.0000 0.11010  0.61010  0.69180  Biso   1.000  H
  C617     1.0000 0.08005  0.58005  0.71691  Biso   1.000  C
  H540     1.0000 0.07030  0.57030  0.69850  Biso   1.000  H
  C618     1.0000 0.04470  0.54470  0.75310  Biso   1.000  C
  Fe40     1.0000 0.12921  0.12921  0.31316  Biso   1.000  Fe
  O847     1.0000 0.03330  0.03330  0.22900  Biso   1.000  O
  O848     1.0000 0.03960  0.03960  0.28060  Biso   1.000  O
  C619     1.0000 0.07061  0.07061  0.24790  Biso   1.000  C
  C620     1.0000 0.08488  0.08488  0.27486  Biso   1.000  C
  H541     1.0000 0.07845  0.07845  0.29600  Biso   1.000  H
  N40      1.0000 0.10855  0.10855  0.27091  Biso   1.000  N
  C621     1.0000 0.11796  0.11796  0.23995  Biso   1.000  C
  H542     1.0000 0.13410  0.13410  0.23730  Biso   1.000  H
  C622     1.0000 0.10371  0.10371  0.21296  Biso   1.000  C
  H543     1.0000 0.11010  0.11010  0.19180  Biso   1.000  H
  C623     1.0000 0.08005  0.08005  0.21691  Biso   1.000  C
  H544     1.0000 0.07030  0.07030  0.19850  Biso   1.000  H
  C624     1.0000 0.04470  0.04470  0.25310  Biso   1.000  C
  Fe41     1.0000 0.37079  0.37079  0.31316  Biso   1.000  Fe
  O849     1.0000 0.46670  0.46670  0.22900  Biso   1.000  O
  O850     1.0000 0.46040  0.46040  0.28060  Biso   1.000  O
  C625     1.0000 0.42939  0.42939  0.24790  Biso   1.000  C
  C626     1.0000 0.41512  0.41512  0.27486  Biso   1.000  C
  H545     1.0000 0.42155  0.42155  0.29600  Biso   1.000  H
  N41      1.0000 0.39145  0.39145  0.27091  Biso   1.000  N
  C627     1.0000 0.38204  0.38204  0.23995  Biso   1.000  C
  H546     1.0000 0.36590  0.36590  0.23730  Biso   1.000  H
  C628     1.0000 0.39629  0.39629  0.21296  Biso   1.000  C
  H547     1.0000 0.38990  0.38990  0.19180  Biso   1.000  H
  C629     1.0000 0.41995  0.41995  0.21691  Biso   1.000  C
  H548     1.0000 0.42970  0.42970  0.19850  Biso   1.000  H
  C630     1.0000 0.45530  0.45530  0.25310  Biso   1.000  C
  Fe42     1.0000 0.37079  0.87079  0.81316  Biso   1.000  Fe
  O851     1.0000 0.46670  0.96670  0.72900  Biso   1.000  O
  O852     1.0000 0.46040  0.96040  0.78060  Biso   1.000  O
  C631     1.0000 0.42939  0.92939  0.74790  Biso   1.000  C
  C632     1.0000 0.41512  0.91512  0.77486  Biso   1.000  C
  H549     1.0000 0.42155  0.92155  0.79600  Biso   1.000  H
  N42      1.0000 0.39145  0.89145  0.77091  Biso   1.000  N
  C633     1.0000 0.38204  0.88204  0.73995  Biso   1.000  C
  H550     1.0000 0.36590  0.86590  0.73730  Biso   1.000  H
  C634     1.0000 0.39629  0.89629  0.71296  Biso   1.000  C
  H551     1.0000 0.38990  0.88990  0.69180  Biso   1.000  H
  C635     1.0000 0.41995  0.91995  0.71691  Biso   1.000  C
  H552     1.0000 0.42970  0.92970  0.69850  Biso   1.000  H
  C636     1.0000 0.45530  0.95530  0.75310  Biso   1.000  C
  Fe43     1.0000 0.87079  0.37079  0.81316  Biso   1.000  Fe
  O853     1.0000 0.96670  0.46670  0.72900  Biso   1.000  O
  O854     1.0000 0.96040  0.46040  0.78060  Biso   1.000  O
  C637     1.0000 0.92939  0.42939  0.74790  Biso   1.000  C
  C638     1.0000 0.91512  0.41512  0.77486  Biso   1.000  C
  H553     1.0000 0.92155  0.42155  0.79600  Biso   1.000  H
  N43      1.0000 0.89145  0.39145  0.77091  Biso   1.000  N
  C639     1.0000 0.88204  0.38204  0.73995  Biso   1.000  C
  H554     1.0000 0.86590  0.36590  0.73730  Biso   1.000  H
  C640     1.0000 0.89629  0.39629  0.71296  Biso   1.000  C
  H555     1.0000 0.88990  0.38990  0.69180  Biso   1.000  H
  C641     1.0000 0.91996  0.41995  0.71691  Biso   1.000  C
  H556     1.0000 0.92970  0.42970  0.69850  Biso   1.000  H
  C642     1.0000 0.95530  0.45530  0.75310  Biso   1.000  C
  Fe44     1.0000 0.87079  0.87079  0.31316  Biso   1.000  Fe
  O855     1.0000 0.96670  0.96670  0.22900  Biso   1.000  O
  O856     1.0000 0.96040  0.96040  0.28060  Biso   1.000  O
  C643     1.0000 0.92939  0.92939  0.24790  Biso   1.000  C
  C644     1.0000 0.91512  0.91512  0.27486  Biso   1.000  C
  H557     1.0000 0.92155  0.92155  0.29600  Biso   1.000  H
  N44      1.0000 0.89145  0.89145  0.27091  Biso   1.000  N
  C645     1.0000 0.88204  0.88204  0.23995  Biso   1.000  C
  H558     1.0000 0.86590  0.86590  0.23730  Biso   1.000  H
  C646     1.0000 0.89629  0.89629  0.21296  Biso   1.000  C
  H559     1.0000 0.88990  0.88990  0.19180  Biso   1.000  H
  C647     1.0000 0.91996  0.91995  0.21691  Biso   1.000  C
  H560     1.0000 0.92970  0.92970  0.19850  Biso   1.000  H
  C648     1.0000 0.95530  0.95530  0.25310  Biso   1.000  C
  Fe45     1.0000 0.62921  0.37079  0.68684  Biso   1.000  Fe
  O857     1.0000 0.53330  0.46670  0.77100  Biso   1.000  O
  O858     1.0000 0.53960  0.46040  0.71940  Biso   1.000  O
  C649     1.0000 0.57061  0.42939  0.75210  Biso   1.000  C
  C650     1.0000 0.58488  0.41512  0.72514  Biso   1.000  C
  H561     1.0000 0.57845  0.42155  0.70400  Biso   1.000  H
  N45      1.0000 0.60855  0.39145  0.72909  Biso   1.000  N
  C651     1.0000 0.61796  0.38204  0.76005  Biso   1.000  C
  H562     1.0000 0.63410  0.36590  0.76270  Biso   1.000  H
  C652     1.0000 0.60371  0.39629  0.78704  Biso   1.000  C
  H563     1.0000 0.61010  0.38990  0.80820  Biso   1.000  H
  C653     1.0000 0.58005  0.41995  0.78309  Biso   1.000  C
  H564     1.0000 0.57030  0.42970  0.80150  Biso   1.000  H
  C654     1.0000 0.54470  0.45530  0.74690  Biso   1.000  C
  Fe46     1.0000 0.62921  0.87079  0.18684  Biso   1.000  Fe
  O859     1.0000 0.53330  0.96670  0.27100  Biso   1.000  O
  O860     1.0000 0.53960  0.96040  0.21940  Biso   1.000  O
  C655     1.0000 0.57061  0.92939  0.25210  Biso   1.000  C
  C656     1.0000 0.58488  0.91512  0.22514  Biso   1.000  C
  H565     1.0000 0.57845  0.92155  0.20400  Biso   1.000  H
  N46      1.0000 0.60855  0.89145  0.22909  Biso   1.000  N
  C657     1.0000 0.61796  0.88204  0.26005  Biso   1.000  C
  H566     1.0000 0.63410  0.86590  0.26270  Biso   1.000  H
  C658     1.0000 0.60371  0.89629  0.28704  Biso   1.000  C
  H567     1.0000 0.61010  0.88990  0.30820  Biso   1.000  H
  C659     1.0000 0.58005  0.91995  0.28309  Biso   1.000  C
  H568     1.0000 0.57030  0.92970  0.30150  Biso   1.000  H
  C660     1.0000 0.54470  0.95530  0.24690  Biso   1.000  C
  Fe47     1.0000 0.12921  0.37079  0.18684  Biso   1.000  Fe
  O861     1.0000 0.03330  0.46670  0.27100  Biso   1.000  O
  O862     1.0000 0.03960  0.46040  0.21940  Biso   1.000  O
  C661     1.0000 0.07061  0.42939  0.25210  Biso   1.000  C
  C662     1.0000 0.08488  0.41512  0.22514  Biso   1.000  C
  H569     1.0000 0.07845  0.42155  0.20400  Biso   1.000  H
  N47      1.0000 0.10855  0.39145  0.22909  Biso   1.000  N
  C663     1.0000 0.11796  0.38204  0.26005  Biso   1.000  C
  H570     1.0000 0.13410  0.36590  0.26270  Biso   1.000  H
  C664     1.0000 0.10371  0.39629  0.28704  Biso   1.000  C
  H571     1.0000 0.11010  0.38990  0.30820  Biso   1.000  H
  C665     1.0000 0.08005  0.41995  0.28309  Biso   1.000  C
  H572     1.0000 0.07030  0.42970  0.30150  Biso   1.000  H
  C666     1.0000 0.04470  0.45530  0.24690  Biso   1.000  C
  Fe48     1.0000 0.12921  0.87079  0.68684  Biso   1.000  Fe
  O863     1.0000 0.03330  0.96670  0.77100  Biso   1.000  O
  O864     1.0000 0.03960  0.96040  0.71940  Biso   1.000  O
  C667     1.0000 0.07061  0.92939  0.75210  Biso   1.000  C
  C668     1.0000 0.08488  0.91512  0.72514  Biso   1.000  C
  H573     1.0000 0.07845  0.92155  0.70400  Biso   1.000  H
  N48      1.0000 0.10855  0.89145  0.72909  Biso   1.000  N
  C669     1.0000 0.11796  0.88204  0.76005  Biso   1.000  C
  H574     1.0000 0.13410  0.86590  0.76270  Biso   1.000  H
  C670     1.0000 0.10371  0.89629  0.78704  Biso   1.000  C
  H575     1.0000 0.11010  0.88990  0.80820  Biso   1.000  H
  C671     1.0000 0.08005  0.91995  0.78309  Biso   1.000  C
  H576     1.0000 0.07030  0.92970  0.80150  Biso   1.000  H
  C672     1.0000 0.04470  0.95530  0.74690  Biso   1.000  C
  Fe49     1.0000 0.37079  0.68684  0.37079  Biso   1.000  Fe
  O865     1.0000 0.46670  0.77100  0.46670  Biso   1.000  O
  O866     1.0000 0.46040  0.71940  0.46040  Biso   1.000  O
  C673     1.0000 0.42939  0.75210  0.42939  Biso   1.000  C
  C674     1.0000 0.41512  0.72514  0.41512  Biso   1.000  C
  H577     1.0000 0.42155  0.70400  0.42155  Biso   1.000  H
  N49      1.0000 0.39145  0.72909  0.39145  Biso   1.000  N
  C675     1.0000 0.38204  0.76005  0.38204  Biso   1.000  C
  H578     1.0000 0.36590  0.76270  0.36590  Biso   1.000  H
  C676     1.0000 0.39629  0.78704  0.39629  Biso   1.000  C
  H579     1.0000 0.38990  0.80820  0.38990  Biso   1.000  H
  C677     1.0000 0.41995  0.78309  0.41995  Biso   1.000  C
  H580     1.0000 0.42970  0.80150  0.42970  Biso   1.000  H
  C678     1.0000 0.45530  0.74690  0.45530  Biso   1.000  C
  Fe50     1.0000 0.37079  0.18684  0.87079  Biso   1.000  Fe
  O867     1.0000 0.46670  0.27100  0.96670  Biso   1.000  O
  O868     1.0000 0.46040  0.21940  0.96040  Biso   1.000  O
  C679     1.0000 0.42939  0.25210  0.92939  Biso   1.000  C
  C680     1.0000 0.41512  0.22514  0.91512  Biso   1.000  C
  H581     1.0000 0.42155  0.20400  0.92155  Biso   1.000  H
  N50      1.0000 0.39145  0.22909  0.89145  Biso   1.000  N
  C681     1.0000 0.38204  0.26005  0.88204  Biso   1.000  C
  H582     1.0000 0.36590  0.26270  0.86590  Biso   1.000  H
  C682     1.0000 0.39629  0.28704  0.89629  Biso   1.000  C
  H583     1.0000 0.38990  0.30820  0.88990  Biso   1.000  H
  C683     1.0000 0.41995  0.28309  0.91995  Biso   1.000  C
  H584     1.0000 0.42970  0.30150  0.92970  Biso   1.000  H
  C684     1.0000 0.45530  0.24690  0.95530  Biso   1.000  C
  Fe51     1.0000 0.87079  0.68684  0.87079  Biso   1.000  Fe
  O869     1.0000 0.96670  0.77100  0.96670  Biso   1.000  O
  O870     1.0000 0.96040  0.71940  0.96040  Biso   1.000  O
  C685     1.0000 0.92939  0.75210  0.92939  Biso   1.000  C
  C686     1.0000 0.91512  0.72514  0.91512  Biso   1.000  C
  H585     1.0000 0.92155  0.70400  0.92155  Biso   1.000  H
  N51      1.0000 0.89145  0.72909  0.89145  Biso   1.000  N
  C687     1.0000 0.88204  0.76005  0.88204  Biso   1.000  C
  H586     1.0000 0.86590  0.76270  0.86590  Biso   1.000  H
  C688     1.0000 0.89629  0.78704  0.89629  Biso   1.000  C
  H587     1.0000 0.88990  0.80820  0.88990  Biso   1.000  H
  C689     1.0000 0.91996  0.78309  0.91995  Biso   1.000  C
  H588     1.0000 0.92970  0.80150  0.92970  Biso   1.000  H
  C690     1.0000 0.95530  0.74690  0.95530  Biso   1.000  C
  Fe52     1.0000 0.87079  0.18684  0.37079  Biso   1.000  Fe
  O871     1.0000 0.96670  0.27100  0.46670  Biso   1.000  O
  O872     1.0000 0.96040  0.21940  0.46040  Biso   1.000  O
  C691     1.0000 0.92939  0.25210  0.42939  Biso   1.000  C
  C692     1.0000 0.91512  0.22514  0.41512  Biso   1.000  C
  H589     1.0000 0.92155  0.20400  0.42155  Biso   1.000  H
  N52      1.0000 0.89145  0.22909  0.39145  Biso   1.000  N
  C693     1.0000 0.88204  0.26005  0.38204  Biso   1.000  C
  H590     1.0000 0.86590  0.26270  0.36590  Biso   1.000  H
  C694     1.0000 0.89629  0.28704  0.39629  Biso   1.000  C
  H591     1.0000 0.88990  0.30820  0.38990  Biso   1.000  H
  C695     1.0000 0.91996  0.28309  0.41995  Biso   1.000  C
  H592     1.0000 0.92970  0.30150  0.42970  Biso   1.000  H
  C696     1.0000 0.95530  0.24690  0.45530  Biso   1.000  C
  Fe53     1.0000 0.62921  0.31316  0.37079  Biso   1.000  Fe
  O873     1.0000 0.53330  0.22900  0.46670  Biso   1.000  O
  O874     1.0000 0.53960  0.28060  0.46040  Biso   1.000  O
  C697     1.0000 0.57061  0.24790  0.42939  Biso   1.000  C
  C698     1.0000 0.58488  0.27486  0.41512  Biso   1.000  C
  H593     1.0000 0.57845  0.29600  0.42155  Biso   1.000  H
  N53      1.0000 0.60855  0.27091  0.39145  Biso   1.000  N
  C699     1.0000 0.61796  0.23995  0.38204  Biso   1.000  C
  H594     1.0000 0.63410  0.23730  0.36590  Biso   1.000  H
  C700     1.0000 0.60371  0.21296  0.39629  Biso   1.000  C
  H595     1.0000 0.61010  0.19180  0.38990  Biso   1.000  H
  C701     1.0000 0.58005  0.21691  0.41995  Biso   1.000  C
  H596     1.0000 0.57030  0.19850  0.42970  Biso   1.000  H
  C702     1.0000 0.54470  0.25310  0.45530  Biso   1.000  C
  Fe54     1.0000 0.62921  0.81316  0.87079  Biso   1.000  Fe
  O875     1.0000 0.53330  0.72900  0.96670  Biso   1.000  O
  O876     1.0000 0.53960  0.78060  0.96040  Biso   1.000  O
  C703     1.0000 0.57061  0.74790  0.92939  Biso   1.000  C
  C704     1.0000 0.58488  0.77486  0.91512  Biso   1.000  C
  H597     1.0000 0.57845  0.79600  0.92155  Biso   1.000  H
  N54      1.0000 0.60855  0.77091  0.89145  Biso   1.000  N
  C705     1.0000 0.61796  0.73995  0.88204  Biso   1.000  C
  H598     1.0000 0.63410  0.73730  0.86590  Biso   1.000  H
  C706     1.0000 0.60371  0.71296  0.89629  Biso   1.000  C
  H599     1.0000 0.61010  0.69180  0.88990  Biso   1.000  H
  C707     1.0000 0.58005  0.71691  0.91995  Biso   1.000  C
  H600     1.0000 0.57030  0.69850  0.92970  Biso   1.000  H
  C708     1.0000 0.54470  0.75310  0.95530  Biso   1.000  C
  Fe55     1.0000 0.12921  0.31316  0.87079  Biso   1.000  Fe
  O877     1.0000 0.03330  0.22900  0.96670  Biso   1.000  O
  O878     1.0000 0.03960  0.28060  0.96040  Biso   1.000  O
  C709     1.0000 0.07061  0.24790  0.92939  Biso   1.000  C
  C710     1.0000 0.08488  0.27486  0.91512  Biso   1.000  C
  H601     1.0000 0.07845  0.29600  0.92155  Biso   1.000  H
  N55      1.0000 0.10855  0.27091  0.89145  Biso   1.000  N
  C711     1.0000 0.11796  0.23995  0.88204  Biso   1.000  C
  H602     1.0000 0.13410  0.23730  0.86590  Biso   1.000  H
  C712     1.0000 0.10371  0.21296  0.89629  Biso   1.000  C
  H603     1.0000 0.11010  0.19180  0.88990  Biso   1.000  H
  C713     1.0000 0.08005  0.21691  0.91995  Biso   1.000  C
  H604     1.0000 0.07030  0.19850  0.92970  Biso   1.000  H
  C714     1.0000 0.04470  0.25310  0.95530  Biso   1.000  C
  Fe56     1.0000 0.12921  0.81316  0.37079  Biso   1.000  Fe
  O879     1.0000 0.03330  0.72900  0.46670  Biso   1.000  O
  O880     1.0000 0.03960  0.78060  0.46040  Biso   1.000  O
  C715     1.0000 0.07061  0.74790  0.42939  Biso   1.000  C
  C716     1.0000 0.08488  0.77486  0.41512  Biso   1.000  C
  H605     1.0000 0.07845  0.79600  0.42155  Biso   1.000  H
  N56      1.0000 0.10855  0.77091  0.39145  Biso   1.000  N
  C717     1.0000 0.11796  0.73995  0.38204  Biso   1.000  C
  H606     1.0000 0.13410  0.73730  0.36590  Biso   1.000  H
  C718     1.0000 0.10371  0.71296  0.39629  Biso   1.000  C
  H607     1.0000 0.11010  0.69180  0.38990  Biso   1.000  H
  C719     1.0000 0.08005  0.71691  0.41995  Biso   1.000  C
  H608     1.0000 0.07030  0.69850  0.42970  Biso   1.000  H
  C720     1.0000 0.04470  0.75310  0.45530  Biso   1.000  C
  Fe57     1.0000 0.37079  0.31316  0.62921  Biso   1.000  Fe
  O881     1.0000 0.46670  0.22900  0.53330  Biso   1.000  O
  O882     1.0000 0.46040  0.28060  0.53960  Biso   1.000  O
  C721     1.0000 0.42939  0.24790  0.57061  Biso   1.000  C
  C722     1.0000 0.41512  0.27486  0.58488  Biso   1.000  C
  H609     1.0000 0.42155  0.29600  0.57845  Biso   1.000  H
  N57      1.0000 0.39145  0.27091  0.60855  Biso   1.000  N
  C723     1.0000 0.38204  0.23995  0.61796  Biso   1.000  C
  H610     1.0000 0.36590  0.23730  0.63410  Biso   1.000  H
  C724     1.0000 0.39629  0.21296  0.60371  Biso   1.000  C
  H611     1.0000 0.38990  0.19180  0.61010  Biso   1.000  H
  C725     1.0000 0.41995  0.21691  0.58005  Biso   1.000  C
  H612     1.0000 0.42970  0.19850  0.57030  Biso   1.000  H
  C726     1.0000 0.45530  0.25310  0.54470  Biso   1.000  C
  Fe58     1.0000 0.37079  0.81316  0.12921  Biso   1.000  Fe
  O883     1.0000 0.46670  0.72900  0.03330  Biso   1.000  O
  O884     1.0000 0.46040  0.78060  0.03960  Biso   1.000  O
  C727     1.0000 0.42939  0.74790  0.07061  Biso   1.000  C
  C728     1.0000 0.41512  0.77486  0.08488  Biso   1.000  C
  H613     1.0000 0.42155  0.79600  0.07845  Biso   1.000  H
  N58      1.0000 0.39145  0.77091  0.10855  Biso   1.000  N
  C729     1.0000 0.38204  0.73995  0.11796  Biso   1.000  C
  H614     1.0000 0.36590  0.73730  0.13410  Biso   1.000  H
  C730     1.0000 0.39629  0.71296  0.10371  Biso   1.000  C
  H615     1.0000 0.38990  0.69180  0.11010  Biso   1.000  H
  C731     1.0000 0.41995  0.71691  0.08005  Biso   1.000  C
  H616     1.0000 0.42970  0.69850  0.07030  Biso   1.000  H
  C732     1.0000 0.45530  0.75310  0.04470  Biso   1.000  C
  Fe59     1.0000 0.87079  0.31316  0.12921  Biso   1.000  Fe
  O885     1.0000 0.96670  0.22900  0.03330  Biso   1.000  O
  O886     1.0000 0.96040  0.28060  0.03960  Biso   1.000  O
  C733     1.0000 0.92939  0.24790  0.07061  Biso   1.000  C
  C734     1.0000 0.91512  0.27486  0.08488  Biso   1.000  C
  H617     1.0000 0.92155  0.29600  0.07845  Biso   1.000  H
  N59      1.0000 0.89145  0.27091  0.10855  Biso   1.000  N
  C735     1.0000 0.88204  0.23995  0.11796  Biso   1.000  C
  H618     1.0000 0.86590  0.23730  0.13410  Biso   1.000  H
  C736     1.0000 0.89629  0.21296  0.10371  Biso   1.000  C
  H619     1.0000 0.88990  0.19180  0.11010  Biso   1.000  H
  C737     1.0000 0.91996  0.21691  0.08005  Biso   1.000  C
  H620     1.0000 0.92970  0.19850  0.07030  Biso   1.000  H
  C738     1.0000 0.95530  0.25310  0.04470  Biso   1.000  C
  Fe60     1.0000 0.87079  0.81316  0.62921  Biso   1.000  Fe
  O887     1.0000 0.96670  0.72900  0.53330  Biso   1.000  O
  O888     1.0000 0.96040  0.78060  0.53960  Biso   1.000  O
  C739     1.0000 0.92939  0.74790  0.57061  Biso   1.000  C
  C740     1.0000 0.91512  0.77486  0.58488  Biso   1.000  C
  H621     1.0000 0.92155  0.79600  0.57845  Biso   1.000  H
  N60      1.0000 0.89145  0.77091  0.60855  Biso   1.000  N
  C741     1.0000 0.88204  0.73995  0.61796  Biso   1.000  C
  H622     1.0000 0.86590  0.73730  0.63410  Biso   1.000  H
  C742     1.0000 0.89629  0.71296  0.60371  Biso   1.000  C
  H623     1.0000 0.88990  0.69180  0.61010  Biso   1.000  H
  C743     1.0000 0.91996  0.71691  0.58005  Biso   1.000  C
  H624     1.0000 0.92970  0.69850  0.57030  Biso   1.000  H
  C744     1.0000 0.95530  0.75310  0.54470  Biso   1.000  C
  Fe61     1.0000 0.62921  0.68684  0.62921  Biso   1.000  Fe
  O889     1.0000 0.53330  0.77100  0.53330  Biso   1.000  O
  O890     1.0000 0.53960  0.71940  0.53960  Biso   1.000  O
  C745     1.0000 0.57061  0.75210  0.57061  Biso   1.000  C
  C746     1.0000 0.58488  0.72514  0.58488  Biso   1.000  C
  H625     1.0000 0.57845  0.70400  0.57845  Biso   1.000  H
  N61      1.0000 0.60855  0.72909  0.60855  Biso   1.000  N
  C747     1.0000 0.61796  0.76005  0.61796  Biso   1.000  C
  H626     1.0000 0.63410  0.76270  0.63410  Biso   1.000  H
  C748     1.0000 0.60371  0.78704  0.60371  Biso   1.000  C
  H627     1.0000 0.61010  0.80820  0.61010  Biso   1.000  H
  C749     1.0000 0.58005  0.78309  0.58005  Biso   1.000  C
  H628     1.0000 0.57030  0.80150  0.57030  Biso   1.000  H
  C750     1.0000 0.54470  0.74690  0.54470  Biso   1.000  C
  Fe62     1.0000 0.62921  0.18684  0.12921  Biso   1.000  Fe
  O891     1.0000 0.53330  0.27100  0.03330  Biso   1.000  O
  O892     1.0000 0.53960  0.21940  0.03960  Biso   1.000  O
  C751     1.0000 0.57061  0.25210  0.07061  Biso   1.000  C
  C752     1.0000 0.58488  0.22514  0.08488  Biso   1.000  C
  H629     1.0000 0.57845  0.20400  0.07845  Biso   1.000  H
  N62      1.0000 0.60855  0.22909  0.10855  Biso   1.000  N
  C753     1.0000 0.61796  0.26005  0.11796  Biso   1.000  C
  H630     1.0000 0.63410  0.26270  0.13410  Biso   1.000  H
  C754     1.0000 0.60371  0.28704  0.10371  Biso   1.000  C
  H631     1.0000 0.61010  0.30820  0.11010  Biso   1.000  H
  C755     1.0000 0.58005  0.28309  0.08005  Biso   1.000  C
  H632     1.0000 0.57030  0.30150  0.07030  Biso   1.000  H
  C756     1.0000 0.54470  0.24690  0.04470  Biso   1.000  C
  Fe63     1.0000 0.12921  0.68684  0.12921  Biso   1.000  Fe
  O893     1.0000 0.03330  0.77100  0.03330  Biso   1.000  O
  O894     1.0000 0.03960  0.71940  0.03960  Biso   1.000  O
  C757     1.0000 0.07061  0.75210  0.07061  Biso   1.000  C
  C758     1.0000 0.08488  0.72514  0.08488  Biso   1.000  C
  H633     1.0000 0.07845  0.70400  0.07845  Biso   1.000  H
  N63      1.0000 0.10855  0.72909  0.10855  Biso   1.000  N
  C759     1.0000 0.11796  0.76005  0.11796  Biso   1.000  C
  H634     1.0000 0.13410  0.76270  0.13410  Biso   1.000  H
  C760     1.0000 0.10371  0.78704  0.10371  Biso   1.000  C
  H635     1.0000 0.11010  0.80820  0.11010  Biso   1.000  H
  C761     1.0000 0.08005  0.78309  0.08005  Biso   1.000  C
  H636     1.0000 0.07030  0.80150  0.07030  Biso   1.000  H
  C762     1.0000 0.04470  0.74690  0.04470  Biso   1.000  C
  Fe64     1.0000 0.12921  0.18684  0.62921  Biso   1.000  Fe
  O895     1.0000 0.03330  0.27100  0.53330  Biso   1.000  O
  O896     1.0000 0.03960  0.21940  0.53960  Biso   1.000  O
  C763     1.0000 0.07061  0.25210  0.57061  Biso   1.000  C
  C764     1.0000 0.08488  0.22514  0.58488  Biso   1.000  C
  H637     1.0000 0.07845  0.20400  0.57845  Biso   1.000  H
  N64      1.0000 0.10855  0.22909  0.60855  Biso   1.000  N
  C765     1.0000 0.11796  0.26005  0.61796  Biso   1.000  C
  H638     1.0000 0.13410  0.26270  0.63410  Biso   1.000  H
  C766     1.0000 0.10371  0.28704  0.60371  Biso   1.000  C
  H639     1.0000 0.11010  0.30820  0.61010  Biso   1.000  H
  C767     1.0000 0.08005  0.28309  0.58005  Biso   1.000  C
  H640     1.0000 0.07030  0.30150  0.57030  Biso   1.000  H
  C768     1.0000 0.04470  0.24690  0.54470  Biso   1.000  C
  Fe65     1.0000 0.68684  0.62921  0.62921  Biso   1.000  Fe
  O897     1.0000 0.77100  0.53330  0.53330  Biso   1.000  O
  O898     1.0000 0.71940  0.53960  0.53960  Biso   1.000  O
  C769     1.0000 0.75210  0.57061  0.57061  Biso   1.000  C
  C770     1.0000 0.72514  0.58488  0.58488  Biso   1.000  C
  H641     1.0000 0.70400  0.57845  0.57845  Biso   1.000  H
  N65      1.0000 0.72909  0.60855  0.60855  Biso   1.000  N
  C771     1.0000 0.76005  0.61796  0.61796  Biso   1.000  C
  H642     1.0000 0.76270  0.63410  0.63410  Biso   1.000  H
  C772     1.0000 0.78704  0.60371  0.60371  Biso   1.000  C
  H643     1.0000 0.80820  0.61010  0.61010  Biso   1.000  H
  C773     1.0000 0.78309  0.58005  0.58005  Biso   1.000  C
  H644     1.0000 0.80150  0.57030  0.57030  Biso   1.000  H
  C774     1.0000 0.74690  0.54470  0.54470  Biso   1.000  C
  Fe66     1.0000 0.68684  0.12921  0.12921  Biso   1.000  Fe
  O899     1.0000 0.77100  0.03330  0.03330  Biso   1.000  O
  O900     1.0000 0.71940  0.03960  0.03960  Biso   1.000  O
  C775     1.0000 0.75210  0.07061  0.07061  Biso   1.000  C
  C776     1.0000 0.72514  0.08488  0.08488  Biso   1.000  C
  H645     1.0000 0.70400  0.07845  0.07845  Biso   1.000  H
  N66      1.0000 0.72909  0.10855  0.10855  Biso   1.000  N
  C777     1.0000 0.76005  0.11796  0.11796  Biso   1.000  C
  H646     1.0000 0.76270  0.13410  0.13410  Biso   1.000  H
  C778     1.0000 0.78704  0.10371  0.10371  Biso   1.000  C
  H647     1.0000 0.80820  0.11010  0.11010  Biso   1.000  H
  C779     1.0000 0.78309  0.08005  0.08005  Biso   1.000  C
  H648     1.0000 0.80150  0.07030  0.07030  Biso   1.000  H
  C780     1.0000 0.74690  0.04470  0.04470  Biso   1.000  C
  Fe67     1.0000 0.18684  0.62921  0.12921  Biso   1.000  Fe
  O901     1.0000 0.27100  0.53330  0.03330  Biso   1.000  O
  O902     1.0000 0.21940  0.53960  0.03960  Biso   1.000  O
  C781     1.0000 0.25210  0.57061  0.07061  Biso   1.000  C
  C782     1.0000 0.22514  0.58488  0.08488  Biso   1.000  C
  H649     1.0000 0.20400  0.57845  0.07845  Biso   1.000  H
  N67      1.0000 0.22909  0.60855  0.10855  Biso   1.000  N
  C783     1.0000 0.26005  0.61796  0.11796  Biso   1.000  C
  H650     1.0000 0.26270  0.63410  0.13410  Biso   1.000  H
  C784     1.0000 0.28704  0.60371  0.10371  Biso   1.000  C
  H651     1.0000 0.30820  0.61010  0.11010  Biso   1.000  H
  C785     1.0000 0.28309  0.58005  0.08005  Biso   1.000  C
  H652     1.0000 0.30150  0.57030  0.07030  Biso   1.000  H
  C786     1.0000 0.24690  0.54470  0.04470  Biso   1.000  C
  Fe68     1.0000 0.18684  0.12921  0.62921  Biso   1.000  Fe
  O903     1.0000 0.27100  0.03330  0.53330  Biso   1.000  O
  O904     1.0000 0.21940  0.03960  0.53960  Biso   1.000  O
  C787     1.0000 0.25210  0.07061  0.57061  Biso   1.000  C
  C788     1.0000 0.22514  0.08488  0.58488  Biso   1.000  C
  H653     1.0000 0.20400  0.07845  0.57845  Biso   1.000  H
  N68      1.0000 0.22909  0.10855  0.60855  Biso   1.000  N
  C789     1.0000 0.26005  0.11796  0.61796  Biso   1.000  C
  H654     1.0000 0.26270  0.13410  0.63410  Biso   1.000  H
  C790     1.0000 0.28704  0.10371  0.60371  Biso   1.000  C
  H655     1.0000 0.30820  0.11010  0.61010  Biso   1.000  H
  C791     1.0000 0.28309  0.08005  0.58005  Biso   1.000  C
  H656     1.0000 0.30150  0.07030  0.57030  Biso   1.000  H
  C792     1.0000 0.24690  0.04470  0.54470  Biso   1.000  C
  Fe69     1.0000 0.31316  0.62921  0.37079  Biso   1.000  Fe
  O905     1.0000 0.22900  0.53330  0.46670  Biso   1.000  O
  O906     1.0000 0.28060  0.53960  0.46040  Biso   1.000  O
  C793     1.0000 0.24790  0.57061  0.42939  Biso   1.000  C
  C794     1.0000 0.27486  0.58488  0.41512  Biso   1.000  C
  H657     1.0000 0.29600  0.57845  0.42155  Biso   1.000  H
  N69      1.0000 0.27091  0.60855  0.39145  Biso   1.000  N
  C795     1.0000 0.23995  0.61796  0.38204  Biso   1.000  C
  H658     1.0000 0.23730  0.63410  0.36590  Biso   1.000  H
  C796     1.0000 0.21296  0.60371  0.39629  Biso   1.000  C
  H659     1.0000 0.19180  0.61010  0.38990  Biso   1.000  H
  C797     1.0000 0.21691  0.58005  0.41995  Biso   1.000  C
  H660     1.0000 0.19850  0.57030  0.42970  Biso   1.000  H
  C798     1.0000 0.25310  0.54470  0.45530  Biso   1.000  C
  Fe70     1.0000 0.31316  0.12921  0.87079  Biso   1.000  Fe
  O907     1.0000 0.22900  0.03330  0.96670  Biso   1.000  O
  O908     1.0000 0.28060  0.03960  0.96040  Biso   1.000  O
  C799     1.0000 0.24790  0.07061  0.92939  Biso   1.000  C
  C800     1.0000 0.27486  0.08488  0.91512  Biso   1.000  C
  H661     1.0000 0.29600  0.07845  0.92155  Biso   1.000  H
  N70      1.0000 0.27091  0.10855  0.89145  Biso   1.000  N
  C801     1.0000 0.23995  0.11796  0.88204  Biso   1.000  C
  H662     1.0000 0.23730  0.13410  0.86590  Biso   1.000  H
  C802     1.0000 0.21296  0.10371  0.89629  Biso   1.000  C
  H663     1.0000 0.19180  0.11010  0.88990  Biso   1.000  H
  C803     1.0000 0.21691  0.08005  0.91996  Biso   1.000  C
  H664     1.0000 0.19850  0.07030  0.92970  Biso   1.000  H
  C804     1.0000 0.25310  0.04470  0.95530  Biso   1.000  C
  Fe71     1.0000 0.81316  0.62921  0.87079  Biso   1.000  Fe
  O909     1.0000 0.72900  0.53330  0.96670  Biso   1.000  O
  O910     1.0000 0.78060  0.53960  0.96040  Biso   1.000  O
  C805     1.0000 0.74790  0.57061  0.92939  Biso   1.000  C
  C806     1.0000 0.77486  0.58488  0.91512  Biso   1.000  C
  H665     1.0000 0.79600  0.57845  0.92155  Biso   1.000  H
  N71      1.0000 0.77091  0.60855  0.89145  Biso   1.000  N
  C807     1.0000 0.73995  0.61796  0.88204  Biso   1.000  C
  H666     1.0000 0.73730  0.63410  0.86590  Biso   1.000  H
  C808     1.0000 0.71296  0.60371  0.89629  Biso   1.000  C
  H667     1.0000 0.69180  0.61010  0.88990  Biso   1.000  H
  C809     1.0000 0.71691  0.58005  0.91996  Biso   1.000  C
  H668     1.0000 0.69850  0.57030  0.92970  Biso   1.000  H
  C810     1.0000 0.75310  0.54470  0.95530  Biso   1.000  C
  Fe72     1.0000 0.81316  0.12921  0.37079  Biso   1.000  Fe
  O911     1.0000 0.72900  0.03330  0.46670  Biso   1.000  O
  O912     1.0000 0.78060  0.03960  0.46040  Biso   1.000  O
  C811     1.0000 0.74790  0.07061  0.42939  Biso   1.000  C
  C812     1.0000 0.77486  0.08488  0.41512  Biso   1.000  C
  H669     1.0000 0.79600  0.07845  0.42155  Biso   1.000  H
  N72      1.0000 0.77091  0.10855  0.39145  Biso   1.000  N
  C813     1.0000 0.73995  0.11796  0.38204  Biso   1.000  C
  H670     1.0000 0.73730  0.13410  0.36590  Biso   1.000  H
  C814     1.0000 0.71296  0.10371  0.39629  Biso   1.000  C
  H671     1.0000 0.69180  0.11010  0.38990  Biso   1.000  H
  C815     1.0000 0.71691  0.08005  0.41995  Biso   1.000  C
  H672     1.0000 0.69850  0.07030  0.42970  Biso   1.000  H
  C816     1.0000 0.75310  0.04470  0.45530  Biso   1.000  C
  Fe73     1.0000 0.31316  0.37079  0.62921  Biso   1.000  Fe
  O913     1.0000 0.22900  0.46670  0.53330  Biso   1.000  O
  O914     1.0000 0.28060  0.46040  0.53960  Biso   1.000  O
  C817     1.0000 0.24790  0.42939  0.57061  Biso   1.000  C
  C818     1.0000 0.27486  0.41512  0.58488  Biso   1.000  C
  H673     1.0000 0.29600  0.42155  0.57845  Biso   1.000  H
  N73      1.0000 0.27091  0.39145  0.60855  Biso   1.000  N
  C819     1.0000 0.23995  0.38204  0.61796  Biso   1.000  C
  H674     1.0000 0.23730  0.36590  0.63410  Biso   1.000  H
  C820     1.0000 0.21296  0.39629  0.60371  Biso   1.000  C
  H675     1.0000 0.19180  0.38990  0.61010  Biso   1.000  H
  C821     1.0000 0.21691  0.41995  0.58005  Biso   1.000  C
  H676     1.0000 0.19850  0.42970  0.57030  Biso   1.000  H
  C822     1.0000 0.25310  0.45530  0.54470  Biso   1.000  C
  Fe74     1.0000 0.31316  0.87079  0.12921  Biso   1.000  Fe
  O915     1.0000 0.22900  0.96670  0.03330  Biso   1.000  O
  O916     1.0000 0.28060  0.96040  0.03960  Biso   1.000  O
  C823     1.0000 0.24790  0.92939  0.07061  Biso   1.000  C
  C824     1.0000 0.27486  0.91512  0.08488  Biso   1.000  C
  H677     1.0000 0.29600  0.92155  0.07845  Biso   1.000  H
  N74      1.0000 0.27091  0.89145  0.10855  Biso   1.000  N
  C825     1.0000 0.23995  0.88204  0.11796  Biso   1.000  C
  H678     1.0000 0.23730  0.86590  0.13410  Biso   1.000  H
  C826     1.0000 0.21296  0.89629  0.10371  Biso   1.000  C
  H679     1.0000 0.19180  0.88990  0.11010  Biso   1.000  H
  C827     1.0000 0.21691  0.91995  0.08005  Biso   1.000  C
  H680     1.0000 0.19850  0.92970  0.07030  Biso   1.000  H
  C828     1.0000 0.25310  0.95530  0.04470  Biso   1.000  C
  Fe75     1.0000 0.81316  0.37079  0.12921  Biso   1.000  Fe
  O917     1.0000 0.72900  0.46670  0.03330  Biso   1.000  O
  O918     1.0000 0.78060  0.46040  0.03960  Biso   1.000  O
  C829     1.0000 0.74790  0.42939  0.07061  Biso   1.000  C
  C830     1.0000 0.77486  0.41512  0.08488  Biso   1.000  C
  H681     1.0000 0.79600  0.42155  0.07845  Biso   1.000  H
  N75      1.0000 0.77091  0.39145  0.10855  Biso   1.000  N
  C831     1.0000 0.73995  0.38204  0.11796  Biso   1.000  C
  H682     1.0000 0.73730  0.36590  0.13410  Biso   1.000  H
  C832     1.0000 0.71296  0.39629  0.10371  Biso   1.000  C
  H683     1.0000 0.69180  0.38990  0.11010  Biso   1.000  H
  C833     1.0000 0.71691  0.41995  0.08005  Biso   1.000  C
  H684     1.0000 0.69850  0.42970  0.07030  Biso   1.000  H
  C834     1.0000 0.75310  0.45530  0.04470  Biso   1.000  C
  Fe76     1.0000 0.81316  0.87079  0.62921  Biso   1.000  Fe
  O919     1.0000 0.72900  0.96670  0.53330  Biso   1.000  O
  O920     1.0000 0.78060  0.96040  0.53960  Biso   1.000  O
  C835     1.0000 0.74790  0.92939  0.57061  Biso   1.000  C
  C836     1.0000 0.77486  0.91512  0.58488  Biso   1.000  C
  H685     1.0000 0.79600  0.92155  0.57845  Biso   1.000  H
  N76      1.0000 0.77091  0.89145  0.60855  Biso   1.000  N
  C837     1.0000 0.73995  0.88204  0.61796  Biso   1.000  C
  H686     1.0000 0.73730  0.86590  0.63410  Biso   1.000  H
  C838     1.0000 0.71296  0.89629  0.60371  Biso   1.000  C
  H687     1.0000 0.69180  0.88990  0.61010  Biso   1.000  H
  C839     1.0000 0.71691  0.91995  0.58005  Biso   1.000  C
  H688     1.0000 0.69850  0.92970  0.57030  Biso   1.000  H
  C840     1.0000 0.75310  0.95530  0.54470  Biso   1.000  C
  Fe77     1.0000 0.68684  0.37079  0.37079  Biso   1.000  Fe
  O921     1.0000 0.77100  0.46670  0.46670  Biso   1.000  O
  O922     1.0000 0.71940  0.46040  0.46040  Biso   1.000  O
  C841     1.0000 0.75210  0.42939  0.42939  Biso   1.000  C
  C842     1.0000 0.72514  0.41512  0.41512  Biso   1.000  C
  H689     1.0000 0.70400  0.42155  0.42155  Biso   1.000  H
  N77      1.0000 0.72909  0.39145  0.39145  Biso   1.000  N
  C843     1.0000 0.76005  0.38204  0.38204  Biso   1.000  C
  H690     1.0000 0.76270  0.36590  0.36590  Biso   1.000  H
  C844     1.0000 0.78704  0.39629  0.39629  Biso   1.000  C
  H691     1.0000 0.80820  0.38990  0.38990  Biso   1.000  H
  C845     1.0000 0.78309  0.41995  0.41995  Biso   1.000  C
  H692     1.0000 0.80150  0.42970  0.42970  Biso   1.000  H
  C846     1.0000 0.74690  0.45530  0.45530  Biso   1.000  C
  Fe78     1.0000 0.68684  0.87079  0.87079  Biso   1.000  Fe
  O923     1.0000 0.77100  0.96670  0.96670  Biso   1.000  O
  O924     1.0000 0.71940  0.96040  0.96040  Biso   1.000  O
  C847     1.0000 0.75210  0.92939  0.92939  Biso   1.000  C
  C848     1.0000 0.72514  0.91512  0.91512  Biso   1.000  C
  H693     1.0000 0.70400  0.92155  0.92155  Biso   1.000  H
  N78      1.0000 0.72909  0.89145  0.89145  Biso   1.000  N
  C849     1.0000 0.76005  0.88204  0.88204  Biso   1.000  C
  H694     1.0000 0.76270  0.86590  0.86590  Biso   1.000  H
  C850     1.0000 0.78704  0.89629  0.89629  Biso   1.000  C
  H695     1.0000 0.80820  0.88990  0.88990  Biso   1.000  H
  C851     1.0000 0.78309  0.91995  0.91996  Biso   1.000  C
  H696     1.0000 0.80150  0.92970  0.92970  Biso   1.000  H
  C852     1.0000 0.74690  0.95530  0.95530  Biso   1.000  C
  Fe79     1.0000 0.18684  0.37079  0.87079  Biso   1.000  Fe
  O925     1.0000 0.27100  0.46670  0.96670  Biso   1.000  O
  O926     1.0000 0.21940  0.46040  0.96040  Biso   1.000  O
  C853     1.0000 0.25210  0.42939  0.92939  Biso   1.000  C
  C854     1.0000 0.22514  0.41512  0.91512  Biso   1.000  C
  H697     1.0000 0.20400  0.42155  0.92155  Biso   1.000  H
  N79      1.0000 0.22909  0.39145  0.89145  Biso   1.000  N
  C855     1.0000 0.26005  0.38204  0.88204  Biso   1.000  C
  H698     1.0000 0.26270  0.36590  0.86590  Biso   1.000  H
  C856     1.0000 0.28704  0.39629  0.89629  Biso   1.000  C
  H699     1.0000 0.30820  0.38990  0.88990  Biso   1.000  H
  C857     1.0000 0.28309  0.41995  0.91996  Biso   1.000  C
  H700     1.0000 0.30150  0.42970  0.92970  Biso   1.000  H
  C858     1.0000 0.24690  0.45530  0.95530  Biso   1.000  C
  Fe80     1.0000 0.18684  0.87079  0.37079  Biso   1.000  Fe
  O927     1.0000 0.27100  0.96670  0.46670  Biso   1.000  O
  O928     1.0000 0.21940  0.96040  0.46040  Biso   1.000  O
  C859     1.0000 0.25210  0.92939  0.42939  Biso   1.000  C
  C860     1.0000 0.22514  0.91512  0.41512  Biso   1.000  C
  H701     1.0000 0.20400  0.92155  0.42155  Biso   1.000  H
  N80      1.0000 0.22909  0.89145  0.39145  Biso   1.000  N
  C861     1.0000 0.26005  0.88204  0.38204  Biso   1.000  C
  H702     1.0000 0.26270  0.86590  0.36590  Biso   1.000  H
  C862     1.0000 0.28704  0.89629  0.39629  Biso   1.000  C
  H703     1.0000 0.30820  0.88990  0.38990  Biso   1.000  H
  C863     1.0000 0.28309  0.91995  0.41995  Biso   1.000  C
  H704     1.0000 0.30150  0.92970  0.42970  Biso   1.000  H
  C864     1.0000 0.24690  0.95530  0.45530  Biso   1.000  C
  Fe81     1.0000 0.62921  0.37079  0.31316  Biso   1.000  Fe
  O929     1.0000 0.53330  0.46670  0.22900  Biso   1.000  O
  O930     1.0000 0.53960  0.46040  0.28060  Biso   1.000  O
  C865     1.0000 0.57061  0.42939  0.24790  Biso   1.000  C
  C866     1.0000 0.58488  0.41512  0.27486  Biso   1.000  C
  H705     1.0000 0.57845  0.42155  0.29600  Biso   1.000  H
  N81      1.0000 0.60855  0.39145  0.27091  Biso   1.000  N
  C867     1.0000 0.61796  0.38204  0.23995  Biso   1.000  C
  H706     1.0000 0.63410  0.36590  0.23730  Biso   1.000  H
  C868     1.0000 0.60371  0.39629  0.21296  Biso   1.000  C
  H707     1.0000 0.61010  0.38990  0.19180  Biso   1.000  H
  C869     1.0000 0.58005  0.41995  0.21691  Biso   1.000  C
  H708     1.0000 0.57030  0.42970  0.19850  Biso   1.000  H
  C870     1.0000 0.54470  0.45530  0.25310  Biso   1.000  C
  Fe82     1.0000 0.62921  0.87079  0.81316  Biso   1.000  Fe
  O931     1.0000 0.53330  0.96670  0.72900  Biso   1.000  O
  O932     1.0000 0.53960  0.96040  0.78060  Biso   1.000  O
  C871     1.0000 0.57061  0.92939  0.74790  Biso   1.000  C
  C872     1.0000 0.58488  0.91512  0.77486  Biso   1.000  C
  H709     1.0000 0.57845  0.92155  0.79600  Biso   1.000  H
  N82      1.0000 0.60855  0.89145  0.77091  Biso   1.000  N
  C873     1.0000 0.61796  0.88204  0.73995  Biso   1.000  C
  H710     1.0000 0.63410  0.86590  0.73730  Biso   1.000  H
  C874     1.0000 0.60371  0.89629  0.71296  Biso   1.000  C
  H711     1.0000 0.61010  0.88990  0.69180  Biso   1.000  H
  C875     1.0000 0.58005  0.91996  0.71691  Biso   1.000  C
  H712     1.0000 0.57030  0.92970  0.69850  Biso   1.000  H
  C876     1.0000 0.54470  0.95530  0.75310  Biso   1.000  C
  Fe83     1.0000 0.12921  0.37079  0.81316  Biso   1.000  Fe
  O933     1.0000 0.03330  0.46670  0.72900  Biso   1.000  O
  O934     1.0000 0.03960  0.46040  0.78060  Biso   1.000  O
  C877     1.0000 0.07061  0.42939  0.74790  Biso   1.000  C
  C878     1.0000 0.08488  0.41512  0.77486  Biso   1.000  C
  H713     1.0000 0.07845  0.42155  0.79600  Biso   1.000  H
  N83      1.0000 0.10855  0.39145  0.77091  Biso   1.000  N
  C879     1.0000 0.11796  0.38204  0.73995  Biso   1.000  C
  H714     1.0000 0.13410  0.36590  0.73730  Biso   1.000  H
  C880     1.0000 0.10371  0.39629  0.71296  Biso   1.000  C
  H715     1.0000 0.11010  0.38990  0.69180  Biso   1.000  H
  C881     1.0000 0.08005  0.41995  0.71691  Biso   1.000  C
  H716     1.0000 0.07030  0.42970  0.69850  Biso   1.000  H
  C882     1.0000 0.04470  0.45530  0.75310  Biso   1.000  C
  Fe84     1.0000 0.12921  0.87079  0.31316  Biso   1.000  Fe
  O935     1.0000 0.03330  0.96670  0.22900  Biso   1.000  O
  O936     1.0000 0.03960  0.96040  0.28060  Biso   1.000  O
  C883     1.0000 0.07061  0.92939  0.24790  Biso   1.000  C
  C884     1.0000 0.08488  0.91512  0.27486  Biso   1.000  C
  H717     1.0000 0.07845  0.92155  0.29600  Biso   1.000  H
  N84      1.0000 0.10855  0.89145  0.27091  Biso   1.000  N
  C885     1.0000 0.11796  0.88204  0.23995  Biso   1.000  C
  H718     1.0000 0.13410  0.86590  0.23730  Biso   1.000  H
  C886     1.0000 0.10371  0.89629  0.21296  Biso   1.000  C
  H719     1.0000 0.11010  0.88990  0.19180  Biso   1.000  H
  C887     1.0000 0.08005  0.91996  0.21691  Biso   1.000  C
  H720     1.0000 0.07030  0.92970  0.19850  Biso   1.000  H
  C888     1.0000 0.04470  0.95530  0.25310  Biso   1.000  C
  Fe85     1.0000 0.62921  0.62921  0.68684  Biso   1.000  Fe
  O937     1.0000 0.53330  0.53330  0.77100  Biso   1.000  O
  O938     1.0000 0.53960  0.53960  0.71940  Biso   1.000  O
  C889     1.0000 0.57061  0.57061  0.75210  Biso   1.000  C
  C890     1.0000 0.58488  0.58488  0.72514  Biso   1.000  C
  H721     1.0000 0.57845  0.57845  0.70400  Biso   1.000  H
  N85      1.0000 0.60855  0.60855  0.72909  Biso   1.000  N
  C891     1.0000 0.61796  0.61796  0.76005  Biso   1.000  C
  H722     1.0000 0.63410  0.63410  0.76270  Biso   1.000  H
  C892     1.0000 0.60371  0.60371  0.78704  Biso   1.000  C
  H723     1.0000 0.61010  0.61010  0.80820  Biso   1.000  H
  C893     1.0000 0.58005  0.58005  0.78309  Biso   1.000  C
  H724     1.0000 0.57030  0.57030  0.80150  Biso   1.000  H
  C894     1.0000 0.54470  0.54470  0.74690  Biso   1.000  C
  Fe86     1.0000 0.62921  0.12921  0.18684  Biso   1.000  Fe
  O939     1.0000 0.53330  0.03330  0.27100  Biso   1.000  O
  O940     1.0000 0.53960  0.03960  0.21940  Biso   1.000  O
  C895     1.0000 0.57061  0.07061  0.25210  Biso   1.000  C
  C896     1.0000 0.58488  0.08488  0.22514  Biso   1.000  C
  H725     1.0000 0.57845  0.07845  0.20400  Biso   1.000  H
  N86      1.0000 0.60855  0.10855  0.22909  Biso   1.000  N
  C897     1.0000 0.61796  0.11796  0.26005  Biso   1.000  C
  H726     1.0000 0.63410  0.13410  0.26270  Biso   1.000  H
  C898     1.0000 0.60371  0.10371  0.28704  Biso   1.000  C
  H727     1.0000 0.61010  0.11010  0.30820  Biso   1.000  H
  C899     1.0000 0.58005  0.08005  0.28309  Biso   1.000  C
  H728     1.0000 0.57030  0.07030  0.30150  Biso   1.000  H
  C900     1.0000 0.54470  0.04470  0.24690  Biso   1.000  C
  Fe87     1.0000 0.12921  0.62921  0.18684  Biso   1.000  Fe
  O941     1.0000 0.03330  0.53330  0.27100  Biso   1.000  O
  O942     1.0000 0.03960  0.53960  0.21940  Biso   1.000  O
  C901     1.0000 0.07061  0.57061  0.25210  Biso   1.000  C
  C902     1.0000 0.08488  0.58488  0.22514  Biso   1.000  C
  H729     1.0000 0.07845  0.57845  0.20400  Biso   1.000  H
  N87      1.0000 0.10855  0.60855  0.22909  Biso   1.000  N
  C903     1.0000 0.11796  0.61796  0.26005  Biso   1.000  C
  H730     1.0000 0.13410  0.63410  0.26270  Biso   1.000  H
  C904     1.0000 0.10371  0.60371  0.28704  Biso   1.000  C
  H731     1.0000 0.11010  0.61010  0.30820  Biso   1.000  H
  C905     1.0000 0.08005  0.58005  0.28309  Biso   1.000  C
  H732     1.0000 0.07030  0.57030  0.30150  Biso   1.000  H
  C906     1.0000 0.04470  0.54470  0.24690  Biso   1.000  C
  Fe88     1.0000 0.12921  0.12921  0.68684  Biso   1.000  Fe
  O943     1.0000 0.03330  0.03330  0.77100  Biso   1.000  O
  O944     1.0000 0.03960  0.03960  0.71940  Biso   1.000  O
  C907     1.0000 0.07061  0.07061  0.75210  Biso   1.000  C
  C908     1.0000 0.08488  0.08488  0.72514  Biso   1.000  C
  H733     1.0000 0.07845  0.07845  0.70400  Biso   1.000  H
  N88      1.0000 0.10855  0.10855  0.72909  Biso   1.000  N
  C909     1.0000 0.11796  0.11796  0.76005  Biso   1.000  C
  H734     1.0000 0.13410  0.13410  0.76270  Biso   1.000  H
  C910     1.0000 0.10371  0.10371  0.78704  Biso   1.000  C
  H735     1.0000 0.11010  0.11010  0.80820  Biso   1.000  H
  C911     1.0000 0.08005  0.08005  0.78309  Biso   1.000  C
  H736     1.0000 0.07030  0.07030  0.80150  Biso   1.000  H
  C912     1.0000 0.04470  0.04470  0.74690  Biso   1.000  C
  Fe89     1.0000 0.37079  0.37079  0.68684  Biso   1.000  Fe
  O945     1.0000 0.46670  0.46670  0.77100  Biso   1.000  O
  O946     1.0000 0.46040  0.46040  0.71940  Biso   1.000  O
  C913     1.0000 0.42939  0.42939  0.75210  Biso   1.000  C
  C914     1.0000 0.41512  0.41512  0.72514  Biso   1.000  C
  H737     1.0000 0.42155  0.42155  0.70400  Biso   1.000  H
  N89      1.0000 0.39145  0.39145  0.72909  Biso   1.000  N
  C915     1.0000 0.38204  0.38204  0.76005  Biso   1.000  C
  H738     1.0000 0.36590  0.36590  0.76270  Biso   1.000  H
  C916     1.0000 0.39629  0.39629  0.78704  Biso   1.000  C
  H739     1.0000 0.38990  0.38990  0.80820  Biso   1.000  H
  C917     1.0000 0.41995  0.41995  0.78309  Biso   1.000  C
  H740     1.0000 0.42970  0.42970  0.80150  Biso   1.000  H
  C918     1.0000 0.45530  0.45530  0.74690  Biso   1.000  C
  Fe90     1.0000 0.37079  0.87079  0.18684  Biso   1.000  Fe
  O947     1.0000 0.46670  0.96670  0.27100  Biso   1.000  O
  O948     1.0000 0.46040  0.96040  0.21940  Biso   1.000  O
  C919     1.0000 0.42939  0.92939  0.25210  Biso   1.000  C
  C920     1.0000 0.41512  0.91512  0.22514  Biso   1.000  C
  H741     1.0000 0.42155  0.92155  0.20400  Biso   1.000  H
  N90      1.0000 0.39145  0.89145  0.22909  Biso   1.000  N
  C921     1.0000 0.38204  0.88204  0.26005  Biso   1.000  C
  H742     1.0000 0.36590  0.86590  0.26270  Biso   1.000  H
  C922     1.0000 0.39629  0.89629  0.28704  Biso   1.000  C
  H743     1.0000 0.38990  0.88990  0.30820  Biso   1.000  H
  C923     1.0000 0.41995  0.91996  0.28309  Biso   1.000  C
  H744     1.0000 0.42970  0.92970  0.30150  Biso   1.000  H
  C924     1.0000 0.45530  0.95530  0.24690  Biso   1.000  C
  Fe91     1.0000 0.87079  0.37079  0.18684  Biso   1.000  Fe
  O949     1.0000 0.96670  0.46670  0.27100  Biso   1.000  O
  O950     1.0000 0.96040  0.46040  0.21940  Biso   1.000  O
  C925     1.0000 0.92939  0.42939  0.25210  Biso   1.000  C
  C926     1.0000 0.91512  0.41512  0.22514  Biso   1.000  C
  H745     1.0000 0.92155  0.42155  0.20400  Biso   1.000  H
  N91      1.0000 0.89145  0.39145  0.22909  Biso   1.000  N
  C927     1.0000 0.88204  0.38204  0.26005  Biso   1.000  C
  H746     1.0000 0.86590  0.36590  0.26270  Biso   1.000  H
  C928     1.0000 0.89629  0.39629  0.28704  Biso   1.000  C
  H747     1.0000 0.88990  0.38990  0.30820  Biso   1.000  H
  C929     1.0000 0.91995  0.41995  0.28309  Biso   1.000  C
  H748     1.0000 0.92970  0.42970  0.30150  Biso   1.000  H
  C930     1.0000 0.95530  0.45530  0.24690  Biso   1.000  C
  Fe92     1.0000 0.87079  0.87079  0.68684  Biso   1.000  Fe
  O951     1.0000 0.96670  0.96670  0.77100  Biso   1.000  O
  O952     1.0000 0.96040  0.96040  0.71940  Biso   1.000  O
  C931     1.0000 0.92939  0.92939  0.75210  Biso   1.000  C
  C932     1.0000 0.91512  0.91512  0.72514  Biso   1.000  C
  H749     1.0000 0.92155  0.92155  0.70400  Biso   1.000  H
  N92      1.0000 0.89145  0.89145  0.72909  Biso   1.000  N
  C933     1.0000 0.88204  0.88204  0.76005  Biso   1.000  C
  H750     1.0000 0.86590  0.86590  0.76270  Biso   1.000  H
  C934     1.0000 0.89629  0.89629  0.78704  Biso   1.000  C
  H751     1.0000 0.88990  0.88990  0.80820  Biso   1.000  H
  C935     1.0000 0.91995  0.91996  0.78309  Biso   1.000  C
  H752     1.0000 0.92970  0.92970  0.80150  Biso   1.000  H
  C936     1.0000 0.95530  0.95530  0.74690  Biso   1.000  C
  Fe93     1.0000 0.37079  0.62921  0.31316  Biso   1.000  Fe
  O953     1.0000 0.46670  0.53330  0.22900  Biso   1.000  O
  O954     1.0000 0.46040  0.53960  0.28060  Biso   1.000  O
  C937     1.0000 0.42939  0.57061  0.24790  Biso   1.000  C
  C938     1.0000 0.41512  0.58488  0.27486  Biso   1.000  C
  H753     1.0000 0.42155  0.57845  0.29600  Biso   1.000  H
  N93      1.0000 0.39145  0.60855  0.27091  Biso   1.000  N
  C939     1.0000 0.38204  0.61796  0.23995  Biso   1.000  C
  H754     1.0000 0.36590  0.63410  0.23730  Biso   1.000  H
  C940     1.0000 0.39629  0.60371  0.21296  Biso   1.000  C
  H755     1.0000 0.38990  0.61010  0.19180  Biso   1.000  H
  C941     1.0000 0.41995  0.58005  0.21691  Biso   1.000  C
  H756     1.0000 0.42970  0.57030  0.19850  Biso   1.000  H
  C942     1.0000 0.45530  0.54470  0.25310  Biso   1.000  C
  Fe94     1.0000 0.37079  0.12921  0.81316  Biso   1.000  Fe
  O955     1.0000 0.46670  0.03330  0.72900  Biso   1.000  O
  O956     1.0000 0.46040  0.03960  0.78060  Biso   1.000  O
  C943     1.0000 0.42939  0.07061  0.74790  Biso   1.000  C
  C944     1.0000 0.41512  0.08488  0.77486  Biso   1.000  C
  H757     1.0000 0.42155  0.07845  0.79600  Biso   1.000  H
  N94      1.0000 0.39145  0.10855  0.77091  Biso   1.000  N
  C945     1.0000 0.38204  0.11796  0.73995  Biso   1.000  C
  H758     1.0000 0.36590  0.13410  0.73730  Biso   1.000  H
  C946     1.0000 0.39629  0.10371  0.71296  Biso   1.000  C
  H759     1.0000 0.38990  0.11010  0.69180  Biso   1.000  H
  C947     1.0000 0.41995  0.08005  0.71691  Biso   1.000  C
  H760     1.0000 0.42970  0.07030  0.69850  Biso   1.000  H
  C948     1.0000 0.45530  0.04470  0.75310  Biso   1.000  C
  Fe95     1.0000 0.87079  0.62921  0.81316  Biso   1.000  Fe
  O957     1.0000 0.96670  0.53330  0.72900  Biso   1.000  O
  O958     1.0000 0.96040  0.53960  0.78060  Biso   1.000  O
  C949     1.0000 0.92939  0.57061  0.74790  Biso   1.000  C
  C950     1.0000 0.91512  0.58488  0.77486  Biso   1.000  C
  H761     1.0000 0.92155  0.57845  0.79600  Biso   1.000  H
  N95      1.0000 0.89145  0.60855  0.77091  Biso   1.000  N
  C951     1.0000 0.88204  0.61796  0.73995  Biso   1.000  C
  H762     1.0000 0.86590  0.63410  0.73730  Biso   1.000  H
  C952     1.0000 0.89629  0.60371  0.71296  Biso   1.000  C
  H763     1.0000 0.88990  0.61010  0.69180  Biso   1.000  H
  C953     1.0000 0.91995  0.58005  0.71691  Biso   1.000  C
  H764     1.0000 0.92970  0.57030  0.69850  Biso   1.000  H
  C954     1.0000 0.95530  0.54470  0.75310  Biso   1.000  C
  Fe96     1.0000 0.87079  0.12921  0.31316  Biso   1.000  Fe
  O959     1.0000 0.96670  0.03330  0.22900  Biso   1.000  O
  O960     1.0000 0.96040  0.03960  0.28060  Biso   1.000  O
  C955     1.0000 0.92939  0.07061  0.24790  Biso   1.000  C
  C956     1.0000 0.91512  0.08488  0.27486  Biso   1.000  C
  H765     1.0000 0.92155  0.07845  0.29600  Biso   1.000  H
  N96      1.0000 0.89145  0.10855  0.27091  Biso   1.000  N
  C957     1.0000 0.88204  0.11796  0.23995  Biso   1.000  C
  H766     1.0000 0.86590  0.13410  0.23730  Biso   1.000  H
  C958     1.0000 0.89629  0.10371  0.21296  Biso   1.000  C
  H767     1.0000 0.88990  0.11010  0.19180  Biso   1.000  H
  C959     1.0000 0.91995  0.08005  0.21691  Biso   1.000  C
  H768     1.0000 0.92970  0.07030  0.19850  Biso   1.000  H
  C960     1.0000 0.95530  0.04470  0.25310  Biso   1.000  C
  Fe97     1.0000 0.77403  0.50000  0.50000  Biso   1.000  Fe
  Fe98     1.0000 0.77403  0.00000  0.00000  Biso   1.000  Fe
  Fe99     1.0000 0.27403  0.50000  0.00000  Biso   1.000  Fe
  Fe100    1.0000 0.27403  0.00000  0.50000  Biso   1.000  Fe
  Fe101    1.0000 0.22597  0.50000  0.50000  Biso   1.000  Fe
  Fe102    1.0000 0.22597  0.00000  0.00000  Biso   1.000  Fe
  Fe103    1.0000 0.72597  0.50000  0.00000  Biso   1.000  Fe
  Fe104    1.0000 0.72597  0.00000  0.50000  Biso   1.000  Fe
  Fe105    1.0000 0.50000  0.77403  0.50000  Biso   1.000  Fe
  Fe106    1.0000 0.50000  0.27403  0.00000  Biso   1.000  Fe
  Fe107    1.0000 0.00000  0.77403  0.00000  Biso   1.000  Fe
  Fe108    1.0000 0.00000  0.27403  0.50000  Biso   1.000  Fe
  Fe109    1.0000 0.50000  0.22597  0.50000  Biso   1.000  Fe
  Fe110    1.0000 0.50000  0.72597  0.00000  Biso   1.000  Fe
  Fe111    1.0000 0.00000  0.22597  0.00000  Biso   1.000  Fe
  Fe112    1.0000 0.00000  0.72597  0.50000  Biso   1.000  Fe
  Fe113    1.0000 0.50000  0.50000  0.77403  Biso   1.000  Fe
  Fe114    1.0000 0.50000  0.00000  0.27403  Biso   1.000  Fe
  Fe115    1.0000 0.00000  0.50000  0.27403  Biso   1.000  Fe
  Fe116    1.0000 0.00000  0.00000  0.77403  Biso   1.000  Fe
  Fe117    1.0000 0.50000  0.50000  0.22597  Biso   1.000  Fe
  Fe118    1.0000 0.50000  0.00000  0.72597  Biso   1.000  Fe
  Fe119    1.0000 0.00000  0.50000  0.72597  Biso   1.000  Fe
  Fe120    1.0000 0.00000  0.00000  0.22597  Biso   1.000  Fe
  O961     1.0000 0.64864  0.35136  0.64864  Biso   1.000  O
  O962     1.0000 0.64864  0.85136  0.14864  Biso   1.000  O
  O963     1.0000 0.14864  0.35136  0.14864  Biso   1.000  O
  O964     1.0000 0.14864  0.85136  0.64864  Biso   1.000  O
  O965     1.0000 0.35136  0.64864  0.64864  Biso   1.000  O
  O966     1.0000 0.35136  0.14864  0.14864  Biso   1.000  O
  O967     1.0000 0.85136  0.64864  0.14864  Biso   1.000  O
  O968     1.0000 0.85136  0.14864  0.64864  Biso   1.000  O
  O969     1.0000 0.35136  0.35136  0.35136  Biso   1.000  O
  O970     1.0000 0.35136  0.85136  0.85136  Biso   1.000  O
  O971     1.0000 0.85136  0.35136  0.85136  Biso   1.000  O
  O972     1.0000 0.85136  0.85136  0.35136  Biso   1.000  O
  O973     1.0000 0.64864  0.64864  0.35136  Biso   1.000  O
  O974     1.0000 0.64864  0.14864  0.85136  Biso   1.000  O
  O975     1.0000 0.14864  0.64864  0.85136  Biso   1.000  O
  O976     1.0000 0.14864  0.14864  0.35136  Biso   1.000  O
  O977     1.0000 0.35136  0.64864  0.35136  Biso   1.000  O
  O978     1.0000 0.35136  0.14864  0.85136  Biso   1.000  O
  O979     1.0000 0.85136  0.64864  0.85136  Biso   1.000  O
  O980     1.0000 0.85136  0.14864  0.35136  Biso   1.000  O
  O981     1.0000 0.64864  0.35136  0.35136  Biso   1.000  O
  O982     1.0000 0.64864  0.85136  0.85136  Biso   1.000  O
  O983     1.0000 0.14864  0.35136  0.85136  Biso   1.000  O
  O984     1.0000 0.14864  0.85136  0.35136  Biso   1.000  O
  O985     1.0000 0.35136  0.35136  0.64864  Biso   1.000  O
  O986     1.0000 0.35136  0.85136  0.14864  Biso   1.000  O
  O987     1.0000 0.85136  0.35136  0.14864  Biso   1.000  O
  O988     1.0000 0.85136  0.85136  0.64864  Biso   1.000  O
  O989     1.0000 0.64864  0.64864  0.64864  Biso   1.000  O
  O990     1.0000 0.64864  0.14864  0.14864  Biso   1.000  O
  O991     1.0000 0.14864  0.64864  0.14864  Biso   1.000  O
  O992     1.0000 0.14864  0.14864  0.64864  Biso   1.000  O
  C961     1.0000 0.70083  0.37662  0.70083  Biso   1.000  C
  C962     1.0000 0.72646  0.37600  0.72646  Biso   1.000  C
  C963     1.0000 0.65005  0.43030  0.65005  Biso   1.000  C
  C964     1.0000 0.64839  0.46631  0.64839  Biso   1.000  C
  C965     1.0000 0.70083  0.87662  0.20083  Biso   1.000  C
  C966     1.0000 0.72646  0.87600  0.22646  Biso   1.000  C
  C967     1.0000 0.65005  0.93030  0.15005  Biso   1.000  C
  C968     1.0000 0.64839  0.96631  0.14839  Biso   1.000  C
  C969     1.0000 0.20083  0.37662  0.20083  Biso   1.000  C
  C970     1.0000 0.22646  0.37600  0.22646  Biso   1.000  C
  C971     1.0000 0.15005  0.43030  0.15005  Biso   1.000  C
  C972     1.0000 0.14839  0.46631  0.14839  Biso   1.000  C
  C973     1.0000 0.20083  0.87662  0.70083  Biso   1.000  C
  C974     1.0000 0.22646  0.87600  0.72646  Biso   1.000  C
  C975     1.0000 0.15005  0.93030  0.65005  Biso   1.000  C
  C976     1.0000 0.14839  0.96631  0.64839  Biso   1.000  C
  C977     1.0000 0.29917  0.62338  0.70083  Biso   1.000  C
  C978     1.0000 0.27354  0.62400  0.72646  Biso   1.000  C
  C979     1.0000 0.34995  0.56970  0.65005  Biso   1.000  C
  C980     1.0000 0.35161  0.53369  0.64839  Biso   1.000  C
  C981     1.0000 0.29917  0.12338  0.20083  Biso   1.000  C
  C982     1.0000 0.27354  0.12400  0.22646  Biso   1.000  C
  C983     1.0000 0.34995  0.06970  0.15005  Biso   1.000  C
  C984     1.0000 0.35161  0.03369  0.14839  Biso   1.000  C
  C985     1.0000 0.79917  0.62338  0.20083  Biso   1.000  C
  C986     1.0000 0.77354  0.62400  0.22646  Biso   1.000  C
  C987     1.0000 0.84995  0.56970  0.15005  Biso   1.000  C
  C988     1.0000 0.85161  0.53369  0.14839  Biso   1.000  C
  C989     1.0000 0.79917  0.12338  0.70083  Biso   1.000  C
  C990     1.0000 0.77354  0.12400  0.72646  Biso   1.000  C
  C991     1.0000 0.84995  0.06970  0.65005  Biso   1.000  C
  C992     1.0000 0.85161  0.03369  0.64839  Biso   1.000  C
  C993     1.0000 0.29917  0.37662  0.29917  Biso   1.000  C
  C994     1.0000 0.27354  0.37600  0.27354  Biso   1.000  C
  C995     1.0000 0.34995  0.43030  0.34995  Biso   1.000  C
  C996     1.0000 0.35161  0.46631  0.35161  Biso   1.000  C
  C997     1.0000 0.29917  0.87662  0.79917  Biso   1.000  C
  C998     1.0000 0.27354  0.87600  0.77354  Biso   1.000  C
  C999     1.0000 0.34995  0.93030  0.84995  Biso   1.000  C
  C1000    1.0000 0.35161  0.96631  0.85161  Biso   1.000  C
  C1001    1.0000 0.79917  0.37662  0.79917  Biso   1.000  C
  C1002    1.0000 0.77354  0.37600  0.77354  Biso   1.000  C
  C1003    1.0000 0.84995  0.43030  0.84995  Biso   1.000  C
  C1004    1.0000 0.85161  0.46631  0.85161  Biso   1.000  C
  C1005    1.0000 0.79917  0.87662  0.29917  Biso   1.000  C
  C1006    1.0000 0.77354  0.87600  0.27354  Biso   1.000  C
  C1007    1.0000 0.84995  0.93030  0.34995  Biso   1.000  C
  C1008    1.0000 0.85161  0.96631  0.35161  Biso   1.000  C
  C1009    1.0000 0.70083  0.62338  0.29917  Biso   1.000  C
  C1010    1.0000 0.72646  0.62400  0.27354  Biso   1.000  C
  C1011    1.0000 0.65005  0.56970  0.34995  Biso   1.000  C
  C1012    1.0000 0.64839  0.53369  0.35161  Biso   1.000  C
  C1013    1.0000 0.70083  0.12338  0.79917  Biso   1.000  C
  C1014    1.0000 0.72646  0.12400  0.77354  Biso   1.000  C
  C1015    1.0000 0.65005  0.06970  0.84995  Biso   1.000  C
  C1016    1.0000 0.64839  0.03369  0.85161  Biso   1.000  C
  C1017    1.0000 0.20083  0.62338  0.79917  Biso   1.000  C
  C1018    1.0000 0.22646  0.62400  0.77354  Biso   1.000  C
  C1019    1.0000 0.15005  0.56970  0.84995  Biso   1.000  C
  C1020    1.0000 0.14839  0.53369  0.85161  Biso   1.000  C
  C1021    1.0000 0.20083  0.12338  0.29917  Biso   1.000  C
  C1022    1.0000 0.22646  0.12400  0.27354  Biso   1.000  C
  C1023    1.0000 0.15005  0.06970  0.34995  Biso   1.000  C
  C1024    1.0000 0.14839  0.03369  0.35161  Biso   1.000  C
  C1025    1.0000 0.70083  0.70083  0.37662  Biso   1.000  C
  C1026    1.0000 0.72646  0.72646  0.37600  Biso   1.000  C
  C1027    1.0000 0.65005  0.65005  0.43030  Biso   1.000  C
  C1028    1.0000 0.64839  0.64839  0.46631  Biso   1.000  C
  C1029    1.0000 0.70083  0.20083  0.87662  Biso   1.000  C
  C1030    1.0000 0.72646  0.22646  0.87600  Biso   1.000  C
  C1031    1.0000 0.65005  0.15005  0.93030  Biso   1.000  C
  C1032    1.0000 0.64839  0.14839  0.96631  Biso   1.000  C
  C1033    1.0000 0.20083  0.70083  0.87662  Biso   1.000  C
  C1034    1.0000 0.22646  0.72646  0.87600  Biso   1.000  C
  C1035    1.0000 0.15005  0.65005  0.93030  Biso   1.000  C
  C1036    1.0000 0.14839  0.64839  0.96631  Biso   1.000  C
  C1037    1.0000 0.20083  0.20083  0.37662  Biso   1.000  C
  C1038    1.0000 0.22646  0.22646  0.37600  Biso   1.000  C
  C1039    1.0000 0.15005  0.15005  0.43030  Biso   1.000  C
  C1040    1.0000 0.14839  0.14839  0.46631  Biso   1.000  C
  C1041    1.0000 0.70083  0.29917  0.62338  Biso   1.000  C
  C1042    1.0000 0.72646  0.27354  0.62400  Biso   1.000  C
  C1043    1.0000 0.65005  0.34995  0.56970  Biso   1.000  C
  C1044    1.0000 0.64839  0.35161  0.53369  Biso   1.000  C
  C1045    1.0000 0.70083  0.79917  0.12338  Biso   1.000  C
  C1046    1.0000 0.72646  0.77354  0.12400  Biso   1.000  C
  C1047    1.0000 0.65005  0.84995  0.06970  Biso   1.000  C
  C1048    1.0000 0.64839  0.85161  0.03369  Biso   1.000  C
  C1049    1.0000 0.20083  0.29917  0.12338  Biso   1.000  C
  C1050    1.0000 0.22646  0.27354  0.12400  Biso   1.000  C
  C1051    1.0000 0.15005  0.34995  0.06970  Biso   1.000  C
  C1052    1.0000 0.14839  0.35161  0.03369  Biso   1.000  C
  C1053    1.0000 0.20083  0.79917  0.62338  Biso   1.000  C
  C1054    1.0000 0.22646  0.77354  0.62400  Biso   1.000  C
  C1055    1.0000 0.15005  0.84995  0.56970  Biso   1.000  C
  C1056    1.0000 0.14839  0.85161  0.53369  Biso   1.000  C
  C1057    1.0000 0.29917  0.29917  0.37662  Biso   1.000  C
  C1058    1.0000 0.27354  0.27354  0.37600  Biso   1.000  C
  C1059    1.0000 0.34995  0.34995  0.43030  Biso   1.000  C
  C1060    1.0000 0.35161  0.35161  0.46631  Biso   1.000  C
  C1061    1.0000 0.29917  0.79917  0.87662  Biso   1.000  C
  C1062    1.0000 0.27354  0.77354  0.87600  Biso   1.000  C
  C1063    1.0000 0.34995  0.84995  0.93030  Biso   1.000  C
  C1064    1.0000 0.35161  0.85161  0.96631  Biso   1.000  C
  C1065    1.0000 0.79917  0.29917  0.87662  Biso   1.000  C
  C1066    1.0000 0.77354  0.27354  0.87600  Biso   1.000  C
  C1067    1.0000 0.84995  0.34995  0.93030  Biso   1.000  C
  C1068    1.0000 0.85161  0.35161  0.96631  Biso   1.000  C
  C1069    1.0000 0.79917  0.79917  0.37662  Biso   1.000  C
  C1070    1.0000 0.77354  0.77354  0.37600  Biso   1.000  C
  C1071    1.0000 0.84995  0.84995  0.43030  Biso   1.000  C
  C1072    1.0000 0.85161  0.85161  0.46631  Biso   1.000  C
  C1073    1.0000 0.29917  0.70083  0.62338  Biso   1.000  C
  C1074    1.0000 0.27354  0.72646  0.62400  Biso   1.000  C
  C1075    1.0000 0.34995  0.65005  0.56970  Biso   1.000  C
  C1076    1.0000 0.35161  0.64839  0.53369  Biso   1.000  C
  C1077    1.0000 0.29917  0.20083  0.12338  Biso   1.000  C
  C1078    1.0000 0.27354  0.22646  0.12400  Biso   1.000  C
  C1079    1.0000 0.34995  0.15005  0.06970  Biso   1.000  C
  C1080    1.0000 0.35161  0.14839  0.03369  Biso   1.000  C
  C1081    1.0000 0.79917  0.70083  0.12338  Biso   1.000  C
  C1082    1.0000 0.77354  0.72646  0.12400  Biso   1.000  C
  C1083    1.0000 0.84995  0.65005  0.06970  Biso   1.000  C
  C1084    1.0000 0.85161  0.64839  0.03369  Biso   1.000  C
  C1085    1.0000 0.79917  0.20083  0.62338  Biso   1.000  C
  C1086    1.0000 0.77354  0.22646  0.62400  Biso   1.000  C
  C1087    1.0000 0.84995  0.15005  0.56970  Biso   1.000  C
  C1088    1.0000 0.85161  0.14839  0.53369  Biso   1.000  C
  C1089    1.0000 0.37662  0.70083  0.70083  Biso   1.000  C
  C1090    1.0000 0.37600  0.72646  0.72646  Biso   1.000  C
  C1091    1.0000 0.43030  0.65005  0.65005  Biso   1.000  C
  C1092    1.0000 0.46631  0.64839  0.64839  Biso   1.000  C
  C1093    1.0000 0.37662  0.20083  0.20083  Biso   1.000  C
  C1094    1.0000 0.37600  0.22646  0.22646  Biso   1.000  C
  C1095    1.0000 0.43030  0.15005  0.15005  Biso   1.000  C
  C1096    1.0000 0.46631  0.14839  0.14839  Biso   1.000  C
  C1097    1.0000 0.87662  0.70083  0.20083  Biso   1.000  C
  C1098    1.0000 0.87600  0.72646  0.22646  Biso   1.000  C
  C1099    1.0000 0.93030  0.65005  0.15005  Biso   1.000  C
  C1100    1.0000 0.96631  0.64839  0.14839  Biso   1.000  C
  C1101    1.0000 0.87662  0.20083  0.70083  Biso   1.000  C
  C1102    1.0000 0.87600  0.22646  0.72646  Biso   1.000  C
  C1103    1.0000 0.93030  0.15005  0.65005  Biso   1.000  C
  C1104    1.0000 0.96631  0.14839  0.64839  Biso   1.000  C
  C1105    1.0000 0.62338  0.70083  0.29917  Biso   1.000  C
  C1106    1.0000 0.62400  0.72646  0.27354  Biso   1.000  C
  C1107    1.0000 0.56970  0.65005  0.34995  Biso   1.000  C
  C1108    1.0000 0.53369  0.64839  0.35161  Biso   1.000  C
  C1109    1.0000 0.62338  0.20083  0.79917  Biso   1.000  C
  C1110    1.0000 0.62400  0.22646  0.77354  Biso   1.000  C
  C1111    1.0000 0.56970  0.15005  0.84995  Biso   1.000  C
  C1112    1.0000 0.53369  0.14839  0.85161  Biso   1.000  C
  C1113    1.0000 0.12338  0.70083  0.79917  Biso   1.000  C
  C1114    1.0000 0.12400  0.72646  0.77354  Biso   1.000  C
  C1115    1.0000 0.06970  0.65005  0.84995  Biso   1.000  C
  C1116    1.0000 0.03369  0.64839  0.85161  Biso   1.000  C
  C1117    1.0000 0.12338  0.20083  0.29917  Biso   1.000  C
  C1118    1.0000 0.12400  0.22646  0.27354  Biso   1.000  C
  C1119    1.0000 0.06970  0.15005  0.34995  Biso   1.000  C
  C1120    1.0000 0.03369  0.14839  0.35161  Biso   1.000  C
  C1121    1.0000 0.37662  0.29917  0.29917  Biso   1.000  C
  C1122    1.0000 0.37600  0.27354  0.27354  Biso   1.000  C
  C1123    1.0000 0.43030  0.34995  0.34995  Biso   1.000  C
  C1124    1.0000 0.46631  0.35161  0.35161  Biso   1.000  C
  C1125    1.0000 0.37662  0.79917  0.79917  Biso   1.000  C
  C1126    1.0000 0.37600  0.77354  0.77354  Biso   1.000  C
  C1127    1.0000 0.43030  0.84995  0.84995  Biso   1.000  C
  C1128    1.0000 0.46631  0.85161  0.85161  Biso   1.000  C
  C1129    1.0000 0.87662  0.29917  0.79917  Biso   1.000  C
  C1130    1.0000 0.87600  0.27354  0.77354  Biso   1.000  C
  C1131    1.0000 0.93030  0.34995  0.84995  Biso   1.000  C
  C1132    1.0000 0.96631  0.35161  0.85161  Biso   1.000  C
  C1133    1.0000 0.87662  0.79917  0.29917  Biso   1.000  C
  C1134    1.0000 0.87600  0.77354  0.27354  Biso   1.000  C
  C1135    1.0000 0.93030  0.84995  0.34995  Biso   1.000  C
  C1136    1.0000 0.96631  0.85161  0.35161  Biso   1.000  C
  C1137    1.0000 0.62338  0.29917  0.70083  Biso   1.000  C
  C1138    1.0000 0.62400  0.27354  0.72646  Biso   1.000  C
  C1139    1.0000 0.56970  0.34995  0.65005  Biso   1.000  C
  C1140    1.0000 0.53369  0.35161  0.64839  Biso   1.000  C
  C1141    1.0000 0.62338  0.79917  0.20083  Biso   1.000  C
  C1142    1.0000 0.62400  0.77354  0.22646  Biso   1.000  C
  C1143    1.0000 0.56970  0.84995  0.15005  Biso   1.000  C
  C1144    1.0000 0.53369  0.85161  0.14839  Biso   1.000  C
  C1145    1.0000 0.12338  0.29917  0.20083  Biso   1.000  C
  C1146    1.0000 0.12400  0.27354  0.22646  Biso   1.000  C
  C1147    1.0000 0.06970  0.34995  0.15005  Biso   1.000  C
  C1148    1.0000 0.03369  0.35161  0.14839  Biso   1.000  C
  C1149    1.0000 0.12338  0.79917  0.70083  Biso   1.000  C
  C1150    1.0000 0.12400  0.77354  0.72646  Biso   1.000  C
  C1151    1.0000 0.06970  0.84995  0.65005  Biso   1.000  C
  C1152    1.0000 0.03369  0.85161  0.64839  Biso   1.000  C
  C1153    1.0000 0.37662  0.70083  0.29917  Biso   1.000  C
  C1154    1.0000 0.37600  0.72646  0.27354  Biso   1.000  C
  C1155    1.0000 0.43030  0.65005  0.34995  Biso   1.000  C
  C1156    1.0000 0.46631  0.64839  0.35161  Biso   1.000  C
  C1157    1.0000 0.37662  0.20083  0.79917  Biso   1.000  C
  C1158    1.0000 0.37600  0.22646  0.77354  Biso   1.000  C
  C1159    1.0000 0.43030  0.15005  0.84995  Biso   1.000  C
  C1160    1.0000 0.46631  0.14839  0.85161  Biso   1.000  C
  C1161    1.0000 0.87662  0.70083  0.79917  Biso   1.000  C
  C1162    1.0000 0.87600  0.72646  0.77354  Biso   1.000  C
  C1163    1.0000 0.93030  0.65005  0.84995  Biso   1.000  C
  C1164    1.0000 0.96631  0.64839  0.85161  Biso   1.000  C
  C1165    1.0000 0.87662  0.20083  0.29917  Biso   1.000  C
  C1166    1.0000 0.87600  0.22646  0.27354  Biso   1.000  C
  C1167    1.0000 0.93030  0.15005  0.34995  Biso   1.000  C
  C1168    1.0000 0.96631  0.14839  0.35161  Biso   1.000  C
  C1169    1.0000 0.62338  0.29917  0.29917  Biso   1.000  C
  C1170    1.0000 0.62400  0.27354  0.27354  Biso   1.000  C
  C1171    1.0000 0.56970  0.34995  0.34995  Biso   1.000  C
  C1172    1.0000 0.53369  0.35161  0.35161  Biso   1.000  C
  C1173    1.0000 0.62338  0.79917  0.79917  Biso   1.000  C
  C1174    1.0000 0.62400  0.77354  0.77354  Biso   1.000  C
  C1175    1.0000 0.56970  0.84995  0.84995  Biso   1.000  C
  C1176    1.0000 0.53369  0.85161  0.85161  Biso   1.000  C
  C1177    1.0000 0.12338  0.29917  0.79917  Biso   1.000  C
  C1178    1.0000 0.12400  0.27354  0.77354  Biso   1.000  C
  C1179    1.0000 0.06970  0.34995  0.84995  Biso   1.000  C
  C1180    1.0000 0.03369  0.35161  0.85161  Biso   1.000  C
  C1181    1.0000 0.12338  0.79917  0.29917  Biso   1.000  C
  C1182    1.0000 0.12400  0.77354  0.27354  Biso   1.000  C
  C1183    1.0000 0.06970  0.84995  0.34995  Biso   1.000  C
  C1184    1.0000 0.03369  0.85161  0.35161  Biso   1.000  C
  C1185    1.0000 0.37662  0.29917  0.70083  Biso   1.000  C
  C1186    1.0000 0.37600  0.27354  0.72646  Biso   1.000  C
  C1187    1.0000 0.43030  0.34995  0.65005  Biso   1.000  C
  C1188    1.0000 0.46631  0.35161  0.64839  Biso   1.000  C
  C1189    1.0000 0.37662  0.79917  0.20083  Biso   1.000  C
  C1190    1.0000 0.37600  0.77354  0.22646  Biso   1.000  C
  C1191    1.0000 0.43030  0.84995  0.15005  Biso   1.000  C
  C1192    1.0000 0.46631  0.85161  0.14839  Biso   1.000  C
  C1193    1.0000 0.87662  0.29917  0.20083  Biso   1.000  C
  C1194    1.0000 0.87600  0.27354  0.22646  Biso   1.000  C
  C1195    1.0000 0.93030  0.34995  0.15005  Biso   1.000  C
  C1196    1.0000 0.96631  0.35161  0.14839  Biso   1.000  C
  C1197    1.0000 0.87662  0.79917  0.70083  Biso   1.000  C
  C1198    1.0000 0.87600  0.77354  0.72646  Biso   1.000  C
  C1199    1.0000 0.93030  0.84995  0.65005  Biso   1.000  C
  C1200    1.0000 0.96631  0.85161  0.64839  Biso   1.000  C
  C1201    1.0000 0.62338  0.70083  0.70083  Biso   1.000  C
  C1202    1.0000 0.62400  0.72646  0.72646  Biso   1.000  C
  C1203    1.0000 0.56970  0.65005  0.65005  Biso   1.000  C
  C1204    1.0000 0.53369  0.64839  0.64839  Biso   1.000  C
  C1205    1.0000 0.62338  0.20083  0.20083  Biso   1.000  C
  C1206    1.0000 0.62400  0.22646  0.22646  Biso   1.000  C
  C1207    1.0000 0.56970  0.15005  0.15005  Biso   1.000  C
  C1208    1.0000 0.53369  0.14839  0.14839  Biso   1.000  C
  C1209    1.0000 0.12338  0.70083  0.20083  Biso   1.000  C
  C1210    1.0000 0.12400  0.72646  0.22646  Biso   1.000  C
  C1211    1.0000 0.06970  0.65005  0.15005  Biso   1.000  C
  C1212    1.0000 0.03369  0.64839  0.14839  Biso   1.000  C
  C1213    1.0000 0.12338  0.20083  0.70083  Biso   1.000  C
  C1214    1.0000 0.12400  0.22646  0.72646  Biso   1.000  C
  C1215    1.0000 0.06970  0.15005  0.65005  Biso   1.000  C
  C1216    1.0000 0.03369  0.14839  0.64839  Biso   1.000  C
  C1217    1.0000 0.70083  0.70083  0.62338  Biso   1.000  C
  C1218    1.0000 0.72646  0.72646  0.62400  Biso   1.000  C
  C1219    1.0000 0.65005  0.65005  0.56970  Biso   1.000  C
  C1220    1.0000 0.64839  0.64839  0.53369  Biso   1.000  C
  C1221    1.0000 0.70083  0.20083  0.12338  Biso   1.000  C
  C1222    1.0000 0.72646  0.22646  0.12400  Biso   1.000  C
  C1223    1.0000 0.65005  0.15005  0.06970  Biso   1.000  C
  C1224    1.0000 0.64839  0.14839  0.03369  Biso   1.000  C
  C1225    1.0000 0.20083  0.70083  0.12338  Biso   1.000  C
  C1226    1.0000 0.22646  0.72646  0.12400  Biso   1.000  C
  C1227    1.0000 0.15005  0.65005  0.06970  Biso   1.000  C
  C1228    1.0000 0.14839  0.64839  0.03369  Biso   1.000  C
  C1229    1.0000 0.20083  0.20083  0.62338  Biso   1.000  C
  C1230    1.0000 0.22646  0.22646  0.62400  Biso   1.000  C
  C1231    1.0000 0.15005  0.15005  0.56970  Biso   1.000  C
  C1232    1.0000 0.14839  0.14839  0.53369  Biso   1.000  C
  C1233    1.0000 0.29917  0.70083  0.37662  Biso   1.000  C
  C1234    1.0000 0.27354  0.72646  0.37600  Biso   1.000  C
  C1235    1.0000 0.34995  0.65005  0.43030  Biso   1.000  C
  C1236    1.0000 0.35161  0.64839  0.46631  Biso   1.000  C
  C1237    1.0000 0.29917  0.20083  0.87662  Biso   1.000  C
  C1238    1.0000 0.27354  0.22646  0.87600  Biso   1.000  C
  C1239    1.0000 0.34995  0.15005  0.93030  Biso   1.000  C
  C1240    1.0000 0.35161  0.14839  0.96631  Biso   1.000  C
  C1241    1.0000 0.79917  0.70083  0.87662  Biso   1.000  C
  C1242    1.0000 0.77354  0.72646  0.87600  Biso   1.000  C
  C1243    1.0000 0.84995  0.65005  0.93030  Biso   1.000  C
  C1244    1.0000 0.85161  0.64839  0.96631  Biso   1.000  C
  C1245    1.0000 0.79917  0.20083  0.37662  Biso   1.000  C
  C1246    1.0000 0.77354  0.22646  0.37600  Biso   1.000  C
  C1247    1.0000 0.84995  0.15005  0.43030  Biso   1.000  C
  C1248    1.0000 0.85161  0.14839  0.46631  Biso   1.000  C
  C1249    1.0000 0.29917  0.29917  0.62338  Biso   1.000  C
  C1250    1.0000 0.27354  0.27354  0.62400  Biso   1.000  C
  C1251    1.0000 0.34995  0.34995  0.56970  Biso   1.000  C
  C1252    1.0000 0.35161  0.35161  0.53369  Biso   1.000  C
  C1253    1.0000 0.29917  0.79917  0.12338  Biso   1.000  C
  C1254    1.0000 0.27354  0.77354  0.12400  Biso   1.000  C
  C1255    1.0000 0.34995  0.84995  0.06970  Biso   1.000  C
  C1256    1.0000 0.35161  0.85161  0.03369  Biso   1.000  C
  C1257    1.0000 0.79917  0.29917  0.12338  Biso   1.000  C
  C1258    1.0000 0.77354  0.27354  0.12400  Biso   1.000  C
  C1259    1.0000 0.84995  0.34995  0.06970  Biso   1.000  C
  C1260    1.0000 0.85161  0.35161  0.03369  Biso   1.000  C
  C1261    1.0000 0.79917  0.79917  0.62338  Biso   1.000  C
  C1262    1.0000 0.77354  0.77354  0.62400  Biso   1.000  C
  C1263    1.0000 0.84995  0.84995  0.56970  Biso   1.000  C
  C1264    1.0000 0.85161  0.85161  0.53369  Biso   1.000  C
  C1265    1.0000 0.70083  0.29917  0.37662  Biso   1.000  C
  C1266    1.0000 0.72646  0.27354  0.37600  Biso   1.000  C
  C1267    1.0000 0.65005  0.34995  0.43030  Biso   1.000  C
  C1268    1.0000 0.64839  0.35161  0.46631  Biso   1.000  C
  C1269    1.0000 0.70083  0.79917  0.87662  Biso   1.000  C
  C1270    1.0000 0.72646  0.77354  0.87600  Biso   1.000  C
  C1271    1.0000 0.65005  0.84995  0.93030  Biso   1.000  C
  C1272    1.0000 0.64839  0.85161  0.96631  Biso   1.000  C
  C1273    1.0000 0.20083  0.29917  0.87662  Biso   1.000  C
  C1274    1.0000 0.22646  0.27354  0.87600  Biso   1.000  C
  C1275    1.0000 0.15005  0.34995  0.93030  Biso   1.000  C
  C1276    1.0000 0.14839  0.35161  0.96631  Biso   1.000  C
  C1277    1.0000 0.20083  0.79917  0.37662  Biso   1.000  C
  C1278    1.0000 0.22646  0.77354  0.37600  Biso   1.000  C
  C1279    1.0000 0.15005  0.84995  0.43030  Biso   1.000  C
  C1280    1.0000 0.14839  0.85161  0.46631  Biso   1.000  C
  C1281    1.0000 0.70083  0.37662  0.29917  Biso   1.000  C
  C1282    1.0000 0.72646  0.37600  0.27354  Biso   1.000  C
  C1283    1.0000 0.65005  0.43030  0.34995  Biso   1.000  C
  C1284    1.0000 0.64839  0.46631  0.35161  Biso   1.000  C
  C1285    1.0000 0.70083  0.87662  0.79917  Biso   1.000  C
  C1286    1.0000 0.72646  0.87600  0.77354  Biso   1.000  C
  C1287    1.0000 0.65005  0.93030  0.84995  Biso   1.000  C
  C1288    1.0000 0.64839  0.96631  0.85161  Biso   1.000  C
  C1289    1.0000 0.20083  0.37662  0.79917  Biso   1.000  C
  C1290    1.0000 0.22646  0.37600  0.77354  Biso   1.000  C
  C1291    1.0000 0.15005  0.43030  0.84995  Biso   1.000  C
  C1292    1.0000 0.14839  0.46631  0.85161  Biso   1.000  C
  C1293    1.0000 0.20083  0.87662  0.29917  Biso   1.000  C
  C1294    1.0000 0.22646  0.87600  0.27354  Biso   1.000  C
  C1295    1.0000 0.15005  0.93030  0.34995  Biso   1.000  C
  C1296    1.0000 0.14839  0.96631  0.35161  Biso   1.000  C
  C1297    1.0000 0.70083  0.62338  0.70083  Biso   1.000  C
  C1298    1.0000 0.72646  0.62400  0.72646  Biso   1.000  C
  C1299    1.0000 0.65005  0.56970  0.65005  Biso   1.000  C
  C1300    1.0000 0.64839  0.53369  0.64839  Biso   1.000  C
  C1301    1.0000 0.70083  0.12338  0.20083  Biso   1.000  C
  C1302    1.0000 0.72646  0.12400  0.22646  Biso   1.000  C
  C1303    1.0000 0.65005  0.06970  0.15005  Biso   1.000  C
  C1304    1.0000 0.64839  0.03369  0.14839  Biso   1.000  C
  C1305    1.0000 0.20083  0.62338  0.20083  Biso   1.000  C
  C1306    1.0000 0.22646  0.62400  0.22646  Biso   1.000  C
  C1307    1.0000 0.15005  0.56970  0.15005  Biso   1.000  C
  C1308    1.0000 0.14839  0.53369  0.14839  Biso   1.000  C
  C1309    1.0000 0.20083  0.12338  0.70083  Biso   1.000  C
  C1310    1.0000 0.22646  0.12400  0.72646  Biso   1.000  C
  C1311    1.0000 0.15005  0.06970  0.65005  Biso   1.000  C
  C1312    1.0000 0.14839  0.03369  0.64839  Biso   1.000  C
  C1313    1.0000 0.29917  0.37662  0.70083  Biso   1.000  C
  C1314    1.0000 0.27354  0.37600  0.72646  Biso   1.000  C
  C1315    1.0000 0.34995  0.43030  0.65005  Biso   1.000  C
  C1316    1.0000 0.35161  0.46631  0.64839  Biso   1.000  C
  C1317    1.0000 0.29917  0.87662  0.20083  Biso   1.000  C
  C1318    1.0000 0.27354  0.87600  0.22646  Biso   1.000  C
  C1319    1.0000 0.34995  0.93030  0.15005  Biso   1.000  C
  C1320    1.0000 0.35161  0.96631  0.14839  Biso   1.000  C
  C1321    1.0000 0.79917  0.37662  0.20083  Biso   1.000  C
  C1322    1.0000 0.77354  0.37600  0.22646  Biso   1.000  C
  C1323    1.0000 0.84995  0.43030  0.15005  Biso   1.000  C
  C1324    1.0000 0.85161  0.46631  0.14839  Biso   1.000  C
  C1325    1.0000 0.79917  0.87662  0.70083  Biso   1.000  C
  C1326    1.0000 0.77354  0.87600  0.72646  Biso   1.000  C
  C1327    1.0000 0.84995  0.93030  0.65005  Biso   1.000  C
  C1328    1.0000 0.85161  0.96631  0.64839  Biso   1.000  C
  C1329    1.0000 0.29917  0.62338  0.29917  Biso   1.000  C
  C1330    1.0000 0.27354  0.62400  0.27354  Biso   1.000  C
  C1331    1.0000 0.34995  0.56970  0.34995  Biso   1.000  C
  C1332    1.0000 0.35161  0.53369  0.35161  Biso   1.000  C
  C1333    1.0000 0.29917  0.12338  0.79917  Biso   1.000  C
  C1334    1.0000 0.27354  0.12400  0.77354  Biso   1.000  C
  C1335    1.0000 0.34995  0.06970  0.84995  Biso   1.000  C
  C1336    1.0000 0.35161  0.03369  0.85161  Biso   1.000  C
  C1337    1.0000 0.79917  0.62338  0.79917  Biso   1.000  C
  C1338    1.0000 0.77354  0.62400  0.77354  Biso   1.000  C
  C1339    1.0000 0.84995  0.56970  0.84995  Biso   1.000  C
  C1340    1.0000 0.85161  0.53369  0.85161  Biso   1.000  C
  C1341    1.0000 0.79917  0.12338  0.29917  Biso   1.000  C
  C1342    1.0000 0.77354  0.12400  0.27354  Biso   1.000  C
  C1343    1.0000 0.84995  0.06970  0.34995  Biso   1.000  C
  C1344    1.0000 0.85161  0.03369  0.35161  Biso   1.000  C
