data_image0
_cell_length_a       28.7527
_cell_length_b       28.7527
_cell_length_c       8.194
_cell_angle_alpha    90
_cell_angle_beta     90
_cell_angle_gamma    120

_symmetry_space_group_name_H-M    "P 1"
_symmetry_int_tables_number       1

loop_
  _symmetry_equiv_pos_as_xyz
  'x, y, z'

loop_
  _atom_site_label
  _atom_site_occupancy
  _atom_site_fract_x
  _atom_site_fract_y
  _atom_site_fract_z
  _atom_site_thermal_displace_type
  _atom_site_B_iso_or_equiv
  _atom_site_type_symbol
  O1       1.0000 0.05020  0.64840  0.38900  Biso   1.000  O
  O2       1.0000 0.01400  0.59080  0.18200  Biso   1.000  O
  C1       1.0000 0.03900  0.60570  0.31400  Biso   1.000  C
  C2       1.0000 0.05670  0.56990  0.39000  Biso   1.000  C
  C3       1.0000 0.08730  0.58510  0.53300  Biso   1.000  C
  H1       1.0000 0.09300  0.61100  0.58000  Biso   1.000  H
  C4       1.0000 0.18600  0.56100  0.76000  Biso   1.000  C
  C5       1.0000 0.12700  0.59200  0.88000  Biso   1.000  C
  C6       1.0000 0.21800  0.57700  0.90000  Biso   1.000  C
  H2       1.0000 0.19600  0.54810  0.66230  Biso   1.000  H
  C7       1.0000 0.16300  0.60900  0.02000  Biso   1.000  C
  H3       1.0000 0.09710  0.59760  0.87650  Biso   1.000  H
  H4       1.0000 0.24370  0.56620  0.92190  Biso   1.000  H
  H5       1.0000 0.15470  0.62580  0.10720  Biso   1.000  H
  H6       1.0000 0.01000  0.50700  0.22000  Biso   1.000  H
  O3       1.0000 0.71687  0.98173  0.72233  Biso   1.000  O
  O4       1.0000 0.68067  0.92413  0.51533  Biso   1.000  O
  C8       1.0000 0.70567  0.93903  0.64733  Biso   1.000  C
  C9       1.0000 0.72337  0.90323  0.72333  Biso   1.000  C
  C10      1.0000 0.75397  0.91843  0.86633  Biso   1.000  C
  H7       1.0000 0.75967  0.94433  0.91333  Biso   1.000  H
  C11      1.0000 0.85267  0.89433  0.09333  Biso   1.000  C
  C12      1.0000 0.79367  0.92533  0.21333  Biso   1.000  C
  C13      1.0000 0.88467  0.91033  0.23333  Biso   1.000  C
  H8       1.0000 0.86267  0.88143  0.99563  Biso   1.000  H
  C14      1.0000 0.82967  0.94233  0.35333  Biso   1.000  C
  H9       1.0000 0.76377  0.93093  0.20983  Biso   1.000  H
  H10      1.0000 0.91037  0.89953  0.25523  Biso   1.000  H
  H11      1.0000 0.82137  0.95913  0.44053  Biso   1.000  H
  H12      1.0000 0.67667  0.84033  0.55333  Biso   1.000  H
  O5       1.0000 0.38353  0.31507  0.05567  Biso   1.000  O
  O6       1.0000 0.34733  0.25747  0.84867  Biso   1.000  O
  C15      1.0000 0.37233  0.27237  0.98067  Biso   1.000  C
  C16      1.0000 0.39003  0.23657  0.05667  Biso   1.000  C
  C17      1.0000 0.42063  0.25177  0.19967  Biso   1.000  C
  H13      1.0000 0.42633  0.27767  0.24667  Biso   1.000  H
  C18      1.0000 0.51933  0.22767  0.42667  Biso   1.000  C
  C19      1.0000 0.46033  0.25867  0.54667  Biso   1.000  C
  C20      1.0000 0.55133  0.24367  0.56667  Biso   1.000  C
  H14      1.0000 0.52933  0.21477  0.32897  Biso   1.000  H
  C21      1.0000 0.49633  0.27567  0.68667  Biso   1.000  C
  H15      1.0000 0.43043  0.26427  0.54317  Biso   1.000  H
  H16      1.0000 0.57703  0.23287  0.58857  Biso   1.000  H
  H17      1.0000 0.48803  0.29247  0.77387  Biso   1.000  H
  H18      1.0000 0.34333  0.17367  0.88667  Biso   1.000  H
  O7       1.0000 0.35160  0.40180  0.38900  Biso   1.000  O
  O8       1.0000 0.40920  0.42320  0.18200  Biso   1.000  O
  C22      1.0000 0.39430  0.43330  0.31400  Biso   1.000  C
  C23      1.0000 0.43010  0.48680  0.39000  Biso   1.000  C
  C24      1.0000 0.41490  0.50220  0.53300  Biso   1.000  C
  H19      1.0000 0.38900  0.48200  0.58000  Biso   1.000  H
  C25      1.0000 0.43900  0.62500  0.76000  Biso   1.000  C
  C26      1.0000 0.40800  0.53500  0.88000  Biso   1.000  C
  C27      1.0000 0.42300  0.64100  0.90000  Biso   1.000  C
  H20      1.0000 0.45190  0.64790  0.66230  Biso   1.000  H
  C28      1.0000 0.39100  0.55400  0.02000  Biso   1.000  C
  H21      1.0000 0.40240  0.49950  0.87650  Biso   1.000  H
  H22      1.0000 0.43380  0.67750  0.92190  Biso   1.000  H
  H23      1.0000 0.37420  0.52890  0.10720  Biso   1.000  H
  H24      1.0000 0.49300  0.50300  0.22000  Biso   1.000  H
  O9       1.0000 0.01827  0.73513  0.72233  Biso   1.000  O
  O10      1.0000 0.07587  0.75653  0.51533  Biso   1.000  O
  C29      1.0000 0.06097  0.76663  0.64733  Biso   1.000  C
  C30      1.0000 0.09677  0.82013  0.72333  Biso   1.000  C
  C31      1.0000 0.08157  0.83553  0.86633  Biso   1.000  C
  H25      1.0000 0.05567  0.81533  0.91333  Biso   1.000  H
  C32      1.0000 0.10567  0.95833  0.09333  Biso   1.000  C
  C33      1.0000 0.07467  0.86833  0.21333  Biso   1.000  C
  C34      1.0000 0.08967  0.97433  0.23333  Biso   1.000  C
  H26      1.0000 0.11857  0.98123  0.99563  Biso   1.000  H
  C35      1.0000 0.05767  0.88733  0.35333  Biso   1.000  C
  H27      1.0000 0.06907  0.83283  0.20983  Biso   1.000  H
  H28      1.0000 0.10047  0.01083  0.25523  Biso   1.000  H
  H29      1.0000 0.04087  0.86223  0.44053  Biso   1.000  H
  H30      1.0000 0.15967  0.83633  0.55333  Biso   1.000  H
  O11      1.0000 0.68493  0.06847  0.05567  Biso   1.000  O
  O12      1.0000 0.74253  0.08987  0.84867  Biso   1.000  O
  C36      1.0000 0.72763  0.09997  0.98067  Biso   1.000  C
  C37      1.0000 0.76343  0.15347  0.05667  Biso   1.000  C
  C38      1.0000 0.74823  0.16887  0.19967  Biso   1.000  C
  H31      1.0000 0.72233  0.14867  0.24667  Biso   1.000  H
  C39      1.0000 0.77233  0.29167  0.42667  Biso   1.000  C
  C40      1.0000 0.74133  0.20167  0.54667  Biso   1.000  C
  C41      1.0000 0.75633  0.30767  0.56667  Biso   1.000  C
  H32      1.0000 0.78523  0.31457  0.32897  Biso   1.000  H
  C42      1.0000 0.72433  0.22067  0.68667  Biso   1.000  C
  H33      1.0000 0.73573  0.16617  0.54317  Biso   1.000  H
  H34      1.0000 0.76713  0.34417  0.58857  Biso   1.000  H
  H35      1.0000 0.70753  0.19557  0.77387  Biso   1.000  H
  H36      1.0000 0.82633  0.16967  0.88667  Biso   1.000  H
  O13      1.0000 0.59820  0.94980  0.38900  Biso   1.000  O
  O14      1.0000 0.57680  0.98600  0.18200  Biso   1.000  O
  C43      1.0000 0.56670  0.96100  0.31400  Biso   1.000  C
  C44      1.0000 0.51320  0.94330  0.39000  Biso   1.000  C
  C45      1.0000 0.49780  0.91270  0.53300  Biso   1.000  C
  H37      1.0000 0.51800  0.90700  0.58000  Biso   1.000  H
  C46      1.0000 0.37500  0.81400  0.76000  Biso   1.000  C
  C47      1.0000 0.46500  0.87300  0.88000  Biso   1.000  C
  C48      1.0000 0.35900  0.78200  0.90000  Biso   1.000  C
  H38      1.0000 0.35210  0.80400  0.66230  Biso   1.000  H
  C49      1.0000 0.44600  0.83700  0.02000  Biso   1.000  C
  H39      1.0000 0.50050  0.90290  0.87650  Biso   1.000  H
  H40      1.0000 0.32250  0.75630  0.92190  Biso   1.000  H
  H41      1.0000 0.47110  0.84530  0.10720  Biso   1.000  H
  H42      1.0000 0.49700  0.99000  0.22000  Biso   1.000  H
  O15      1.0000 0.26487  0.28313  0.72233  Biso   1.000  O
  O16      1.0000 0.24347  0.31933  0.51533  Biso   1.000  O
  C50      1.0000 0.23337  0.29433  0.64733  Biso   1.000  C
  C51      1.0000 0.17987  0.27663  0.72333  Biso   1.000  C
  C52      1.0000 0.16447  0.24603  0.86633  Biso   1.000  C
  H43      1.0000 0.18467  0.24033  0.91333  Biso   1.000  H
  C53      1.0000 0.04167  0.14733  0.09333  Biso   1.000  C
  C54      1.0000 0.13167  0.20633  0.21333  Biso   1.000  C
  C55      1.0000 0.02567  0.11533  0.23333  Biso   1.000  C
  H44      1.0000 0.01877  0.13733  0.99563  Biso   1.000  H
  C56      1.0000 0.11267  0.17033  0.35333  Biso   1.000  C
  H45      1.0000 0.16717  0.23623  0.20983  Biso   1.000  H
  H46      1.0000 0.98917  0.08963  0.25523  Biso   1.000  H
  H47      1.0000 0.13777  0.17863  0.44053  Biso   1.000  H
  H48      1.0000 0.16367  0.32333  0.55333  Biso   1.000  H
  O17      1.0000 0.93153  0.61647  0.05567  Biso   1.000  O
  O18      1.0000 0.91013  0.65267  0.84867  Biso   1.000  O
  C57      1.0000 0.90003  0.62767  0.98067  Biso   1.000  C
  C58      1.0000 0.84653  0.60997  0.05667  Biso   1.000  C
  C59      1.0000 0.83113  0.57937  0.19967  Biso   1.000  C
  H49      1.0000 0.85133  0.57367  0.24667  Biso   1.000  H
  C60      1.0000 0.70833  0.48067  0.42667  Biso   1.000  C
  C61      1.0000 0.79833  0.53967  0.54667  Biso   1.000  C
  C62      1.0000 0.69233  0.44867  0.56667  Biso   1.000  C
  H50      1.0000 0.68543  0.47067  0.32897  Biso   1.000  H
  C63      1.0000 0.77933  0.50367  0.68667  Biso   1.000  C
  H51      1.0000 0.83383  0.56957  0.54317  Biso   1.000  H
  H52      1.0000 0.65583  0.42297  0.58857  Biso   1.000  H
  H53      1.0000 0.80443  0.51197  0.77387  Biso   1.000  H
  H54      1.0000 0.83033  0.65667  0.88667  Biso   1.000  H
  O19      1.0000 0.64840  0.05020  0.61100  Biso   1.000  O
  O20      1.0000 0.59080  0.01400  0.81800  Biso   1.000  O
  C64      1.0000 0.60570  0.03900  0.68600  Biso   1.000  C
  C65      1.0000 0.56990  0.05670  0.61000  Biso   1.000  C
  C66      1.0000 0.58510  0.08730  0.46700  Biso   1.000  C
  H55      1.0000 0.61100  0.09300  0.42000  Biso   1.000  H
  C67      1.0000 0.56100  0.18600  0.24000  Biso   1.000  C
  C68      1.0000 0.59200  0.12700  0.12000  Biso   1.000  C
  C69      1.0000 0.57700  0.21800  0.10000  Biso   1.000  C
  H56      1.0000 0.54810  0.19600  0.33770  Biso   1.000  H
  C70      1.0000 0.60900  0.16300  0.98000  Biso   1.000  C
  H57      1.0000 0.59760  0.09710  0.12350  Biso   1.000  H
  H58      1.0000 0.56620  0.24370  0.07810  Biso   1.000  H
  H59      1.0000 0.62580  0.15470  0.89280  Biso   1.000  H
  H60      1.0000 0.50700  0.01000  0.78000  Biso   1.000  H
  O21      1.0000 0.31507  0.38353  0.94433  Biso   1.000  O
  O22      1.0000 0.25747  0.34733  0.15133  Biso   1.000  O
  C71      1.0000 0.27237  0.37233  0.01933  Biso   1.000  C
  C72      1.0000 0.23657  0.39003  0.94333  Biso   1.000  C
  C73      1.0000 0.25177  0.42063  0.80033  Biso   1.000  C
  H61      1.0000 0.27767  0.42633  0.75333  Biso   1.000  H
  C74      1.0000 0.22767  0.51933  0.57333  Biso   1.000  C
  C75      1.0000 0.25867  0.46033  0.45333  Biso   1.000  C
  C76      1.0000 0.24367  0.55133  0.43333  Biso   1.000  C
  H62      1.0000 0.21477  0.52933  0.67103  Biso   1.000  H
  C77      1.0000 0.27567  0.49633  0.31333  Biso   1.000  C
  H63      1.0000 0.26427  0.43043  0.45683  Biso   1.000  H
  H64      1.0000 0.23287  0.57703  0.41143  Biso   1.000  H
  H65      1.0000 0.29247  0.48803  0.22613  Biso   1.000  H
  H66      1.0000 0.17367  0.34333  0.11333  Biso   1.000  H
  O23      1.0000 0.98173  0.71687  0.27767  Biso   1.000  O
  O24      1.0000 0.92413  0.68067  0.48467  Biso   1.000  O
  C78      1.0000 0.93903  0.70567  0.35267  Biso   1.000  C
  C79      1.0000 0.90323  0.72337  0.27667  Biso   1.000  C
  C80      1.0000 0.91843  0.75397  0.13367  Biso   1.000  C
  H67      1.0000 0.94433  0.75967  0.08667  Biso   1.000  H
  C81      1.0000 0.89433  0.85267  0.90667  Biso   1.000  C
  C82      1.0000 0.92533  0.79367  0.78667  Biso   1.000  C
  C83      1.0000 0.91033  0.88467  0.76667  Biso   1.000  C
  H68      1.0000 0.88143  0.86267  0.00437  Biso   1.000  H
  C84      1.0000 0.94233  0.82967  0.64667  Biso   1.000  C
  H69      1.0000 0.93093  0.76377  0.79017  Biso   1.000  H
  H70      1.0000 0.89953  0.91037  0.74477  Biso   1.000  H
  H71      1.0000 0.95913  0.82137  0.55947  Biso   1.000  H
  H72      1.0000 0.84033  0.67667  0.44667  Biso   1.000  H
  O25      1.0000 0.40180  0.35160  0.61100  Biso   1.000  O
  O26      1.0000 0.42320  0.40920  0.81800  Biso   1.000  O
  C85      1.0000 0.43330  0.39430  0.68600  Biso   1.000  C
  C86      1.0000 0.48680  0.43010  0.61000  Biso   1.000  C
  C87      1.0000 0.50220  0.41490  0.46700  Biso   1.000  C
  H73      1.0000 0.48200  0.38900  0.42000  Biso   1.000  H
  C88      1.0000 0.62500  0.43900  0.24000  Biso   1.000  C
  C89      1.0000 0.53500  0.40800  0.12000  Biso   1.000  C
  C90      1.0000 0.64100  0.42300  0.10000  Biso   1.000  C
  H74      1.0000 0.64790  0.45190  0.33770  Biso   1.000  H
  C91      1.0000 0.55400  0.39100  0.98000  Biso   1.000  C
  H75      1.0000 0.49950  0.40240  0.12350  Biso   1.000  H
  H76      1.0000 0.67750  0.43380  0.07810  Biso   1.000  H
  H77      1.0000 0.52890  0.37420  0.89280  Biso   1.000  H
  H78      1.0000 0.50300  0.49300  0.78000  Biso   1.000  H
  O27      1.0000 0.06847  0.68493  0.94433  Biso   1.000  O
  O28      1.0000 0.08987  0.74253  0.15133  Biso   1.000  O
  C92      1.0000 0.09997  0.72763  0.01933  Biso   1.000  C
  C93      1.0000 0.15347  0.76343  0.94333  Biso   1.000  C
  C94      1.0000 0.16887  0.74823  0.80033  Biso   1.000  C
  H79      1.0000 0.14867  0.72233  0.75333  Biso   1.000  H
  C95      1.0000 0.29167  0.77233  0.57333  Biso   1.000  C
  C96      1.0000 0.20167  0.74133  0.45333  Biso   1.000  C
  C97      1.0000 0.30767  0.75633  0.43333  Biso   1.000  C
  H80      1.0000 0.31457  0.78523  0.67103  Biso   1.000  H
  C98      1.0000 0.22067  0.72433  0.31333  Biso   1.000  C
  H81      1.0000 0.16617  0.73573  0.45683  Biso   1.000  H
  H82      1.0000 0.34417  0.76713  0.41143  Biso   1.000  H
  H83      1.0000 0.19557  0.70753  0.22613  Biso   1.000  H
  H84      1.0000 0.16967  0.82633  0.11333  Biso   1.000  H
  O29      1.0000 0.73513  0.01827  0.27767  Biso   1.000  O
  O30      1.0000 0.75653  0.07587  0.48467  Biso   1.000  O
  C99      1.0000 0.76663  0.06097  0.35267  Biso   1.000  C
  C100     1.0000 0.82013  0.09677  0.27667  Biso   1.000  C
  C101     1.0000 0.83553  0.08157  0.13367  Biso   1.000  C
  H85      1.0000 0.81533  0.05567  0.08667  Biso   1.000  H
  C102     1.0000 0.95833  0.10567  0.90667  Biso   1.000  C
  C103     1.0000 0.86833  0.07467  0.78667  Biso   1.000  C
  C104     1.0000 0.97433  0.08967  0.76667  Biso   1.000  C
  H86      1.0000 0.98123  0.11857  0.00437  Biso   1.000  H
  C105     1.0000 0.88733  0.05767  0.64667  Biso   1.000  C
  H87      1.0000 0.83283  0.06907  0.79017  Biso   1.000  H
  H88      1.0000 0.01083  0.10047  0.74477  Biso   1.000  H
  H89      1.0000 0.86223  0.04087  0.55947  Biso   1.000  H
  H90      1.0000 0.83633  0.15967  0.44667  Biso   1.000  H
  O31      1.0000 0.94980  0.59820  0.61100  Biso   1.000  O
  O32      1.0000 0.98600  0.57680  0.81800  Biso   1.000  O
  C106     1.0000 0.96100  0.56670  0.68600  Biso   1.000  C
  C107     1.0000 0.94330  0.51320  0.61000  Biso   1.000  C
  C108     1.0000 0.91270  0.49780  0.46700  Biso   1.000  C
  H91      1.0000 0.90700  0.51800  0.42000  Biso   1.000  H
  C109     1.0000 0.81400  0.37500  0.24000  Biso   1.000  C
  C110     1.0000 0.87300  0.46500  0.12000  Biso   1.000  C
  C111     1.0000 0.78200  0.35900  0.10000  Biso   1.000  C
  H92      1.0000 0.80400  0.35210  0.33770  Biso   1.000  H
  C112     1.0000 0.83700  0.44600  0.98000  Biso   1.000  C
  H93      1.0000 0.90290  0.50050  0.12350  Biso   1.000  H
  H94      1.0000 0.75630  0.32250  0.07810  Biso   1.000  H
  H95      1.0000 0.84530  0.47110  0.89280  Biso   1.000  H
  H96      1.0000 0.99000  0.49700  0.78000  Biso   1.000  H
  O33      1.0000 0.61647  0.93153  0.94433  Biso   1.000  O
  O34      1.0000 0.65267  0.91013  0.15133  Biso   1.000  O
  C113     1.0000 0.62767  0.90003  0.01933  Biso   1.000  C
  C114     1.0000 0.60997  0.84653  0.94333  Biso   1.000  C
  C115     1.0000 0.57937  0.83113  0.80033  Biso   1.000  C
  H97      1.0000 0.57367  0.85133  0.75333  Biso   1.000  H
  C116     1.0000 0.48067  0.70833  0.57333  Biso   1.000  C
  C117     1.0000 0.53967  0.79833  0.45333  Biso   1.000  C
  C118     1.0000 0.44867  0.69233  0.43333  Biso   1.000  C
  H98      1.0000 0.47067  0.68543  0.67103  Biso   1.000  H
  C119     1.0000 0.50367  0.77933  0.31333  Biso   1.000  C
  H99      1.0000 0.56957  0.83383  0.45683  Biso   1.000  H
  H100     1.0000 0.42297  0.65583  0.41143  Biso   1.000  H
  H101     1.0000 0.51197  0.80443  0.22613  Biso   1.000  H
  H102     1.0000 0.65667  0.83033  0.11333  Biso   1.000  H
  O35      1.0000 0.28313  0.26487  0.27767  Biso   1.000  O
  O36      1.0000 0.31933  0.24347  0.48467  Biso   1.000  O
  C120     1.0000 0.29433  0.23337  0.35267  Biso   1.000  C
  C121     1.0000 0.27663  0.17987  0.27667  Biso   1.000  C
  C122     1.0000 0.24603  0.16447  0.13367  Biso   1.000  C
  H103     1.0000 0.24033  0.18467  0.08667  Biso   1.000  H
  C123     1.0000 0.14733  0.04167  0.90667  Biso   1.000  C
  C124     1.0000 0.20633  0.13167  0.78667  Biso   1.000  C
  C125     1.0000 0.11533  0.02567  0.76667  Biso   1.000  C
  H104     1.0000 0.13733  0.01877  0.00437  Biso   1.000  H
  C126     1.0000 0.17033  0.11267  0.64667  Biso   1.000  C
  H105     1.0000 0.23623  0.16717  0.79017  Biso   1.000  H
  H106     1.0000 0.08963  0.98917  0.74477  Biso   1.000  H
  H107     1.0000 0.17863  0.13777  0.55947  Biso   1.000  H
  H108     1.0000 0.32333  0.16367  0.44667  Biso   1.000  H
  O37      1.0000 0.94980  0.35160  0.61100  Biso   1.000  O
  O38      1.0000 0.98600  0.40920  0.81800  Biso   1.000  O
  C127     1.0000 0.96100  0.39430  0.68600  Biso   1.000  C
  C128     1.0000 0.94330  0.43010  0.61000  Biso   1.000  C
  C129     1.0000 0.91270  0.41490  0.46700  Biso   1.000  C
  H109     1.0000 0.90700  0.38900  0.42000  Biso   1.000  H
  C130     1.0000 0.81400  0.43900  0.24000  Biso   1.000  C
  C131     1.0000 0.87300  0.40800  0.12000  Biso   1.000  C
  C132     1.0000 0.78200  0.42300  0.10000  Biso   1.000  C
  H110     1.0000 0.80400  0.45190  0.33770  Biso   1.000  H
  C133     1.0000 0.83700  0.39100  0.98000  Biso   1.000  C
  H111     1.0000 0.90290  0.40240  0.12350  Biso   1.000  H
  H112     1.0000 0.75630  0.43380  0.07810  Biso   1.000  H
  H113     1.0000 0.84530  0.37420  0.89280  Biso   1.000  H
  H114     1.0000 0.99000  0.49300  0.78000  Biso   1.000  H
  O39      1.0000 0.61647  0.68493  0.94433  Biso   1.000  O
  O40      1.0000 0.65267  0.74253  0.15133  Biso   1.000  O
  C134     1.0000 0.62767  0.72763  0.01933  Biso   1.000  C
  C135     1.0000 0.60997  0.76343  0.94333  Biso   1.000  C
  C136     1.0000 0.57937  0.74823  0.80033  Biso   1.000  C
  H115     1.0000 0.57367  0.72233  0.75333  Biso   1.000  H
  C137     1.0000 0.48067  0.77233  0.57333  Biso   1.000  C
  C138     1.0000 0.53967  0.74133  0.45333  Biso   1.000  C
  C139     1.0000 0.44867  0.75633  0.43333  Biso   1.000  C
  H116     1.0000 0.47067  0.78523  0.67103  Biso   1.000  H
  C140     1.0000 0.50367  0.72433  0.31333  Biso   1.000  C
  H117     1.0000 0.56957  0.73573  0.45683  Biso   1.000  H
  H118     1.0000 0.42297  0.76713  0.41143  Biso   1.000  H
  H119     1.0000 0.51197  0.70753  0.22613  Biso   1.000  H
  H120     1.0000 0.65667  0.82633  0.11333  Biso   1.000  H
  O41      1.0000 0.28313  0.01827  0.27767  Biso   1.000  O
  O42      1.0000 0.31933  0.07587  0.48467  Biso   1.000  O
  C141     1.0000 0.29433  0.06097  0.35267  Biso   1.000  C
  C142     1.0000 0.27663  0.09677  0.27667  Biso   1.000  C
  C143     1.0000 0.24603  0.08157  0.13367  Biso   1.000  C
  H121     1.0000 0.24033  0.05567  0.08667  Biso   1.000  H
  C144     1.0000 0.14733  0.10567  0.90667  Biso   1.000  C
  C145     1.0000 0.20633  0.07467  0.78667  Biso   1.000  C
  C146     1.0000 0.11533  0.08967  0.76667  Biso   1.000  C
  H122     1.0000 0.13733  0.11857  0.00437  Biso   1.000  H
  C147     1.0000 0.17033  0.05767  0.64667  Biso   1.000  C
  H123     1.0000 0.23623  0.06907  0.79017  Biso   1.000  H
  H124     1.0000 0.08963  0.10047  0.74477  Biso   1.000  H
  H125     1.0000 0.17863  0.04087  0.55947  Biso   1.000  H
  H126     1.0000 0.32333  0.15967  0.44667  Biso   1.000  H
  O43      1.0000 0.64840  0.59820  0.61100  Biso   1.000  O
  O44      1.0000 0.59080  0.57680  0.81800  Biso   1.000  O
  C148     1.0000 0.60570  0.56670  0.68600  Biso   1.000  C
  C149     1.0000 0.56990  0.51320  0.61000  Biso   1.000  C
  C150     1.0000 0.58510  0.49780  0.46700  Biso   1.000  C
  H127     1.0000 0.61100  0.51800  0.42000  Biso   1.000  H
  C151     1.0000 0.56100  0.37500  0.24000  Biso   1.000  C
  C152     1.0000 0.59200  0.46500  0.12000  Biso   1.000  C
  C153     1.0000 0.57700  0.35900  0.10000  Biso   1.000  C
  H128     1.0000 0.54810  0.35210  0.33770  Biso   1.000  H
  C154     1.0000 0.60900  0.44600  0.98000  Biso   1.000  C
  H129     1.0000 0.59760  0.50050  0.12350  Biso   1.000  H
  H130     1.0000 0.56620  0.32250  0.07810  Biso   1.000  H
  H131     1.0000 0.62580  0.47110  0.89280  Biso   1.000  H
  H132     1.0000 0.50700  0.49700  0.78000  Biso   1.000  H
  O45      1.0000 0.31507  0.93153  0.94433  Biso   1.000  O
  O46      1.0000 0.25747  0.91013  0.15133  Biso   1.000  O
  C155     1.0000 0.27237  0.90003  0.01933  Biso   1.000  C
  C156     1.0000 0.23657  0.84653  0.94333  Biso   1.000  C
  C157     1.0000 0.25177  0.83113  0.80033  Biso   1.000  C
  H133     1.0000 0.27767  0.85133  0.75333  Biso   1.000  H
  C158     1.0000 0.22767  0.70833  0.57333  Biso   1.000  C
  C159     1.0000 0.25867  0.79833  0.45333  Biso   1.000  C
  C160     1.0000 0.24367  0.69233  0.43333  Biso   1.000  C
  H134     1.0000 0.21477  0.68543  0.67103  Biso   1.000  H
  C161     1.0000 0.27567  0.77933  0.31333  Biso   1.000  C
  H135     1.0000 0.26427  0.83383  0.45683  Biso   1.000  H
  H136     1.0000 0.23287  0.65583  0.41143  Biso   1.000  H
  H137     1.0000 0.29247  0.80443  0.22613  Biso   1.000  H
  H138     1.0000 0.17367  0.83033  0.11333  Biso   1.000  H
  O47      1.0000 0.98173  0.26487  0.27767  Biso   1.000  O
  O48      1.0000 0.92413  0.24347  0.48467  Biso   1.000  O
  C162     1.0000 0.93903  0.23337  0.35267  Biso   1.000  C
  C163     1.0000 0.90323  0.17987  0.27667  Biso   1.000  C
  C164     1.0000 0.91843  0.16447  0.13367  Biso   1.000  C
  H139     1.0000 0.94433  0.18467  0.08667  Biso   1.000  H
  C165     1.0000 0.89433  0.04167  0.90667  Biso   1.000  C
  C166     1.0000 0.92533  0.13167  0.78667  Biso   1.000  C
  C167     1.0000 0.91033  0.02567  0.76667  Biso   1.000  C
  H140     1.0000 0.88143  0.01877  0.00437  Biso   1.000  H
  C168     1.0000 0.94233  0.11267  0.64667  Biso   1.000  C
  H141     1.0000 0.93093  0.16717  0.79017  Biso   1.000  H
  H142     1.0000 0.89953  0.98917  0.74477  Biso   1.000  H
  H143     1.0000 0.95913  0.13777  0.55947  Biso   1.000  H
  H144     1.0000 0.84033  0.16367  0.44667  Biso   1.000  H
  O49      1.0000 0.40180  0.05020  0.61100  Biso   1.000  O
  O50      1.0000 0.42320  0.01400  0.81800  Biso   1.000  O
  C169     1.0000 0.43330  0.03900  0.68600  Biso   1.000  C
  C170     1.0000 0.48680  0.05670  0.61000  Biso   1.000  C
  C171     1.0000 0.50220  0.08730  0.46700  Biso   1.000  C
  H145     1.0000 0.48200  0.09300  0.42000  Biso   1.000  H
  C172     1.0000 0.62500  0.18600  0.24000  Biso   1.000  C
  C173     1.0000 0.53500  0.12700  0.12000  Biso   1.000  C
  C174     1.0000 0.64100  0.21800  0.10000  Biso   1.000  C
  H146     1.0000 0.64790  0.19600  0.33770  Biso   1.000  H
  C175     1.0000 0.55400  0.16300  0.98000  Biso   1.000  C
  H147     1.0000 0.49950  0.09710  0.12350  Biso   1.000  H
  H148     1.0000 0.67750  0.24370  0.07810  Biso   1.000  H
  H149     1.0000 0.52890  0.15470  0.89280  Biso   1.000  H
  H150     1.0000 0.50300  0.01000  0.78000  Biso   1.000  H
  O51      1.0000 0.06847  0.38353  0.94433  Biso   1.000  O
  O52      1.0000 0.08987  0.34733  0.15133  Biso   1.000  O
  C176     1.0000 0.09997  0.37233  0.01933  Biso   1.000  C
  C177     1.0000 0.15347  0.39003  0.94333  Biso   1.000  C
  C178     1.0000 0.16887  0.42063  0.80033  Biso   1.000  C
  H151     1.0000 0.14867  0.42633  0.75333  Biso   1.000  H
  C179     1.0000 0.29167  0.51933  0.57333  Biso   1.000  C
  C180     1.0000 0.20167  0.46033  0.45333  Biso   1.000  C
  C181     1.0000 0.30767  0.55133  0.43333  Biso   1.000  C
  H152     1.0000 0.31457  0.52933  0.67103  Biso   1.000  H
  C182     1.0000 0.22067  0.49633  0.31333  Biso   1.000  C
  H153     1.0000 0.16617  0.43043  0.45683  Biso   1.000  H
  H154     1.0000 0.34417  0.57703  0.41143  Biso   1.000  H
  H155     1.0000 0.19557  0.48803  0.22613  Biso   1.000  H
  H156     1.0000 0.16967  0.34333  0.11333  Biso   1.000  H
  O53      1.0000 0.73513  0.71687  0.27767  Biso   1.000  O
  O54      1.0000 0.75653  0.68067  0.48467  Biso   1.000  O
  C183     1.0000 0.76663  0.70567  0.35267  Biso   1.000  C
  C184     1.0000 0.82013  0.72337  0.27667  Biso   1.000  C
  C185     1.0000 0.83553  0.75397  0.13367  Biso   1.000  C
  H157     1.0000 0.81533  0.75967  0.08667  Biso   1.000  H
  C186     1.0000 0.95833  0.85267  0.90667  Biso   1.000  C
  C187     1.0000 0.86833  0.79367  0.78667  Biso   1.000  C
  C188     1.0000 0.97433  0.88467  0.76667  Biso   1.000  C
  H158     1.0000 0.98123  0.86267  0.00437  Biso   1.000  H
  C189     1.0000 0.88733  0.82967  0.64667  Biso   1.000  C
  H159     1.0000 0.83283  0.76377  0.79017  Biso   1.000  H
  H160     1.0000 0.01083  0.91037  0.74477  Biso   1.000  H
  H161     1.0000 0.86223  0.82137  0.55947  Biso   1.000  H
  H162     1.0000 0.83633  0.67667  0.44667  Biso   1.000  H
  O55      1.0000 0.35160  0.94980  0.38900  Biso   1.000  O
  O56      1.0000 0.40920  0.98600  0.18200  Biso   1.000  O
  C190     1.0000 0.39430  0.96100  0.31400  Biso   1.000  C
  C191     1.0000 0.43010  0.94330  0.39000  Biso   1.000  C
  C192     1.0000 0.41490  0.91270  0.53300  Biso   1.000  C
  H163     1.0000 0.38900  0.90700  0.58000  Biso   1.000  H
  C193     1.0000 0.43900  0.81400  0.76000  Biso   1.000  C
  C194     1.0000 0.40800  0.87300  0.88000  Biso   1.000  C
  C195     1.0000 0.42300  0.78200  0.90000  Biso   1.000  C
  H164     1.0000 0.45190  0.80400  0.66230  Biso   1.000  H
  C196     1.0000 0.39100  0.83700  0.02000  Biso   1.000  C
  H165     1.0000 0.40240  0.90290  0.87650  Biso   1.000  H
  H166     1.0000 0.43380  0.75630  0.92190  Biso   1.000  H
  H167     1.0000 0.37420  0.84530  0.10720  Biso   1.000  H
  H168     1.0000 0.49300  0.99000  0.22000  Biso   1.000  H
  O57      1.0000 0.01827  0.28313  0.72233  Biso   1.000  O
  O58      1.0000 0.07587  0.31933  0.51533  Biso   1.000  O
  C197     1.0000 0.06097  0.29433  0.64733  Biso   1.000  C
  C198     1.0000 0.09677  0.27663  0.72333  Biso   1.000  C
  C199     1.0000 0.08157  0.24603  0.86633  Biso   1.000  C
  H169     1.0000 0.05567  0.24033  0.91333  Biso   1.000  H
  C200     1.0000 0.10567  0.14733  0.09333  Biso   1.000  C
  C201     1.0000 0.07467  0.20633  0.21333  Biso   1.000  C
  C202     1.0000 0.08967  0.11533  0.23333  Biso   1.000  C
  H170     1.0000 0.11857  0.13733  0.99563  Biso   1.000  H
  C203     1.0000 0.05767  0.17033  0.35333  Biso   1.000  C
  H171     1.0000 0.06907  0.23623  0.20983  Biso   1.000  H
  H172     1.0000 0.10047  0.08963  0.25523  Biso   1.000  H
  H173     1.0000 0.04087  0.17863  0.44053  Biso   1.000  H
  H174     1.0000 0.15967  0.32333  0.55333  Biso   1.000  H
  O59      1.0000 0.68493  0.61647  0.05567  Biso   1.000  O
  O60      1.0000 0.74253  0.65267  0.84867  Biso   1.000  O
  C204     1.0000 0.72763  0.62767  0.98067  Biso   1.000  C
  C205     1.0000 0.76343  0.60997  0.05667  Biso   1.000  C
  C206     1.0000 0.74823  0.57937  0.19967  Biso   1.000  C
  H175     1.0000 0.72233  0.57367  0.24667  Biso   1.000  H
  C207     1.0000 0.77233  0.48067  0.42667  Biso   1.000  C
  C208     1.0000 0.74133  0.53967  0.54667  Biso   1.000  C
  C209     1.0000 0.75633  0.44867  0.56667  Biso   1.000  C
  H176     1.0000 0.78523  0.47067  0.32897  Biso   1.000  H
  C210     1.0000 0.72433  0.50367  0.68667  Biso   1.000  C
  H177     1.0000 0.73573  0.56957  0.54317  Biso   1.000  H
  H178     1.0000 0.76713  0.42297  0.58857  Biso   1.000  H
  H179     1.0000 0.70753  0.51197  0.77387  Biso   1.000  H
  H180     1.0000 0.82633  0.65667  0.88667  Biso   1.000  H
  O61      1.0000 0.59820  0.64840  0.38900  Biso   1.000  O
  O62      1.0000 0.57680  0.59080  0.18200  Biso   1.000  O
  C211     1.0000 0.56670  0.60570  0.31400  Biso   1.000  C
  C212     1.0000 0.51320  0.56990  0.39000  Biso   1.000  C
  C213     1.0000 0.49780  0.58510  0.53300  Biso   1.000  C
  H181     1.0000 0.51800  0.61100  0.58000  Biso   1.000  H
  C214     1.0000 0.37500  0.56100  0.76000  Biso   1.000  C
  C215     1.0000 0.46500  0.59200  0.88000  Biso   1.000  C
  C216     1.0000 0.35900  0.57700  0.90000  Biso   1.000  C
  H182     1.0000 0.35210  0.54810  0.66230  Biso   1.000  H
  C217     1.0000 0.44600  0.60900  0.02000  Biso   1.000  C
  H183     1.0000 0.50050  0.59760  0.87650  Biso   1.000  H
  H184     1.0000 0.32250  0.56620  0.92190  Biso   1.000  H
  H185     1.0000 0.47110  0.62580  0.10720  Biso   1.000  H
  H186     1.0000 0.49700  0.50700  0.22000  Biso   1.000  H
  O63      1.0000 0.26487  0.98173  0.72233  Biso   1.000  O
  O64      1.0000 0.24347  0.92413  0.51533  Biso   1.000  O
  C218     1.0000 0.23337  0.93903  0.64733  Biso   1.000  C
  C219     1.0000 0.17987  0.90323  0.72333  Biso   1.000  C
  C220     1.0000 0.16447  0.91843  0.86633  Biso   1.000  C
  H187     1.0000 0.18467  0.94433  0.91333  Biso   1.000  H
  C221     1.0000 0.04167  0.89433  0.09333  Biso   1.000  C
  C222     1.0000 0.13167  0.92533  0.21333  Biso   1.000  C
  C223     1.0000 0.02567  0.91033  0.23333  Biso   1.000  C
  H188     1.0000 0.01877  0.88143  0.99563  Biso   1.000  H
  C224     1.0000 0.11267  0.94233  0.35333  Biso   1.000  C
  H189     1.0000 0.16717  0.93093  0.20983  Biso   1.000  H
  H190     1.0000 0.98917  0.89953  0.25523  Biso   1.000  H
  H191     1.0000 0.13777  0.95913  0.44053  Biso   1.000  H
  H192     1.0000 0.16367  0.84033  0.55333  Biso   1.000  H
  O65      1.0000 0.93153  0.31507  0.05567  Biso   1.000  O
  O66      1.0000 0.91013  0.25747  0.84867  Biso   1.000  O
  C225     1.0000 0.90003  0.27237  0.98067  Biso   1.000  C
  C226     1.0000 0.84653  0.23657  0.05667  Biso   1.000  C
  C227     1.0000 0.83113  0.25177  0.19967  Biso   1.000  C
  H193     1.0000 0.85133  0.27767  0.24667  Biso   1.000  H
  C228     1.0000 0.70833  0.22767  0.42667  Biso   1.000  C
  C229     1.0000 0.79833  0.25867  0.54667  Biso   1.000  C
  C230     1.0000 0.69233  0.24367  0.56667  Biso   1.000  C
  H194     1.0000 0.68543  0.21477  0.32897  Biso   1.000  H
  C231     1.0000 0.77933  0.27567  0.68667  Biso   1.000  C
  H195     1.0000 0.83383  0.26427  0.54317  Biso   1.000  H
  H196     1.0000 0.65583  0.23287  0.58857  Biso   1.000  H
  H197     1.0000 0.80443  0.29247  0.77387  Biso   1.000  H
  H198     1.0000 0.83033  0.17367  0.88667  Biso   1.000  H
  O67      1.0000 0.05020  0.40180  0.38900  Biso   1.000  O
  O68      1.0000 0.01400  0.42320  0.18200  Biso   1.000  O
  C232     1.0000 0.03900  0.43330  0.31400  Biso   1.000  C
  C233     1.0000 0.05670  0.48680  0.39000  Biso   1.000  C
  C234     1.0000 0.08730  0.50220  0.53300  Biso   1.000  C
  H199     1.0000 0.09300  0.48200  0.58000  Biso   1.000  H
  C235     1.0000 0.18600  0.62500  0.76000  Biso   1.000  C
  C236     1.0000 0.12700  0.53500  0.88000  Biso   1.000  C
  C237     1.0000 0.21800  0.64100  0.90000  Biso   1.000  C
  H200     1.0000 0.19600  0.64790  0.66230  Biso   1.000  H
  C238     1.0000 0.16300  0.55400  0.02000  Biso   1.000  C
  H201     1.0000 0.09710  0.49950  0.87650  Biso   1.000  H
  H202     1.0000 0.24370  0.67750  0.92190  Biso   1.000  H
  H203     1.0000 0.15470  0.52890  0.10720  Biso   1.000  H
  H204     1.0000 0.01000  0.50300  0.22000  Biso   1.000  H
  O69      1.0000 0.71687  0.73513  0.72233  Biso   1.000  O
  O70      1.0000 0.68067  0.75653  0.51533  Biso   1.000  O
  C239     1.0000 0.70567  0.76663  0.64733  Biso   1.000  C
  C240     1.0000 0.72337  0.82013  0.72333  Biso   1.000  C
  C241     1.0000 0.75397  0.83553  0.86633  Biso   1.000  C
  H205     1.0000 0.75967  0.81533  0.91333  Biso   1.000  H
  C242     1.0000 0.85267  0.95833  0.09333  Biso   1.000  C
  C243     1.0000 0.79367  0.86833  0.21333  Biso   1.000  C
  C244     1.0000 0.88467  0.97433  0.23333  Biso   1.000  C
  H206     1.0000 0.86267  0.98123  0.99563  Biso   1.000  H
  C245     1.0000 0.82967  0.88733  0.35333  Biso   1.000  C
  H207     1.0000 0.76377  0.83283  0.20983  Biso   1.000  H
  H208     1.0000 0.91037  0.01083  0.25523  Biso   1.000  H
  H209     1.0000 0.82137  0.86223  0.44053  Biso   1.000  H
  H210     1.0000 0.67667  0.83633  0.55333  Biso   1.000  H
  O71      1.0000 0.38353  0.06847  0.05567  Biso   1.000  O
  O72      1.0000 0.34733  0.08987  0.84867  Biso   1.000  O
  C246     1.0000 0.37233  0.09997  0.98067  Biso   1.000  C
  C247     1.0000 0.39003  0.15347  0.05667  Biso   1.000  C
  C248     1.0000 0.42063  0.16887  0.19967  Biso   1.000  C
  H211     1.0000 0.42633  0.14867  0.24667  Biso   1.000  H
  C249     1.0000 0.51933  0.29167  0.42667  Biso   1.000  C
  C250     1.0000 0.46033  0.20167  0.54667  Biso   1.000  C
  C251     1.0000 0.55133  0.30767  0.56667  Biso   1.000  C
  H212     1.0000 0.52933  0.31457  0.32897  Biso   1.000  H
  C252     1.0000 0.49633  0.22067  0.68667  Biso   1.000  C
  H213     1.0000 0.43043  0.16617  0.54317  Biso   1.000  H
  H214     1.0000 0.57703  0.34417  0.58857  Biso   1.000  H
  H215     1.0000 0.48803  0.19557  0.77387  Biso   1.000  H
  H216     1.0000 0.34333  0.16967  0.88667  Biso   1.000  H
  Zn1      1.0000 0.04207  0.70874  0.33333  Biso   1.000  Zn
  Zn2      1.0000 0.29126  0.33333  0.33333  Biso   1.000  Zn
  Zn3      1.0000 0.66667  0.95793  0.33333  Biso   1.000  Zn
  Zn4      1.0000 0.70874  0.04207  0.66667  Biso   1.000  Zn
  Zn5      1.0000 0.37540  0.37540  0.00000  Biso   1.000  Zn
  Zn6      1.0000 0.33333  0.29126  0.66667  Biso   1.000  Zn
  Zn7      1.0000 0.00000  0.62460  0.00000  Biso   1.000  Zn
  Zn8      1.0000 0.95793  0.66667  0.66667  Biso   1.000  Zn
  Zn9      1.0000 0.62460  0.00000  0.00000  Biso   1.000  Zn
  Zn10     1.0000 0.95793  0.29126  0.66667  Biso   1.000  Zn
  Zn11     1.0000 0.62460  0.62460  0.00000  Biso   1.000  Zn
  Zn12     1.0000 0.70874  0.66667  0.66667  Biso   1.000  Zn
  Zn13     1.0000 0.37540  0.00000  0.00000  Biso   1.000  Zn
  Zn14     1.0000 0.33333  0.04207  0.66667  Biso   1.000  Zn
  Zn15     1.0000 0.00000  0.37540  0.00000  Biso   1.000  Zn
  Zn16     1.0000 0.29126  0.95793  0.33333  Biso   1.000  Zn
  Zn17     1.0000 0.66667  0.70874  0.33333  Biso   1.000  Zn
  Zn18     1.0000 0.04207  0.33333  0.33333  Biso   1.000  Zn
  C253     1.0000 0.04230  0.52115  0.31700  Biso   1.000  C
  C254     1.0000 0.10360  0.55180  0.60300  Biso   1.000  C
  C255     1.0000 0.13700  0.56850  0.75400  Biso   1.000  C
  C256     1.0000 0.20400  0.60200  0.03600  Biso   1.000  C
  H217     1.0000 0.22670  0.61335  0.13050  Biso   1.000  H
  C257     1.0000 0.70897  0.85448  0.65033  Biso   1.000  C
  C258     1.0000 0.77027  0.88513  0.93633  Biso   1.000  C
  C259     1.0000 0.80367  0.90183  0.08733  Biso   1.000  C
  C260     1.0000 0.87067  0.93533  0.36933  Biso   1.000  C
  H218     1.0000 0.89337  0.94668  0.46383  Biso   1.000  H
  C261     1.0000 0.37563  0.18782  0.98367  Biso   1.000  C
  C262     1.0000 0.43693  0.21847  0.26967  Biso   1.000  C
  C263     1.0000 0.47033  0.23517  0.42067  Biso   1.000  C
  C264     1.0000 0.53733  0.26867  0.70267  Biso   1.000  C
  H219     1.0000 0.56003  0.28002  0.79717  Biso   1.000  H
  C265     1.0000 0.47885  0.52115  0.31700  Biso   1.000  C
  C266     1.0000 0.44820  0.55180  0.60300  Biso   1.000  C
  C267     1.0000 0.43150  0.56850  0.75400  Biso   1.000  C
  C268     1.0000 0.39800  0.60200  0.03600  Biso   1.000  C
  H220     1.0000 0.38665  0.61335  0.13050  Biso   1.000  H
  C269     1.0000 0.14552  0.85448  0.65033  Biso   1.000  C
  C270     1.0000 0.11487  0.88513  0.93633  Biso   1.000  C
  C271     1.0000 0.09817  0.90183  0.08733  Biso   1.000  C
  C272     1.0000 0.06467  0.93533  0.36933  Biso   1.000  C
  H221     1.0000 0.05332  0.94668  0.46383  Biso   1.000  H
  C273     1.0000 0.81218  0.18782  0.98367  Biso   1.000  C
  C274     1.0000 0.78153  0.21847  0.26967  Biso   1.000  C
  C275     1.0000 0.76483  0.23517  0.42067  Biso   1.000  C
  C276     1.0000 0.73133  0.26867  0.70267  Biso   1.000  C
  H222     1.0000 0.71998  0.28002  0.79717  Biso   1.000  H
  C277     1.0000 0.47885  0.95770  0.31700  Biso   1.000  C
  C278     1.0000 0.44820  0.89640  0.60300  Biso   1.000  C
  C279     1.0000 0.43150  0.86300  0.75400  Biso   1.000  C
  C280     1.0000 0.39800  0.79600  0.03600  Biso   1.000  C
  H223     1.0000 0.38665  0.77330  0.13050  Biso   1.000  H
  C281     1.0000 0.14552  0.29103  0.65033  Biso   1.000  C
  C282     1.0000 0.11487  0.22973  0.93633  Biso   1.000  C
  C283     1.0000 0.09817  0.19633  0.08733  Biso   1.000  C
  C284     1.0000 0.06467  0.12933  0.36933  Biso   1.000  C
  H224     1.0000 0.05332  0.10663  0.46383  Biso   1.000  H
  C285     1.0000 0.81218  0.62437  0.98367  Biso   1.000  C
  C286     1.0000 0.78153  0.56307  0.26967  Biso   1.000  C
  C287     1.0000 0.76483  0.52967  0.42067  Biso   1.000  C
  C288     1.0000 0.73133  0.46267  0.70267  Biso   1.000  C
  H225     1.0000 0.71998  0.43997  0.79717  Biso   1.000  H
  C289     1.0000 0.52115  0.04230  0.68300  Biso   1.000  C
  C290     1.0000 0.55180  0.10360  0.39700  Biso   1.000  C
  C291     1.0000 0.56850  0.13700  0.24600  Biso   1.000  C
  C292     1.0000 0.60200  0.20400  0.96400  Biso   1.000  C
  H226     1.0000 0.61335  0.22670  0.86950  Biso   1.000  H
  C293     1.0000 0.18782  0.37563  0.01633  Biso   1.000  C
  C294     1.0000 0.21847  0.43693  0.73033  Biso   1.000  C
  C295     1.0000 0.23517  0.47033  0.57933  Biso   1.000  C
  C296     1.0000 0.26867  0.53733  0.29733  Biso   1.000  C
  H227     1.0000 0.28002  0.56003  0.20283  Biso   1.000  H
  C297     1.0000 0.85448  0.70897  0.34967  Biso   1.000  C
  C298     1.0000 0.88513  0.77027  0.06367  Biso   1.000  C
  C299     1.0000 0.90183  0.80367  0.91267  Biso   1.000  C
  C300     1.0000 0.93533  0.87067  0.63067  Biso   1.000  C
  H228     1.0000 0.94668  0.89337  0.53617  Biso   1.000  H
  C301     1.0000 0.52115  0.47885  0.68300  Biso   1.000  C
  C302     1.0000 0.55180  0.44820  0.39700  Biso   1.000  C
  C303     1.0000 0.56850  0.43150  0.24600  Biso   1.000  C
  C304     1.0000 0.60200  0.39800  0.96400  Biso   1.000  C
  H229     1.0000 0.61335  0.38665  0.86950  Biso   1.000  H
  C305     1.0000 0.18782  0.81218  0.01633  Biso   1.000  C
  C306     1.0000 0.21847  0.78153  0.73033  Biso   1.000  C
  C307     1.0000 0.23517  0.76483  0.57933  Biso   1.000  C
  C308     1.0000 0.26867  0.73133  0.29733  Biso   1.000  C
  H230     1.0000 0.28002  0.71998  0.20283  Biso   1.000  H
  C309     1.0000 0.85448  0.14552  0.34967  Biso   1.000  C
  C310     1.0000 0.88513  0.11487  0.06367  Biso   1.000  C
  C311     1.0000 0.90183  0.09817  0.91267  Biso   1.000  C
  C312     1.0000 0.93533  0.06467  0.63067  Biso   1.000  C
  H231     1.0000 0.94668  0.05332  0.53617  Biso   1.000  H
  C313     1.0000 0.95770  0.47885  0.68300  Biso   1.000  C
  C314     1.0000 0.89640  0.44820  0.39700  Biso   1.000  C
  C315     1.0000 0.86300  0.43150  0.24600  Biso   1.000  C
  C316     1.0000 0.79600  0.39800  0.96400  Biso   1.000  C
  H232     1.0000 0.77330  0.38665  0.86950  Biso   1.000  H
  C317     1.0000 0.62437  0.81218  0.01633  Biso   1.000  C
  C318     1.0000 0.56307  0.78153  0.73033  Biso   1.000  C
  C319     1.0000 0.52967  0.76483  0.57933  Biso   1.000  C
  C320     1.0000 0.46267  0.73133  0.29733  Biso   1.000  C
  H233     1.0000 0.43997  0.71998  0.20283  Biso   1.000  H
  C321     1.0000 0.29103  0.14552  0.34967  Biso   1.000  C
  C322     1.0000 0.22973  0.11487  0.06367  Biso   1.000  C
  C323     1.0000 0.19633  0.09817  0.91267  Biso   1.000  C
  C324     1.0000 0.12933  0.06467  0.63067  Biso   1.000  C
  H234     1.0000 0.10663  0.05332  0.53617  Biso   1.000  H
