data_image0
_cell_length_a       36.71
_cell_length_b       36.71
_cell_length_c       15.414
_cell_angle_alpha    90
_cell_angle_beta     90
_cell_angle_gamma    90

_symmetry_space_group_name_H-M    "P 1"
_symmetry_int_tables_number       1

loop_
  _symmetry_equiv_pos_as_xyz
  'x, y, z'

loop_
  _atom_site_label
  _atom_site_occupancy
  _atom_site_fract_x
  _atom_site_fract_y
  _atom_site_fract_z
  _atom_site_thermal_displace_type
  _atom_site_B_iso_or_equiv
  _atom_site_type_symbol
  Mn1      1.0000 0.14392  0.35117  0.25000  Biso   1.000  Mn
  N1       1.0000 0.05450  0.31810  0.33840  Biso   1.000  N
  N2       1.0000 0.13340  0.46360  0.33730  Biso   1.000  N
  N3       1.0000 0.19060  0.26220  0.17070  Biso   1.000  N
  O1       1.0000 0.03300  0.35790  0.20270  Biso   1.000  O
  O2       1.0000 0.09740  0.36290  0.19310  Biso   1.000  O
  O3       1.0000 0.11020  0.31830  0.32300  Biso   1.000  O
  O4       1.0000 0.17620  0.46100  0.18280  Biso   1.000  O
  O5       1.0000 0.17110  0.39510  0.18100  Biso   1.000  O
  O6       1.0000 0.13660  0.39150  0.34310  Biso   1.000  O
  O7       1.0000 0.16010  0.31470  0.16560  Biso   1.000  O
  O8       1.0000 0.19200  0.33900  0.30630  Biso   1.000  O
  O9       1.0000 0.23660  0.28630  0.30080  Biso   1.000  O
  C1       1.0000 0.06410  0.35650  0.22600  Biso   1.000  C
  C2       1.0000 0.07760  0.32160  0.28470  Biso   1.000  C
  C3       1.0000 0.14270  0.42850  0.30230  Biso   1.000  C
  C4       1.0000 0.15710  0.43290  0.20540  Biso   1.000  C
  C5       1.0000 0.20780  0.30400  0.31200  Biso   1.000  C
  C6       1.0000 0.19040  0.29050  0.22100  Biso   1.000  C
  C7       1.0000 0.05070  0.29370  0.42190  Biso   1.000  C
  C8       1.0000 0.04660  0.25850  0.41580  Biso   1.000  C
  C9       1.0000 0.11100  0.45920  0.42130  Biso   1.000  C
  C10      1.0000 0.18940  0.24890  0.07710  Biso   1.000  C
  C11      1.0000 0.16030  0.22020  0.08060  Biso   1.000  C
  C12      1.0000 0.07810  0.45420  0.39950  Biso   1.000  C
  C13      1.0000 0.05690  0.44980  0.31800  Biso   1.000  C
  H1       1.0000 0.07330  0.45170  0.26830  Biso   1.000  H
  H2       1.0000 0.03840  0.46890  0.31480  Biso   1.000  H
  H3       1.0000 0.04510  0.42580  0.31800  Biso   1.000  H
  C14      1.0000 0.04760  0.23980  0.32280  Biso   1.000  C
  H4       1.0000 0.05570  0.25760  0.27960  Biso   1.000  H
  H5       1.0000 0.02310  0.23120  0.30770  Biso   1.000  H
  H6       1.0000 0.06450  0.21920  0.32380  Biso   1.000  H
  C15      1.0000 0.13420  0.20660  0.14090  Biso   1.000  C
  H7       1.0000 0.14340  0.20970  0.20010  Biso   1.000  H
  H8       1.0000 0.13000  0.18060  0.12980  Biso   1.000  H
  H9       1.0000 0.11130  0.22000  0.13430  Biso   1.000  H
  Li1      1.0000 0.14400  0.27980  0.25060  Biso   1.000  Li
  H10      1.0000 0.18020  0.44290  0.55870  Biso   1.000  H
  H11      1.0000 0.18210  0.47170  0.48100  Biso   1.000  H
  H12      1.0000 0.17930  0.42910  0.46030  Biso   1.000  H
  H13      1.0000 0.23210  0.30660  0.94010  Biso   1.000  H
  H14      1.0000 0.25040  0.29170  0.02740  Biso   1.000  H
  H15      1.0000 0.21660  0.31910  0.03250  Biso   1.000  H
  H16      1.0000 0.03380  0.36440  0.55990  Biso   1.000  H
  H17      1.0000 0.01200  0.35880  0.47090  Biso   1.000  H
  H18      1.0000 0.05420  0.36960  0.46910  Biso   1.000  H
  Mn2      1.0000 0.85608  0.64883  0.25000  Biso   1.000  Mn
  N4       1.0000 0.94550  0.68190  0.33840  Biso   1.000  N
  N5       1.0000 0.86660  0.53640  0.33730  Biso   1.000  N
  N6       1.0000 0.80940  0.73780  0.17070  Biso   1.000  N
  O10      1.0000 0.96700  0.64210  0.20270  Biso   1.000  O
  O11      1.0000 0.90260  0.63710  0.19310  Biso   1.000  O
  O12      1.0000 0.88980  0.68170  0.32300  Biso   1.000  O
  O13      1.0000 0.82380  0.53900  0.18280  Biso   1.000  O
  O14      1.0000 0.82890  0.60490  0.18100  Biso   1.000  O
  O15      1.0000 0.86340  0.60850  0.34310  Biso   1.000  O
  O16      1.0000 0.83990  0.68530  0.16560  Biso   1.000  O
  O17      1.0000 0.80800  0.66100  0.30630  Biso   1.000  O
  O18      1.0000 0.76340  0.71370  0.30080  Biso   1.000  O
  C16      1.0000 0.93590  0.64350  0.22600  Biso   1.000  C
  C17      1.0000 0.92240  0.67840  0.28470  Biso   1.000  C
  C18      1.0000 0.85730  0.57150  0.30230  Biso   1.000  C
  C19      1.0000 0.84290  0.56710  0.20540  Biso   1.000  C
  C20      1.0000 0.79220  0.69600  0.31200  Biso   1.000  C
  C21      1.0000 0.80960  0.70950  0.22100  Biso   1.000  C
  C22      1.0000 0.94930  0.70630  0.42190  Biso   1.000  C
  C23      1.0000 0.95340  0.74150  0.41580  Biso   1.000  C
  C24      1.0000 0.88900  0.54080  0.42130  Biso   1.000  C
  C25      1.0000 0.81060  0.75110  0.07710  Biso   1.000  C
  C26      1.0000 0.83970  0.77980  0.08060  Biso   1.000  C
  C27      1.0000 0.92190  0.54580  0.39950  Biso   1.000  C
  C28      1.0000 0.94310  0.55020  0.31800  Biso   1.000  C
  H19      1.0000 0.92670  0.54830  0.26830  Biso   1.000  H
  H20      1.0000 0.96160  0.53110  0.31480  Biso   1.000  H
  H21      1.0000 0.95490  0.57420  0.31800  Biso   1.000  H
  C29      1.0000 0.95240  0.76020  0.32280  Biso   1.000  C
  H22      1.0000 0.94430  0.74240  0.27960  Biso   1.000  H
  H23      1.0000 0.97690  0.76880  0.30770  Biso   1.000  H
  H24      1.0000 0.93550  0.78080  0.32380  Biso   1.000  H
  C30      1.0000 0.86580  0.79340  0.14090  Biso   1.000  C
  H25      1.0000 0.85660  0.79030  0.20010  Biso   1.000  H
  H26      1.0000 0.87000  0.81940  0.12980  Biso   1.000  H
  H27      1.0000 0.88870  0.78000  0.13430  Biso   1.000  H
  Li2      1.0000 0.85600  0.72020  0.25060  Biso   1.000  Li
  H28      1.0000 0.81980  0.55710  0.55870  Biso   1.000  H
  H29      1.0000 0.81790  0.52830  0.48100  Biso   1.000  H
  H30      1.0000 0.82070  0.57090  0.46030  Biso   1.000  H
  H31      1.0000 0.76790  0.69340  0.94010  Biso   1.000  H
  H32      1.0000 0.74960  0.70830  0.02740  Biso   1.000  H
  H33      1.0000 0.78340  0.68090  0.03250  Biso   1.000  H
  H34      1.0000 0.96620  0.63560  0.55990  Biso   1.000  H
  H35      1.0000 0.98800  0.64120  0.47090  Biso   1.000  H
  H36      1.0000 0.94580  0.63040  0.46910  Biso   1.000  H
  Mn3      1.0000 0.64883  0.14392  0.25000  Biso   1.000  Mn
  N7       1.0000 0.68190  0.05450  0.33840  Biso   1.000  N
  N8       1.0000 0.53640  0.13340  0.33730  Biso   1.000  N
  N9       1.0000 0.73780  0.19060  0.17070  Biso   1.000  N
  O19      1.0000 0.64210  0.03300  0.20270  Biso   1.000  O
  O20      1.0000 0.63710  0.09740  0.19310  Biso   1.000  O
  O21      1.0000 0.68170  0.11020  0.32300  Biso   1.000  O
  O22      1.0000 0.53900  0.17620  0.18280  Biso   1.000  O
  O23      1.0000 0.60490  0.17110  0.18100  Biso   1.000  O
  O24      1.0000 0.60850  0.13660  0.34310  Biso   1.000  O
  O25      1.0000 0.68530  0.16010  0.16560  Biso   1.000  O
  O26      1.0000 0.66100  0.19200  0.30630  Biso   1.000  O
  O27      1.0000 0.71370  0.23660  0.30080  Biso   1.000  O
  C31      1.0000 0.64350  0.06410  0.22600  Biso   1.000  C
  C32      1.0000 0.67840  0.07760  0.28470  Biso   1.000  C
  C33      1.0000 0.57150  0.14270  0.30230  Biso   1.000  C
  C34      1.0000 0.56710  0.15710  0.20540  Biso   1.000  C
  C35      1.0000 0.69600  0.20780  0.31200  Biso   1.000  C
  C36      1.0000 0.70950  0.19040  0.22100  Biso   1.000  C
  C37      1.0000 0.70630  0.05070  0.42190  Biso   1.000  C
  C38      1.0000 0.74150  0.04660  0.41580  Biso   1.000  C
  C39      1.0000 0.54080  0.11100  0.42130  Biso   1.000  C
  C40      1.0000 0.75110  0.18940  0.07710  Biso   1.000  C
  C41      1.0000 0.77980  0.16030  0.08060  Biso   1.000  C
  C42      1.0000 0.54580  0.07810  0.39950  Biso   1.000  C
  C43      1.0000 0.55020  0.05690  0.31800  Biso   1.000  C
  H37      1.0000 0.54830  0.07330  0.26830  Biso   1.000  H
  H38      1.0000 0.53110  0.03840  0.31480  Biso   1.000  H
  H39      1.0000 0.57420  0.04510  0.31800  Biso   1.000  H
  C44      1.0000 0.76020  0.04760  0.32280  Biso   1.000  C
  H40      1.0000 0.74240  0.05570  0.27960  Biso   1.000  H
  H41      1.0000 0.76880  0.02310  0.30770  Biso   1.000  H
  H42      1.0000 0.78080  0.06450  0.32380  Biso   1.000  H
  C45      1.0000 0.79340  0.13420  0.14090  Biso   1.000  C
  H43      1.0000 0.79030  0.14340  0.20010  Biso   1.000  H
  H44      1.0000 0.81940  0.13000  0.12980  Biso   1.000  H
  H45      1.0000 0.78000  0.11130  0.13430  Biso   1.000  H
  Li3      1.0000 0.72020  0.14400  0.25060  Biso   1.000  Li
  H46      1.0000 0.55710  0.18020  0.55870  Biso   1.000  H
  H47      1.0000 0.52830  0.18210  0.48100  Biso   1.000  H
  H48      1.0000 0.57090  0.17930  0.46030  Biso   1.000  H
  H49      1.0000 0.69340  0.23210  0.94010  Biso   1.000  H
  H50      1.0000 0.70830  0.25040  0.02740  Biso   1.000  H
  H51      1.0000 0.68090  0.21660  0.03250  Biso   1.000  H
  H52      1.0000 0.63560  0.03380  0.55990  Biso   1.000  H
  H53      1.0000 0.64120  0.01200  0.47090  Biso   1.000  H
  H54      1.0000 0.63040  0.05420  0.46910  Biso   1.000  H
  Mn4      1.0000 0.35117  0.85608  0.25000  Biso   1.000  Mn
  N10      1.0000 0.31810  0.94550  0.33840  Biso   1.000  N
  N11      1.0000 0.46360  0.86660  0.33730  Biso   1.000  N
  N12      1.0000 0.26220  0.80940  0.17070  Biso   1.000  N
  O28      1.0000 0.35790  0.96700  0.20270  Biso   1.000  O
  O29      1.0000 0.36290  0.90260  0.19310  Biso   1.000  O
  O30      1.0000 0.31830  0.88980  0.32300  Biso   1.000  O
  O31      1.0000 0.46100  0.82380  0.18280  Biso   1.000  O
  O32      1.0000 0.39510  0.82890  0.18100  Biso   1.000  O
  O33      1.0000 0.39150  0.86340  0.34310  Biso   1.000  O
  O34      1.0000 0.31470  0.83990  0.16560  Biso   1.000  O
  O35      1.0000 0.33900  0.80800  0.30630  Biso   1.000  O
  O36      1.0000 0.28630  0.76340  0.30080  Biso   1.000  O
  C46      1.0000 0.35650  0.93590  0.22600  Biso   1.000  C
  C47      1.0000 0.32160  0.92240  0.28470  Biso   1.000  C
  C48      1.0000 0.42850  0.85730  0.30230  Biso   1.000  C
  C49      1.0000 0.43290  0.84290  0.20540  Biso   1.000  C
  C50      1.0000 0.30400  0.79220  0.31200  Biso   1.000  C
  C51      1.0000 0.29050  0.80960  0.22100  Biso   1.000  C
  C52      1.0000 0.29370  0.94930  0.42190  Biso   1.000  C
  C53      1.0000 0.25850  0.95340  0.41580  Biso   1.000  C
  C54      1.0000 0.45920  0.88900  0.42130  Biso   1.000  C
  C55      1.0000 0.24890  0.81060  0.07710  Biso   1.000  C
  C56      1.0000 0.22020  0.83970  0.08060  Biso   1.000  C
  C57      1.0000 0.45420  0.92190  0.39950  Biso   1.000  C
  C58      1.0000 0.44980  0.94310  0.31800  Biso   1.000  C
  H55      1.0000 0.45170  0.92670  0.26830  Biso   1.000  H
  H56      1.0000 0.46890  0.96160  0.31480  Biso   1.000  H
  H57      1.0000 0.42580  0.95490  0.31800  Biso   1.000  H
  C59      1.0000 0.23980  0.95240  0.32280  Biso   1.000  C
  H58      1.0000 0.25760  0.94430  0.27960  Biso   1.000  H
  H59      1.0000 0.23120  0.97690  0.30770  Biso   1.000  H
  H60      1.0000 0.21920  0.93550  0.32380  Biso   1.000  H
  C60      1.0000 0.20660  0.86580  0.14090  Biso   1.000  C
  H61      1.0000 0.20970  0.85660  0.20010  Biso   1.000  H
  H62      1.0000 0.18060  0.87000  0.12980  Biso   1.000  H
  H63      1.0000 0.22000  0.88870  0.13430  Biso   1.000  H
  Li4      1.0000 0.27980  0.85600  0.25060  Biso   1.000  Li
  H64      1.0000 0.44290  0.81980  0.55870  Biso   1.000  H
  H65      1.0000 0.47170  0.81790  0.48100  Biso   1.000  H
  H66      1.0000 0.42910  0.82070  0.46030  Biso   1.000  H
  H67      1.0000 0.30660  0.76790  0.94010  Biso   1.000  H
  H68      1.0000 0.29170  0.74960  0.02740  Biso   1.000  H
  H69      1.0000 0.31910  0.78340  0.03250  Biso   1.000  H
  H70      1.0000 0.36440  0.96620  0.55990  Biso   1.000  H
  H71      1.0000 0.35880  0.98800  0.47090  Biso   1.000  H
  H72      1.0000 0.36960  0.94580  0.46910  Biso   1.000  H
  Mn5      1.0000 0.85608  0.35117  0.75000  Biso   1.000  Mn
  N13      1.0000 0.94550  0.31810  0.66160  Biso   1.000  N
  N14      1.0000 0.86660  0.46360  0.66270  Biso   1.000  N
  N15      1.0000 0.80940  0.26220  0.82930  Biso   1.000  N
  O37      1.0000 0.96700  0.35790  0.79730  Biso   1.000  O
  O38      1.0000 0.90260  0.36290  0.80690  Biso   1.000  O
  O39      1.0000 0.88980  0.31830  0.67700  Biso   1.000  O
  O40      1.0000 0.82380  0.46100  0.81720  Biso   1.000  O
  O41      1.0000 0.82890  0.39510  0.81900  Biso   1.000  O
  O42      1.0000 0.86340  0.39150  0.65690  Biso   1.000  O
  O43      1.0000 0.83990  0.31470  0.83440  Biso   1.000  O
  O44      1.0000 0.80800  0.33900  0.69370  Biso   1.000  O
  O45      1.0000 0.76340  0.28630  0.69920  Biso   1.000  O
  C61      1.0000 0.93590  0.35650  0.77400  Biso   1.000  C
  C62      1.0000 0.92240  0.32160  0.71530  Biso   1.000  C
  C63      1.0000 0.85730  0.42850  0.69770  Biso   1.000  C
  C64      1.0000 0.84290  0.43290  0.79460  Biso   1.000  C
  C65      1.0000 0.79220  0.30400  0.68800  Biso   1.000  C
  C66      1.0000 0.80960  0.29050  0.77900  Biso   1.000  C
  C67      1.0000 0.94930  0.29370  0.57810  Biso   1.000  C
  C68      1.0000 0.95340  0.25850  0.58420  Biso   1.000  C
  C69      1.0000 0.88900  0.45920  0.57870  Biso   1.000  C
  C70      1.0000 0.81060  0.24890  0.92290  Biso   1.000  C
  C71      1.0000 0.83970  0.22020  0.91940  Biso   1.000  C
  C72      1.0000 0.92190  0.45420  0.60050  Biso   1.000  C
  C73      1.0000 0.94310  0.44980  0.68200  Biso   1.000  C
  H73      1.0000 0.92670  0.45170  0.73170  Biso   1.000  H
  H74      1.0000 0.96160  0.46890  0.68520  Biso   1.000  H
  H75      1.0000 0.95490  0.42580  0.68200  Biso   1.000  H
  C74      1.0000 0.95240  0.23980  0.67720  Biso   1.000  C
  H76      1.0000 0.94430  0.25760  0.72040  Biso   1.000  H
  H77      1.0000 0.97690  0.23120  0.69230  Biso   1.000  H
  H78      1.0000 0.93550  0.21920  0.67620  Biso   1.000  H
  C75      1.0000 0.86580  0.20660  0.85910  Biso   1.000  C
  H79      1.0000 0.85660  0.20970  0.79990  Biso   1.000  H
  H80      1.0000 0.87000  0.18060  0.87020  Biso   1.000  H
  H81      1.0000 0.88870  0.22000  0.86570  Biso   1.000  H
  Li5      1.0000 0.85600  0.27980  0.74940  Biso   1.000  Li
  H82      1.0000 0.81980  0.44290  0.44130  Biso   1.000  H
  H83      1.0000 0.81790  0.47170  0.51900  Biso   1.000  H
  H84      1.0000 0.82070  0.42910  0.53970  Biso   1.000  H
  H85      1.0000 0.76790  0.30660  0.05990  Biso   1.000  H
  H86      1.0000 0.74960  0.29170  0.97260  Biso   1.000  H
  H87      1.0000 0.78340  0.31910  0.96750  Biso   1.000  H
  H88      1.0000 0.96620  0.36440  0.44010  Biso   1.000  H
  H89      1.0000 0.98800  0.35880  0.52910  Biso   1.000  H
  H90      1.0000 0.94580  0.36960  0.53090  Biso   1.000  H
  Mn6      1.0000 0.14392  0.64883  0.75000  Biso   1.000  Mn
  N16      1.0000 0.05450  0.68190  0.66160  Biso   1.000  N
  N17      1.0000 0.13340  0.53640  0.66270  Biso   1.000  N
  N18      1.0000 0.19060  0.73780  0.82930  Biso   1.000  N
  O46      1.0000 0.03300  0.64210  0.79730  Biso   1.000  O
  O47      1.0000 0.09740  0.63710  0.80690  Biso   1.000  O
  O48      1.0000 0.11020  0.68170  0.67700  Biso   1.000  O
  O49      1.0000 0.17620  0.53900  0.81720  Biso   1.000  O
  O50      1.0000 0.17110  0.60490  0.81900  Biso   1.000  O
  O51      1.0000 0.13660  0.60850  0.65690  Biso   1.000  O
  O52      1.0000 0.16010  0.68530  0.83440  Biso   1.000  O
  O53      1.0000 0.19200  0.66100  0.69370  Biso   1.000  O
  O54      1.0000 0.23660  0.71370  0.69920  Biso   1.000  O
  C76      1.0000 0.06410  0.64350  0.77400  Biso   1.000  C
  C77      1.0000 0.07760  0.67840  0.71530  Biso   1.000  C
  C78      1.0000 0.14270  0.57150  0.69770  Biso   1.000  C
  C79      1.0000 0.15710  0.56710  0.79460  Biso   1.000  C
  C80      1.0000 0.20780  0.69600  0.68800  Biso   1.000  C
  C81      1.0000 0.19040  0.70950  0.77900  Biso   1.000  C
  C82      1.0000 0.05070  0.70630  0.57810  Biso   1.000  C
  C83      1.0000 0.04660  0.74150  0.58420  Biso   1.000  C
  C84      1.0000 0.11100  0.54080  0.57870  Biso   1.000  C
  C85      1.0000 0.18940  0.75110  0.92290  Biso   1.000  C
  C86      1.0000 0.16030  0.77980  0.91940  Biso   1.000  C
  C87      1.0000 0.07810  0.54580  0.60050  Biso   1.000  C
  C88      1.0000 0.05690  0.55020  0.68200  Biso   1.000  C
  H91      1.0000 0.07330  0.54830  0.73170  Biso   1.000  H
  H92      1.0000 0.03840  0.53110  0.68520  Biso   1.000  H
  H93      1.0000 0.04510  0.57420  0.68200  Biso   1.000  H
  C89      1.0000 0.04760  0.76020  0.67720  Biso   1.000  C
  H94      1.0000 0.05570  0.74240  0.72040  Biso   1.000  H
  H95      1.0000 0.02310  0.76880  0.69230  Biso   1.000  H
  H96      1.0000 0.06450  0.78080  0.67620  Biso   1.000  H
  C90      1.0000 0.13420  0.79340  0.85910  Biso   1.000  C
  H97      1.0000 0.14340  0.79030  0.79990  Biso   1.000  H
  H98      1.0000 0.13000  0.81940  0.87020  Biso   1.000  H
  H99      1.0000 0.11130  0.78000  0.86570  Biso   1.000  H
  Li6      1.0000 0.14400  0.72020  0.74940  Biso   1.000  Li
  H100     1.0000 0.18020  0.55710  0.44130  Biso   1.000  H
  H101     1.0000 0.18210  0.52830  0.51900  Biso   1.000  H
  H102     1.0000 0.17930  0.57090  0.53970  Biso   1.000  H
  H103     1.0000 0.23210  0.69340  0.05990  Biso   1.000  H
  H104     1.0000 0.25040  0.70830  0.97260  Biso   1.000  H
  H105     1.0000 0.21660  0.68090  0.96750  Biso   1.000  H
  H106     1.0000 0.03380  0.63560  0.44010  Biso   1.000  H
  H107     1.0000 0.01200  0.64120  0.52910  Biso   1.000  H
  H108     1.0000 0.05420  0.63040  0.53090  Biso   1.000  H
  Mn7      1.0000 0.35117  0.14392  0.75000  Biso   1.000  Mn
  N19      1.0000 0.31810  0.05450  0.66160  Biso   1.000  N
  N20      1.0000 0.46360  0.13340  0.66270  Biso   1.000  N
  N21      1.0000 0.26220  0.19060  0.82930  Biso   1.000  N
  O55      1.0000 0.35790  0.03300  0.79730  Biso   1.000  O
  O56      1.0000 0.36290  0.09740  0.80690  Biso   1.000  O
  O57      1.0000 0.31830  0.11020  0.67700  Biso   1.000  O
  O58      1.0000 0.46100  0.17620  0.81720  Biso   1.000  O
  O59      1.0000 0.39510  0.17110  0.81900  Biso   1.000  O
  O60      1.0000 0.39150  0.13660  0.65690  Biso   1.000  O
  O61      1.0000 0.31470  0.16010  0.83440  Biso   1.000  O
  O62      1.0000 0.33900  0.19200  0.69370  Biso   1.000  O
  O63      1.0000 0.28630  0.23660  0.69920  Biso   1.000  O
  C91      1.0000 0.35650  0.06410  0.77400  Biso   1.000  C
  C92      1.0000 0.32160  0.07760  0.71530  Biso   1.000  C
  C93      1.0000 0.42850  0.14270  0.69770  Biso   1.000  C
  C94      1.0000 0.43290  0.15710  0.79460  Biso   1.000  C
  C95      1.0000 0.30400  0.20780  0.68800  Biso   1.000  C
  C96      1.0000 0.29050  0.19040  0.77900  Biso   1.000  C
  C97      1.0000 0.29370  0.05070  0.57810  Biso   1.000  C
  C98      1.0000 0.25850  0.04660  0.58420  Biso   1.000  C
  C99      1.0000 0.45920  0.11100  0.57870  Biso   1.000  C
  C100     1.0000 0.24890  0.18940  0.92290  Biso   1.000  C
  C101     1.0000 0.22020  0.16030  0.91940  Biso   1.000  C
  C102     1.0000 0.45420  0.07810  0.60050  Biso   1.000  C
  C103     1.0000 0.44980  0.05690  0.68200  Biso   1.000  C
  H109     1.0000 0.45170  0.07330  0.73170  Biso   1.000  H
  H110     1.0000 0.46890  0.03840  0.68520  Biso   1.000  H
  H111     1.0000 0.42580  0.04510  0.68200  Biso   1.000  H
  C104     1.0000 0.23980  0.04760  0.67720  Biso   1.000  C
  H112     1.0000 0.25760  0.05570  0.72040  Biso   1.000  H
  H113     1.0000 0.23120  0.02310  0.69230  Biso   1.000  H
  H114     1.0000 0.21920  0.06450  0.67620  Biso   1.000  H
  C105     1.0000 0.20660  0.13420  0.85910  Biso   1.000  C
  H115     1.0000 0.20970  0.14340  0.79990  Biso   1.000  H
  H116     1.0000 0.18060  0.13000  0.87020  Biso   1.000  H
  H117     1.0000 0.22000  0.11130  0.86570  Biso   1.000  H
  Li7      1.0000 0.27980  0.14400  0.74940  Biso   1.000  Li
  H118     1.0000 0.44290  0.18020  0.44130  Biso   1.000  H
  H119     1.0000 0.47170  0.18210  0.51900  Biso   1.000  H
  H120     1.0000 0.42910  0.17930  0.53970  Biso   1.000  H
  H121     1.0000 0.30660  0.23210  0.05990  Biso   1.000  H
  H122     1.0000 0.29170  0.25040  0.97260  Biso   1.000  H
  H123     1.0000 0.31910  0.21660  0.96750  Biso   1.000  H
  H124     1.0000 0.36440  0.03380  0.44010  Biso   1.000  H
  H125     1.0000 0.35880  0.01200  0.52910  Biso   1.000  H
  H126     1.0000 0.36960  0.05420  0.53090  Biso   1.000  H
  Mn8      1.0000 0.64883  0.85608  0.75000  Biso   1.000  Mn
  N22      1.0000 0.68190  0.94550  0.66160  Biso   1.000  N
  N23      1.0000 0.53640  0.86660  0.66270  Biso   1.000  N
  N24      1.0000 0.73780  0.80940  0.82930  Biso   1.000  N
  O64      1.0000 0.64210  0.96700  0.79730  Biso   1.000  O
  O65      1.0000 0.63710  0.90260  0.80690  Biso   1.000  O
  O66      1.0000 0.68170  0.88980  0.67700  Biso   1.000  O
  O67      1.0000 0.53900  0.82380  0.81720  Biso   1.000  O
  O68      1.0000 0.60490  0.82890  0.81900  Biso   1.000  O
  O69      1.0000 0.60850  0.86340  0.65690  Biso   1.000  O
  O70      1.0000 0.68530  0.83990  0.83440  Biso   1.000  O
  O71      1.0000 0.66100  0.80800  0.69370  Biso   1.000  O
  O72      1.0000 0.71370  0.76340  0.69920  Biso   1.000  O
  C106     1.0000 0.64350  0.93590  0.77400  Biso   1.000  C
  C107     1.0000 0.67840  0.92240  0.71530  Biso   1.000  C
  C108     1.0000 0.57150  0.85730  0.69770  Biso   1.000  C
  C109     1.0000 0.56710  0.84290  0.79460  Biso   1.000  C
  C110     1.0000 0.69600  0.79220  0.68800  Biso   1.000  C
  C111     1.0000 0.70950  0.80960  0.77900  Biso   1.000  C
  C112     1.0000 0.70630  0.94930  0.57810  Biso   1.000  C
  C113     1.0000 0.74150  0.95340  0.58420  Biso   1.000  C
  C114     1.0000 0.54080  0.88900  0.57870  Biso   1.000  C
  C115     1.0000 0.75110  0.81060  0.92290  Biso   1.000  C
  C116     1.0000 0.77980  0.83970  0.91940  Biso   1.000  C
  C117     1.0000 0.54580  0.92190  0.60050  Biso   1.000  C
  C118     1.0000 0.55020  0.94310  0.68200  Biso   1.000  C
  H127     1.0000 0.54830  0.92670  0.73170  Biso   1.000  H
  H128     1.0000 0.53110  0.96160  0.68520  Biso   1.000  H
  H129     1.0000 0.57420  0.95490  0.68200  Biso   1.000  H
  C119     1.0000 0.76020  0.95240  0.67720  Biso   1.000  C
  H130     1.0000 0.74240  0.94430  0.72040  Biso   1.000  H
  H131     1.0000 0.76880  0.97690  0.69230  Biso   1.000  H
  H132     1.0000 0.78080  0.93550  0.67620  Biso   1.000  H
  C120     1.0000 0.79340  0.86580  0.85910  Biso   1.000  C
  H133     1.0000 0.79030  0.85660  0.79990  Biso   1.000  H
  H134     1.0000 0.81940  0.87000  0.87020  Biso   1.000  H
  H135     1.0000 0.78000  0.88870  0.86570  Biso   1.000  H
  Li8      1.0000 0.72020  0.85600  0.74940  Biso   1.000  Li
  H136     1.0000 0.55710  0.81980  0.44130  Biso   1.000  H
  H137     1.0000 0.52830  0.81790  0.51900  Biso   1.000  H
  H138     1.0000 0.57090  0.82070  0.53970  Biso   1.000  H
  H139     1.0000 0.69340  0.76790  0.05990  Biso   1.000  H
  H140     1.0000 0.70830  0.74960  0.97260  Biso   1.000  H
  H141     1.0000 0.68090  0.78340  0.96750  Biso   1.000  H
  H142     1.0000 0.63560  0.96620  0.44010  Biso   1.000  H
  H143     1.0000 0.64120  0.98800  0.52910  Biso   1.000  H
  H144     1.0000 0.63040  0.94580  0.53090  Biso   1.000  H
  Mn9      1.0000 0.85608  0.64883  0.75000  Biso   1.000  Mn
  N25      1.0000 0.94550  0.68190  0.66160  Biso   1.000  N
  N26      1.0000 0.86660  0.53640  0.66270  Biso   1.000  N
  N27      1.0000 0.80940  0.73780  0.82930  Biso   1.000  N
  O73      1.0000 0.96700  0.64210  0.79730  Biso   1.000  O
  O74      1.0000 0.90260  0.63710  0.80690  Biso   1.000  O
  O75      1.0000 0.88980  0.68170  0.67700  Biso   1.000  O
  O76      1.0000 0.82380  0.53900  0.81720  Biso   1.000  O
  O77      1.0000 0.82890  0.60490  0.81900  Biso   1.000  O
  O78      1.0000 0.86340  0.60850  0.65690  Biso   1.000  O
  O79      1.0000 0.83990  0.68530  0.83440  Biso   1.000  O
  O80      1.0000 0.80800  0.66100  0.69370  Biso   1.000  O
  O81      1.0000 0.76340  0.71370  0.69920  Biso   1.000  O
  C121     1.0000 0.93590  0.64350  0.77400  Biso   1.000  C
  C122     1.0000 0.92240  0.67840  0.71530  Biso   1.000  C
  C123     1.0000 0.85730  0.57150  0.69770  Biso   1.000  C
  C124     1.0000 0.84290  0.56710  0.79460  Biso   1.000  C
  C125     1.0000 0.79220  0.69600  0.68800  Biso   1.000  C
  C126     1.0000 0.80960  0.70950  0.77900  Biso   1.000  C
  C127     1.0000 0.94930  0.70630  0.57810  Biso   1.000  C
  C128     1.0000 0.95340  0.74150  0.58420  Biso   1.000  C
  C129     1.0000 0.88900  0.54080  0.57870  Biso   1.000  C
  C130     1.0000 0.81060  0.75110  0.92290  Biso   1.000  C
  C131     1.0000 0.83970  0.77980  0.91940  Biso   1.000  C
  C132     1.0000 0.92190  0.54580  0.60050  Biso   1.000  C
  C133     1.0000 0.94310  0.55020  0.68200  Biso   1.000  C
  H145     1.0000 0.92670  0.54830  0.73170  Biso   1.000  H
  H146     1.0000 0.96160  0.53110  0.68520  Biso   1.000  H
  H147     1.0000 0.95490  0.57420  0.68200  Biso   1.000  H
  C134     1.0000 0.95240  0.76020  0.67720  Biso   1.000  C
  H148     1.0000 0.94430  0.74240  0.72040  Biso   1.000  H
  H149     1.0000 0.97690  0.76880  0.69230  Biso   1.000  H
  H150     1.0000 0.93550  0.78080  0.67620  Biso   1.000  H
  C135     1.0000 0.86580  0.79340  0.85910  Biso   1.000  C
  H151     1.0000 0.85660  0.79030  0.79990  Biso   1.000  H
  H152     1.0000 0.87000  0.81940  0.87020  Biso   1.000  H
  H153     1.0000 0.88870  0.78000  0.86570  Biso   1.000  H
  Li9      1.0000 0.85600  0.72020  0.74940  Biso   1.000  Li
  H154     1.0000 0.81980  0.55710  0.44130  Biso   1.000  H
  H155     1.0000 0.81790  0.52830  0.51900  Biso   1.000  H
  H156     1.0000 0.82070  0.57090  0.53970  Biso   1.000  H
  H157     1.0000 0.76790  0.69340  0.05990  Biso   1.000  H
  H158     1.0000 0.74960  0.70830  0.97260  Biso   1.000  H
  H159     1.0000 0.78340  0.68090  0.96750  Biso   1.000  H
  H160     1.0000 0.96620  0.63560  0.44010  Biso   1.000  H
  H161     1.0000 0.98800  0.64120  0.52910  Biso   1.000  H
  H162     1.0000 0.94580  0.63040  0.53090  Biso   1.000  H
  Mn10     1.0000 0.14392  0.35117  0.75000  Biso   1.000  Mn
  N28      1.0000 0.05450  0.31810  0.66160  Biso   1.000  N
  N29      1.0000 0.13340  0.46360  0.66270  Biso   1.000  N
  N30      1.0000 0.19060  0.26220  0.82930  Biso   1.000  N
  O82      1.0000 0.03300  0.35790  0.79730  Biso   1.000  O
  O83      1.0000 0.09740  0.36290  0.80690  Biso   1.000  O
  O84      1.0000 0.11020  0.31830  0.67700  Biso   1.000  O
  O85      1.0000 0.17620  0.46100  0.81720  Biso   1.000  O
  O86      1.0000 0.17110  0.39510  0.81900  Biso   1.000  O
  O87      1.0000 0.13660  0.39150  0.65690  Biso   1.000  O
  O88      1.0000 0.16010  0.31470  0.83440  Biso   1.000  O
  O89      1.0000 0.19200  0.33900  0.69370  Biso   1.000  O
  O90      1.0000 0.23660  0.28630  0.69920  Biso   1.000  O
  C136     1.0000 0.06410  0.35650  0.77400  Biso   1.000  C
  C137     1.0000 0.07760  0.32160  0.71530  Biso   1.000  C
  C138     1.0000 0.14270  0.42850  0.69770  Biso   1.000  C
  C139     1.0000 0.15710  0.43290  0.79460  Biso   1.000  C
  C140     1.0000 0.20780  0.30400  0.68800  Biso   1.000  C
  C141     1.0000 0.19040  0.29050  0.77900  Biso   1.000  C
  C142     1.0000 0.05070  0.29370  0.57810  Biso   1.000  C
  C143     1.0000 0.04660  0.25850  0.58420  Biso   1.000  C
  C144     1.0000 0.11100  0.45920  0.57870  Biso   1.000  C
  C145     1.0000 0.18940  0.24890  0.92290  Biso   1.000  C
  C146     1.0000 0.16030  0.22020  0.91940  Biso   1.000  C
  C147     1.0000 0.07810  0.45420  0.60050  Biso   1.000  C
  C148     1.0000 0.05690  0.44980  0.68200  Biso   1.000  C
  H163     1.0000 0.07330  0.45170  0.73170  Biso   1.000  H
  H164     1.0000 0.03840  0.46890  0.68520  Biso   1.000  H
  H165     1.0000 0.04510  0.42580  0.68200  Biso   1.000  H
  C149     1.0000 0.04760  0.23980  0.67720  Biso   1.000  C
  H166     1.0000 0.05570  0.25760  0.72040  Biso   1.000  H
  H167     1.0000 0.02310  0.23120  0.69230  Biso   1.000  H
  H168     1.0000 0.06450  0.21920  0.67620  Biso   1.000  H
  C150     1.0000 0.13420  0.20660  0.85910  Biso   1.000  C
  H169     1.0000 0.14340  0.20970  0.79990  Biso   1.000  H
  H170     1.0000 0.13000  0.18060  0.87020  Biso   1.000  H
  H171     1.0000 0.11130  0.22000  0.86570  Biso   1.000  H
  Li10     1.0000 0.14400  0.27980  0.74940  Biso   1.000  Li
  H172     1.0000 0.18020  0.44290  0.44130  Biso   1.000  H
  H173     1.0000 0.18210  0.47170  0.51900  Biso   1.000  H
  H174     1.0000 0.17930  0.42910  0.53970  Biso   1.000  H
  H175     1.0000 0.23210  0.30660  0.05990  Biso   1.000  H
  H176     1.0000 0.25040  0.29170  0.97260  Biso   1.000  H
  H177     1.0000 0.21660  0.31910  0.96750  Biso   1.000  H
  H178     1.0000 0.03380  0.36440  0.44010  Biso   1.000  H
  H179     1.0000 0.01200  0.35880  0.52910  Biso   1.000  H
  H180     1.0000 0.05420  0.36960  0.53090  Biso   1.000  H
  Mn11     1.0000 0.35117  0.85608  0.75000  Biso   1.000  Mn
  N31      1.0000 0.31810  0.94550  0.66160  Biso   1.000  N
  N32      1.0000 0.46360  0.86660  0.66270  Biso   1.000  N
  N33      1.0000 0.26220  0.80940  0.82930  Biso   1.000  N
  O91      1.0000 0.35790  0.96700  0.79730  Biso   1.000  O
  O92      1.0000 0.36290  0.90260  0.80690  Biso   1.000  O
  O93      1.0000 0.31830  0.88980  0.67700  Biso   1.000  O
  O94      1.0000 0.46100  0.82380  0.81720  Biso   1.000  O
  O95      1.0000 0.39510  0.82890  0.81900  Biso   1.000  O
  O96      1.0000 0.39150  0.86340  0.65690  Biso   1.000  O
  O97      1.0000 0.31470  0.83990  0.83440  Biso   1.000  O
  O98      1.0000 0.33900  0.80800  0.69370  Biso   1.000  O
  O99      1.0000 0.28630  0.76340  0.69920  Biso   1.000  O
  C151     1.0000 0.35650  0.93590  0.77400  Biso   1.000  C
  C152     1.0000 0.32160  0.92240  0.71530  Biso   1.000  C
  C153     1.0000 0.42850  0.85730  0.69770  Biso   1.000  C
  C154     1.0000 0.43290  0.84290  0.79460  Biso   1.000  C
  C155     1.0000 0.30400  0.79220  0.68800  Biso   1.000  C
  C156     1.0000 0.29050  0.80960  0.77900  Biso   1.000  C
  C157     1.0000 0.29370  0.94930  0.57810  Biso   1.000  C
  C158     1.0000 0.25850  0.95340  0.58420  Biso   1.000  C
  C159     1.0000 0.45920  0.88900  0.57870  Biso   1.000  C
  C160     1.0000 0.24890  0.81060  0.92290  Biso   1.000  C
  C161     1.0000 0.22020  0.83970  0.91940  Biso   1.000  C
  C162     1.0000 0.45420  0.92190  0.60050  Biso   1.000  C
  C163     1.0000 0.44980  0.94310  0.68200  Biso   1.000  C
  H181     1.0000 0.45170  0.92670  0.73170  Biso   1.000  H
  H182     1.0000 0.46890  0.96160  0.68520  Biso   1.000  H
  H183     1.0000 0.42580  0.95490  0.68200  Biso   1.000  H
  C164     1.0000 0.23980  0.95240  0.67720  Biso   1.000  C
  H184     1.0000 0.25760  0.94430  0.72040  Biso   1.000  H
  H185     1.0000 0.23120  0.97690  0.69230  Biso   1.000  H
  H186     1.0000 0.21920  0.93550  0.67620  Biso   1.000  H
  C165     1.0000 0.20660  0.86580  0.85910  Biso   1.000  C
  H187     1.0000 0.20970  0.85660  0.79990  Biso   1.000  H
  H188     1.0000 0.18060  0.87000  0.87020  Biso   1.000  H
  H189     1.0000 0.22000  0.88870  0.86570  Biso   1.000  H
  Li11     1.0000 0.27980  0.85600  0.74940  Biso   1.000  Li
  H190     1.0000 0.44290  0.81980  0.44130  Biso   1.000  H
  H191     1.0000 0.47170  0.81790  0.51900  Biso   1.000  H
  H192     1.0000 0.42910  0.82070  0.53970  Biso   1.000  H
  H193     1.0000 0.30660  0.76790  0.05990  Biso   1.000  H
  H194     1.0000 0.29170  0.74960  0.97260  Biso   1.000  H
  H195     1.0000 0.31910  0.78340  0.96750  Biso   1.000  H
  H196     1.0000 0.36440  0.96620  0.44010  Biso   1.000  H
  H197     1.0000 0.35880  0.98800  0.52910  Biso   1.000  H
  H198     1.0000 0.36960  0.94580  0.53090  Biso   1.000  H
  Mn12     1.0000 0.64883  0.14392  0.75000  Biso   1.000  Mn
  N34      1.0000 0.68190  0.05450  0.66160  Biso   1.000  N
  N35      1.0000 0.53640  0.13340  0.66270  Biso   1.000  N
  N36      1.0000 0.73780  0.19060  0.82930  Biso   1.000  N
  O100     1.0000 0.64210  0.03300  0.79730  Biso   1.000  O
  O101     1.0000 0.63710  0.09740  0.80690  Biso   1.000  O
  O102     1.0000 0.68170  0.11020  0.67700  Biso   1.000  O
  O103     1.0000 0.53900  0.17620  0.81720  Biso   1.000  O
  O104     1.0000 0.60490  0.17110  0.81900  Biso   1.000  O
  O105     1.0000 0.60850  0.13660  0.65690  Biso   1.000  O
  O106     1.0000 0.68530  0.16010  0.83440  Biso   1.000  O
  O107     1.0000 0.66100  0.19200  0.69370  Biso   1.000  O
  O108     1.0000 0.71370  0.23660  0.69920  Biso   1.000  O
  C166     1.0000 0.64350  0.06410  0.77400  Biso   1.000  C
  C167     1.0000 0.67840  0.07760  0.71530  Biso   1.000  C
  C168     1.0000 0.57150  0.14270  0.69770  Biso   1.000  C
  C169     1.0000 0.56710  0.15710  0.79460  Biso   1.000  C
  C170     1.0000 0.69600  0.20780  0.68800  Biso   1.000  C
  C171     1.0000 0.70950  0.19040  0.77900  Biso   1.000  C
  C172     1.0000 0.70630  0.05070  0.57810  Biso   1.000  C
  C173     1.0000 0.74150  0.04660  0.58420  Biso   1.000  C
  C174     1.0000 0.54080  0.11100  0.57870  Biso   1.000  C
  C175     1.0000 0.75110  0.18940  0.92290  Biso   1.000  C
  C176     1.0000 0.77980  0.16030  0.91940  Biso   1.000  C
  C177     1.0000 0.54580  0.07810  0.60050  Biso   1.000  C
  C178     1.0000 0.55020  0.05690  0.68200  Biso   1.000  C
  H199     1.0000 0.54830  0.07330  0.73170  Biso   1.000  H
  H200     1.0000 0.53110  0.03840  0.68520  Biso   1.000  H
  H201     1.0000 0.57420  0.04510  0.68200  Biso   1.000  H
  C179     1.0000 0.76020  0.04760  0.67720  Biso   1.000  C
  H202     1.0000 0.74240  0.05570  0.72040  Biso   1.000  H
  H203     1.0000 0.76880  0.02310  0.69230  Biso   1.000  H
  H204     1.0000 0.78080  0.06450  0.67620  Biso   1.000  H
  C180     1.0000 0.79340  0.13420  0.85910  Biso   1.000  C
  H205     1.0000 0.79030  0.14340  0.79990  Biso   1.000  H
  H206     1.0000 0.81940  0.13000  0.87020  Biso   1.000  H
  H207     1.0000 0.78000  0.11130  0.86570  Biso   1.000  H
  Li12     1.0000 0.72020  0.14400  0.74940  Biso   1.000  Li
  H208     1.0000 0.55710  0.18020  0.44130  Biso   1.000  H
  H209     1.0000 0.52830  0.18210  0.51900  Biso   1.000  H
  H210     1.0000 0.57090  0.17930  0.53970  Biso   1.000  H
  H211     1.0000 0.69340  0.23210  0.05990  Biso   1.000  H
  H212     1.0000 0.70830  0.25040  0.97260  Biso   1.000  H
  H213     1.0000 0.68090  0.21660  0.96750  Biso   1.000  H
  H214     1.0000 0.63560  0.03380  0.44010  Biso   1.000  H
  H215     1.0000 0.64120  0.01200  0.52910  Biso   1.000  H
  H216     1.0000 0.63040  0.05420  0.53090  Biso   1.000  H
  Mn13     1.0000 0.14392  0.64883  0.25000  Biso   1.000  Mn
  N37      1.0000 0.05450  0.68190  0.33840  Biso   1.000  N
  N38      1.0000 0.13340  0.53640  0.33730  Biso   1.000  N
  N39      1.0000 0.19060  0.73780  0.17070  Biso   1.000  N
  O109     1.0000 0.03300  0.64210  0.20270  Biso   1.000  O
  O110     1.0000 0.09740  0.63710  0.19310  Biso   1.000  O
  O111     1.0000 0.11020  0.68170  0.32300  Biso   1.000  O
  O112     1.0000 0.17620  0.53900  0.18280  Biso   1.000  O
  O113     1.0000 0.17110  0.60490  0.18100  Biso   1.000  O
  O114     1.0000 0.13660  0.60850  0.34310  Biso   1.000  O
  O115     1.0000 0.16010  0.68530  0.16560  Biso   1.000  O
  O116     1.0000 0.19200  0.66100  0.30630  Biso   1.000  O
  O117     1.0000 0.23660  0.71370  0.30080  Biso   1.000  O
  C181     1.0000 0.06410  0.64350  0.22600  Biso   1.000  C
  C182     1.0000 0.07760  0.67840  0.28470  Biso   1.000  C
  C183     1.0000 0.14270  0.57150  0.30230  Biso   1.000  C
  C184     1.0000 0.15710  0.56710  0.20540  Biso   1.000  C
  C185     1.0000 0.20780  0.69600  0.31200  Biso   1.000  C
  C186     1.0000 0.19040  0.70950  0.22100  Biso   1.000  C
  C187     1.0000 0.05070  0.70630  0.42190  Biso   1.000  C
  C188     1.0000 0.04660  0.74150  0.41580  Biso   1.000  C
  C189     1.0000 0.11100  0.54080  0.42130  Biso   1.000  C
  C190     1.0000 0.18940  0.75110  0.07710  Biso   1.000  C
  C191     1.0000 0.16030  0.77980  0.08060  Biso   1.000  C
  C192     1.0000 0.07810  0.54580  0.39950  Biso   1.000  C
  C193     1.0000 0.05690  0.55020  0.31800  Biso   1.000  C
  H217     1.0000 0.07330  0.54830  0.26830  Biso   1.000  H
  H218     1.0000 0.03840  0.53110  0.31480  Biso   1.000  H
  H219     1.0000 0.04510  0.57420  0.31800  Biso   1.000  H
  C194     1.0000 0.04760  0.76020  0.32280  Biso   1.000  C
  H220     1.0000 0.05570  0.74240  0.27960  Biso   1.000  H
  H221     1.0000 0.02310  0.76880  0.30770  Biso   1.000  H
  H222     1.0000 0.06450  0.78080  0.32380  Biso   1.000  H
  C195     1.0000 0.13420  0.79340  0.14090  Biso   1.000  C
  H223     1.0000 0.14340  0.79030  0.20010  Biso   1.000  H
  H224     1.0000 0.13000  0.81940  0.12980  Biso   1.000  H
  H225     1.0000 0.11130  0.78000  0.13430  Biso   1.000  H
  Li13     1.0000 0.14400  0.72020  0.25060  Biso   1.000  Li
  H226     1.0000 0.18020  0.55710  0.55870  Biso   1.000  H
  H227     1.0000 0.18210  0.52830  0.48100  Biso   1.000  H
  H228     1.0000 0.17930  0.57090  0.46030  Biso   1.000  H
  H229     1.0000 0.23210  0.69340  0.94010  Biso   1.000  H
  H230     1.0000 0.25040  0.70830  0.02740  Biso   1.000  H
  H231     1.0000 0.21660  0.68090  0.03250  Biso   1.000  H
  H232     1.0000 0.03380  0.63560  0.55990  Biso   1.000  H
  H233     1.0000 0.01200  0.64120  0.47090  Biso   1.000  H
  H234     1.0000 0.05420  0.63040  0.46910  Biso   1.000  H
  Mn14     1.0000 0.85608  0.35117  0.25000  Biso   1.000  Mn
  N40      1.0000 0.94550  0.31810  0.33840  Biso   1.000  N
  N41      1.0000 0.86660  0.46360  0.33730  Biso   1.000  N
  N42      1.0000 0.80940  0.26220  0.17070  Biso   1.000  N
  O118     1.0000 0.96700  0.35790  0.20270  Biso   1.000  O
  O119     1.0000 0.90260  0.36290  0.19310  Biso   1.000  O
  O120     1.0000 0.88980  0.31830  0.32300  Biso   1.000  O
  O121     1.0000 0.82380  0.46100  0.18280  Biso   1.000  O
  O122     1.0000 0.82890  0.39510  0.18100  Biso   1.000  O
  O123     1.0000 0.86340  0.39150  0.34310  Biso   1.000  O
  O124     1.0000 0.83990  0.31470  0.16560  Biso   1.000  O
  O125     1.0000 0.80800  0.33900  0.30630  Biso   1.000  O
  O126     1.0000 0.76340  0.28630  0.30080  Biso   1.000  O
  C196     1.0000 0.93590  0.35650  0.22600  Biso   1.000  C
  C197     1.0000 0.92240  0.32160  0.28470  Biso   1.000  C
  C198     1.0000 0.85730  0.42850  0.30230  Biso   1.000  C
  C199     1.0000 0.84290  0.43290  0.20540  Biso   1.000  C
  C200     1.0000 0.79220  0.30400  0.31200  Biso   1.000  C
  C201     1.0000 0.80960  0.29050  0.22100  Biso   1.000  C
  C202     1.0000 0.94930  0.29370  0.42190  Biso   1.000  C
  C203     1.0000 0.95340  0.25850  0.41580  Biso   1.000  C
  C204     1.0000 0.88900  0.45920  0.42130  Biso   1.000  C
  C205     1.0000 0.81060  0.24890  0.07710  Biso   1.000  C
  C206     1.0000 0.83970  0.22020  0.08060  Biso   1.000  C
  C207     1.0000 0.92190  0.45420  0.39950  Biso   1.000  C
  C208     1.0000 0.94310  0.44980  0.31800  Biso   1.000  C
  H235     1.0000 0.92670  0.45170  0.26830  Biso   1.000  H
  H236     1.0000 0.96160  0.46890  0.31480  Biso   1.000  H
  H237     1.0000 0.95490  0.42580  0.31800  Biso   1.000  H
  C209     1.0000 0.95240  0.23980  0.32280  Biso   1.000  C
  H238     1.0000 0.94430  0.25760  0.27960  Biso   1.000  H
  H239     1.0000 0.97690  0.23120  0.30770  Biso   1.000  H
  H240     1.0000 0.93550  0.21920  0.32380  Biso   1.000  H
  C210     1.0000 0.86580  0.20660  0.14090  Biso   1.000  C
  H241     1.0000 0.85660  0.20970  0.20010  Biso   1.000  H
  H242     1.0000 0.87000  0.18060  0.12980  Biso   1.000  H
  H243     1.0000 0.88870  0.22000  0.13430  Biso   1.000  H
  Li14     1.0000 0.85600  0.27980  0.25060  Biso   1.000  Li
  H244     1.0000 0.81980  0.44290  0.55870  Biso   1.000  H
  H245     1.0000 0.81790  0.47170  0.48100  Biso   1.000  H
  H246     1.0000 0.82070  0.42910  0.46030  Biso   1.000  H
  H247     1.0000 0.76790  0.30660  0.94010  Biso   1.000  H
  H248     1.0000 0.74960  0.29170  0.02740  Biso   1.000  H
  H249     1.0000 0.78340  0.31910  0.03250  Biso   1.000  H
  H250     1.0000 0.96620  0.36440  0.55990  Biso   1.000  H
  H251     1.0000 0.98800  0.35880  0.47090  Biso   1.000  H
  H252     1.0000 0.94580  0.36960  0.46910  Biso   1.000  H
  Mn15     1.0000 0.64883  0.85608  0.25000  Biso   1.000  Mn
  N43      1.0000 0.68190  0.94550  0.33840  Biso   1.000  N
  N44      1.0000 0.53640  0.86660  0.33730  Biso   1.000  N
  N45      1.0000 0.73780  0.80940  0.17070  Biso   1.000  N
  O127     1.0000 0.64210  0.96700  0.20270  Biso   1.000  O
  O128     1.0000 0.63710  0.90260  0.19310  Biso   1.000  O
  O129     1.0000 0.68170  0.88980  0.32300  Biso   1.000  O
  O130     1.0000 0.53900  0.82380  0.18280  Biso   1.000  O
  O131     1.0000 0.60490  0.82890  0.18100  Biso   1.000  O
  O132     1.0000 0.60850  0.86340  0.34310  Biso   1.000  O
  O133     1.0000 0.68530  0.83990  0.16560  Biso   1.000  O
  O134     1.0000 0.66100  0.80800  0.30630  Biso   1.000  O
  O135     1.0000 0.71370  0.76340  0.30080  Biso   1.000  O
  C211     1.0000 0.64350  0.93590  0.22600  Biso   1.000  C
  C212     1.0000 0.67840  0.92240  0.28470  Biso   1.000  C
  C213     1.0000 0.57150  0.85730  0.30230  Biso   1.000  C
  C214     1.0000 0.56710  0.84290  0.20540  Biso   1.000  C
  C215     1.0000 0.69600  0.79220  0.31200  Biso   1.000  C
  C216     1.0000 0.70950  0.80960  0.22100  Biso   1.000  C
  C217     1.0000 0.70630  0.94930  0.42190  Biso   1.000  C
  C218     1.0000 0.74150  0.95340  0.41580  Biso   1.000  C
  C219     1.0000 0.54080  0.88900  0.42130  Biso   1.000  C
  C220     1.0000 0.75110  0.81060  0.07710  Biso   1.000  C
  C221     1.0000 0.77980  0.83970  0.08060  Biso   1.000  C
  C222     1.0000 0.54580  0.92190  0.39950  Biso   1.000  C
  C223     1.0000 0.55020  0.94310  0.31800  Biso   1.000  C
  H253     1.0000 0.54830  0.92670  0.26830  Biso   1.000  H
  H254     1.0000 0.53110  0.96160  0.31480  Biso   1.000  H
  H255     1.0000 0.57420  0.95490  0.31800  Biso   1.000  H
  C224     1.0000 0.76020  0.95240  0.32280  Biso   1.000  C
  H256     1.0000 0.74240  0.94430  0.27960  Biso   1.000  H
  H257     1.0000 0.76880  0.97690  0.30770  Biso   1.000  H
  H258     1.0000 0.78080  0.93550  0.32380  Biso   1.000  H
  C225     1.0000 0.79340  0.86580  0.14090  Biso   1.000  C
  H259     1.0000 0.79030  0.85660  0.20010  Biso   1.000  H
  H260     1.0000 0.81940  0.87000  0.12980  Biso   1.000  H
  H261     1.0000 0.78000  0.88870  0.13430  Biso   1.000  H
  Li15     1.0000 0.72020  0.85600  0.25060  Biso   1.000  Li
  H262     1.0000 0.55710  0.81980  0.55870  Biso   1.000  H
  H263     1.0000 0.52830  0.81790  0.48100  Biso   1.000  H
  H264     1.0000 0.57090  0.82070  0.46030  Biso   1.000  H
  H265     1.0000 0.69340  0.76790  0.94010  Biso   1.000  H
  H266     1.0000 0.70830  0.74960  0.02740  Biso   1.000  H
  H267     1.0000 0.68090  0.78340  0.03250  Biso   1.000  H
  H268     1.0000 0.63560  0.96620  0.55990  Biso   1.000  H
  H269     1.0000 0.64120  0.98800  0.47090  Biso   1.000  H
  H270     1.0000 0.63040  0.94580  0.46910  Biso   1.000  H
  Mn16     1.0000 0.35117  0.14392  0.25000  Biso   1.000  Mn
  N46      1.0000 0.31810  0.05450  0.33840  Biso   1.000  N
  N47      1.0000 0.46360  0.13340  0.33730  Biso   1.000  N
  N48      1.0000 0.26220  0.19060  0.17070  Biso   1.000  N
  O136     1.0000 0.35790  0.03300  0.20270  Biso   1.000  O
  O137     1.0000 0.36290  0.09740  0.19310  Biso   1.000  O
  O138     1.0000 0.31830  0.11020  0.32300  Biso   1.000  O
  O139     1.0000 0.46100  0.17620  0.18280  Biso   1.000  O
  O140     1.0000 0.39510  0.17110  0.18100  Biso   1.000  O
  O141     1.0000 0.39150  0.13660  0.34310  Biso   1.000  O
  O142     1.0000 0.31470  0.16010  0.16560  Biso   1.000  O
  O143     1.0000 0.33900  0.19200  0.30630  Biso   1.000  O
  O144     1.0000 0.28630  0.23660  0.30080  Biso   1.000  O
  C226     1.0000 0.35650  0.06410  0.22600  Biso   1.000  C
  C227     1.0000 0.32160  0.07760  0.28470  Biso   1.000  C
  C228     1.0000 0.42850  0.14270  0.30230  Biso   1.000  C
  C229     1.0000 0.43290  0.15710  0.20540  Biso   1.000  C
  C230     1.0000 0.30400  0.20780  0.31200  Biso   1.000  C
  C231     1.0000 0.29050  0.19040  0.22100  Biso   1.000  C
  C232     1.0000 0.29370  0.05070  0.42190  Biso   1.000  C
  C233     1.0000 0.25850  0.04660  0.41580  Biso   1.000  C
  C234     1.0000 0.45920  0.11100  0.42130  Biso   1.000  C
  C235     1.0000 0.24890  0.18940  0.07710  Biso   1.000  C
  C236     1.0000 0.22020  0.16030  0.08060  Biso   1.000  C
  C237     1.0000 0.45420  0.07810  0.39950  Biso   1.000  C
  C238     1.0000 0.44980  0.05690  0.31800  Biso   1.000  C
  H271     1.0000 0.45170  0.07330  0.26830  Biso   1.000  H
  H272     1.0000 0.46890  0.03840  0.31480  Biso   1.000  H
  H273     1.0000 0.42580  0.04510  0.31800  Biso   1.000  H
  C239     1.0000 0.23980  0.04760  0.32280  Biso   1.000  C
  H274     1.0000 0.25760  0.05570  0.27960  Biso   1.000  H
  H275     1.0000 0.23120  0.02310  0.30770  Biso   1.000  H
  H276     1.0000 0.21920  0.06450  0.32380  Biso   1.000  H
  C240     1.0000 0.20660  0.13420  0.14090  Biso   1.000  C
  H277     1.0000 0.20970  0.14340  0.20010  Biso   1.000  H
  H278     1.0000 0.18060  0.13000  0.12980  Biso   1.000  H
  H279     1.0000 0.22000  0.11130  0.13430  Biso   1.000  H
  Li16     1.0000 0.27980  0.14400  0.25060  Biso   1.000  Li
  H280     1.0000 0.44290  0.18020  0.55870  Biso   1.000  H
  H281     1.0000 0.47170  0.18210  0.48100  Biso   1.000  H
  H282     1.0000 0.42910  0.17930  0.46030  Biso   1.000  H
  H283     1.0000 0.30660  0.23210  0.94010  Biso   1.000  H
  H284     1.0000 0.29170  0.25040  0.02740  Biso   1.000  H
  H285     1.0000 0.31910  0.21660  0.03250  Biso   1.000  H
  H286     1.0000 0.36440  0.03380  0.55990  Biso   1.000  H
  H287     1.0000 0.35880  0.01200  0.47090  Biso   1.000  H
  H288     1.0000 0.36960  0.05420  0.46910  Biso   1.000  H
  Cu1      1.0000 0.00000  0.33016  0.27270  Biso   1.000  Cu
  Cu2      1.0000 0.00000  0.66984  0.27270  Biso   1.000  Cu
  Cu3      1.0000 0.66984  0.00000  0.27270  Biso   1.000  Cu
  Cu4      1.0000 0.33016  0.00000  0.27270  Biso   1.000  Cu
  Cu5      1.0000 0.00000  0.33016  0.72730  Biso   1.000  Cu
  Cu6      1.0000 0.00000  0.66984  0.72730  Biso   1.000  Cu
  Cu7      1.0000 0.33016  0.00000  0.72730  Biso   1.000  Cu
  Cu8      1.0000 0.66984  0.00000  0.72730  Biso   1.000  Cu
  Cu9      1.0000 0.14874  0.50000  0.26940  Biso   1.000  Cu
  Cu10     1.0000 0.85126  0.50000  0.26940  Biso   1.000  Cu
  Cu11     1.0000 0.50000  0.14874  0.26940  Biso   1.000  Cu
  Cu12     1.0000 0.50000  0.85126  0.26940  Biso   1.000  Cu
  Cu13     1.0000 0.85126  0.50000  0.73060  Biso   1.000  Cu
  Cu14     1.0000 0.14874  0.50000  0.73060  Biso   1.000  Cu
  Cu15     1.0000 0.50000  0.14874  0.73060  Biso   1.000  Cu
  Cu16     1.0000 0.50000  0.85126  0.73060  Biso   1.000  Cu
  Cu17     1.0000 0.24185  0.24185  0.23350  Biso   1.000  Cu
  Cu18     1.0000 0.75815  0.75815  0.23350  Biso   1.000  Cu
  Cu19     1.0000 0.75815  0.24185  0.23350  Biso   1.000  Cu
  Cu20     1.0000 0.24185  0.75815  0.23350  Biso   1.000  Cu
  Cu21     1.0000 0.75815  0.24185  0.76650  Biso   1.000  Cu
  Cu22     1.0000 0.24185  0.75815  0.76650  Biso   1.000  Cu
  Cu23     1.0000 0.24185  0.24185  0.76650  Biso   1.000  Cu
  Cu24     1.0000 0.75815  0.75815  0.76650  Biso   1.000  Cu
  C241     1.0000 0.04630  0.31370  0.50000  Biso   1.000  C
  C242     1.0000 0.03600  0.24150  0.50000  Biso   1.000  C
  H289     1.0000 0.02220  0.21950  0.50000  Biso   1.000  H
  C243     1.0000 0.13110  0.45100  0.50000  Biso   1.000  C
  C244     1.0000 0.17170  0.44840  0.50000  Biso   1.000  C
  C245     1.0000 0.06520  0.45340  0.50000  Biso   1.000  C
  H290     1.0000 0.03940  0.45170  0.50000  Biso   1.000  H
  C246     1.0000 0.03550  0.35560  0.50000  Biso   1.000  C
  C247     1.0000 0.95370  0.68630  0.50000  Biso   1.000  C
  C248     1.0000 0.96400  0.75850  0.50000  Biso   1.000  C
  H291     1.0000 0.97780  0.78050  0.50000  Biso   1.000  H
  C249     1.0000 0.86890  0.54900  0.50000  Biso   1.000  C
  C250     1.0000 0.82830  0.55160  0.50000  Biso   1.000  C
  C251     1.0000 0.93480  0.54660  0.50000  Biso   1.000  C
  H292     1.0000 0.96060  0.54830  0.50000  Biso   1.000  H
  C252     1.0000 0.96450  0.64440  0.50000  Biso   1.000  C
  C253     1.0000 0.68630  0.04630  0.50000  Biso   1.000  C
  C254     1.0000 0.75850  0.03600  0.50000  Biso   1.000  C
  H293     1.0000 0.78050  0.02220  0.50000  Biso   1.000  H
  C255     1.0000 0.54900  0.13110  0.50000  Biso   1.000  C
  C256     1.0000 0.55160  0.17170  0.50000  Biso   1.000  C
  C257     1.0000 0.54660  0.06520  0.50000  Biso   1.000  C
  H294     1.0000 0.54830  0.03940  0.50000  Biso   1.000  H
  C258     1.0000 0.64440  0.03550  0.50000  Biso   1.000  C
  C259     1.0000 0.31370  0.95370  0.50000  Biso   1.000  C
  C260     1.0000 0.24150  0.96400  0.50000  Biso   1.000  C
  H295     1.0000 0.21950  0.97780  0.50000  Biso   1.000  H
  C261     1.0000 0.45100  0.86890  0.50000  Biso   1.000  C
  C262     1.0000 0.44840  0.82830  0.50000  Biso   1.000  C
  C263     1.0000 0.45340  0.93480  0.50000  Biso   1.000  C
  H296     1.0000 0.45170  0.96060  0.50000  Biso   1.000  H
  C264     1.0000 0.35560  0.96450  0.50000  Biso   1.000  C
  C265     1.0000 0.95370  0.31370  0.50000  Biso   1.000  C
  C266     1.0000 0.96400  0.24150  0.50000  Biso   1.000  C
  H297     1.0000 0.97780  0.21950  0.50000  Biso   1.000  H
  C267     1.0000 0.86890  0.45100  0.50000  Biso   1.000  C
  C268     1.0000 0.82830  0.44840  0.50000  Biso   1.000  C
  C269     1.0000 0.93480  0.45340  0.50000  Biso   1.000  C
  H298     1.0000 0.96060  0.45170  0.50000  Biso   1.000  H
  C270     1.0000 0.96450  0.35560  0.50000  Biso   1.000  C
  C271     1.0000 0.04630  0.68630  0.50000  Biso   1.000  C
  C272     1.0000 0.03600  0.75850  0.50000  Biso   1.000  C
  H299     1.0000 0.02220  0.78050  0.50000  Biso   1.000  H
  C273     1.0000 0.13110  0.54900  0.50000  Biso   1.000  C
  C274     1.0000 0.17170  0.55160  0.50000  Biso   1.000  C
  C275     1.0000 0.06520  0.54660  0.50000  Biso   1.000  C
  H300     1.0000 0.03940  0.54830  0.50000  Biso   1.000  H
  C276     1.0000 0.03550  0.64440  0.50000  Biso   1.000  C
  C277     1.0000 0.31370  0.04630  0.50000  Biso   1.000  C
  C278     1.0000 0.24150  0.03600  0.50000  Biso   1.000  C
  H301     1.0000 0.21950  0.02220  0.50000  Biso   1.000  H
  C279     1.0000 0.45100  0.13110  0.50000  Biso   1.000  C
  C280     1.0000 0.44840  0.17170  0.50000  Biso   1.000  C
  C281     1.0000 0.45340  0.06520  0.50000  Biso   1.000  C
  H302     1.0000 0.45170  0.03940  0.50000  Biso   1.000  H
  C282     1.0000 0.35560  0.03550  0.50000  Biso   1.000  C
  C283     1.0000 0.68630  0.95370  0.50000  Biso   1.000  C
  C284     1.0000 0.75850  0.96400  0.50000  Biso   1.000  C
  H303     1.0000 0.78050  0.97780  0.50000  Biso   1.000  H
  C285     1.0000 0.54900  0.86890  0.50000  Biso   1.000  C
  C286     1.0000 0.55160  0.82830  0.50000  Biso   1.000  C
  C287     1.0000 0.54660  0.93480  0.50000  Biso   1.000  C
  H304     1.0000 0.54830  0.96060  0.50000  Biso   1.000  H
  C288     1.0000 0.64440  0.96450  0.50000  Biso   1.000  C
  C289     1.0000 0.20010  0.26530  0.00000  Biso   1.000  C
  C290     1.0000 0.22740  0.29890  0.00000  Biso   1.000  C
  C291     1.0000 0.13550  0.20970  0.00000  Biso   1.000  C
  H305     1.0000 0.11170  0.19960  0.00000  Biso   1.000  H
  C292     1.0000 0.79990  0.73470  0.00000  Biso   1.000  C
  C293     1.0000 0.77260  0.70110  0.00000  Biso   1.000  C
  C294     1.0000 0.86450  0.79030  0.00000  Biso   1.000  C
  H306     1.0000 0.88830  0.80040  0.00000  Biso   1.000  H
  C295     1.0000 0.73470  0.20010  0.00000  Biso   1.000  C
  C296     1.0000 0.70110  0.22740  0.00000  Biso   1.000  C
  C297     1.0000 0.79030  0.13550  0.00000  Biso   1.000  C
  H307     1.0000 0.80040  0.11170  0.00000  Biso   1.000  H
  C298     1.0000 0.26530  0.79990  0.00000  Biso   1.000  C
  C299     1.0000 0.29890  0.77260  0.00000  Biso   1.000  C
  C300     1.0000 0.20970  0.86450  0.00000  Biso   1.000  C
  H308     1.0000 0.19960  0.88830  0.00000  Biso   1.000  H
  C301     1.0000 0.79990  0.26530  0.00000  Biso   1.000  C
  C302     1.0000 0.77260  0.29890  0.00000  Biso   1.000  C
  C303     1.0000 0.86450  0.20970  0.00000  Biso   1.000  C
  H309     1.0000 0.88830  0.19960  0.00000  Biso   1.000  H
  C304     1.0000 0.20010  0.73470  0.00000  Biso   1.000  C
  C305     1.0000 0.22740  0.70110  0.00000  Biso   1.000  C
  C306     1.0000 0.13550  0.79030  0.00000  Biso   1.000  C
  H310     1.0000 0.11170  0.80040  0.00000  Biso   1.000  H
  C307     1.0000 0.26530  0.20010  0.00000  Biso   1.000  C
  C308     1.0000 0.29890  0.22740  0.00000  Biso   1.000  C
  C309     1.0000 0.20970  0.13550  0.00000  Biso   1.000  C
  H311     1.0000 0.19960  0.11170  0.00000  Biso   1.000  H
  C310     1.0000 0.73470  0.79990  0.00000  Biso   1.000  C
  C311     1.0000 0.70110  0.77260  0.00000  Biso   1.000  C
  C312     1.0000 0.79030  0.86450  0.00000  Biso   1.000  C
  H312     1.0000 0.80040  0.88830  0.00000  Biso   1.000  H
