data_image0
_cell_length_a       37.492
_cell_length_b       37.492
_cell_length_c       15.557
_cell_angle_alpha    90
_cell_angle_beta     90
_cell_angle_gamma    90

_symmetry_space_group_name_H-M    "P 1"
_symmetry_int_tables_number       1

loop_
  _symmetry_equiv_pos_as_xyz
  'x, y, z'

loop_
  _atom_site_label
  _atom_site_occupancy
  _atom_site_fract_x
  _atom_site_fract_y
  _atom_site_fract_z
  _atom_site_thermal_displace_type
  _atom_site_B_iso_or_equiv
  _atom_site_type_symbol
  Mn1      1.0000 0.14613  0.35170  0.24810  Biso   1.000  Mn
  N1       1.0000 0.04820  0.31770  0.34040  Biso   1.000  N
  N2       1.0000 0.13430  0.45660  0.33850  Biso   1.000  N
  N3       1.0000 0.19890  0.26150  0.16070  Biso   1.000  N
  O1       1.0000 0.03410  0.35780  0.20090  Biso   1.000  O
  O2       1.0000 0.09580  0.36480  0.18600  Biso   1.000  O
  O3       1.0000 0.10620  0.31810  0.32460  Biso   1.000  O
  O4       1.0000 0.17220  0.46090  0.19120  Biso   1.000  O
  O5       1.0000 0.16960  0.39950  0.18400  Biso   1.000  O
  O6       1.0000 0.13750  0.39310  0.33630  Biso   1.000  O
  O7       1.0000 0.16090  0.31190  0.16660  Biso   1.000  O
  O8       1.0000 0.19450  0.33290  0.31180  Biso   1.000  O
  O9       1.0000 0.23330  0.28460  0.30190  Biso   1.000  O
  C1       1.0000 0.06580  0.35480  0.22520  Biso   1.000  C
  C2       1.0000 0.07480  0.32790  0.30550  Biso   1.000  C
  C3       1.0000 0.14320  0.42640  0.30530  Biso   1.000  C
  C4       1.0000 0.15720  0.43060  0.21270  Biso   1.000  C
  C5       1.0000 0.20640  0.30040  0.27960  Biso   1.000  C
  C6       1.0000 0.18770  0.29060  0.19610  Biso   1.000  C
  C7       1.0000 0.04400  0.29560  0.42260  Biso   1.000  C
  C8       1.0000 0.04870  0.25890  0.42060  Biso   1.000  C
  C9       1.0000 0.11300  0.45550  0.42500  Biso   1.000  C
  C10      1.0000 0.18270  0.24780  0.07810  Biso   1.000  C
  C11      1.0000 0.15160  0.22220  0.07280  Biso   1.000  C
  C12      1.0000 0.07980  0.45380  0.42110  Biso   1.000  C
  C13      1.0000 0.05520  0.44730  0.33350  Biso   1.000  C
  H1       1.0000 0.07050  0.44820  0.28250  Biso   1.000  H
  H2       1.0000 0.03690  0.46600  0.32960  Biso   1.000  H
  H3       1.0000 0.04360  0.42390  0.33690  Biso   1.000  H
  C14      1.0000 0.04790  0.23790  0.33130  Biso   1.000  C
  H4       1.0000 0.04850  0.25500  0.28370  Biso   1.000  H
  H5       1.0000 0.02610  0.22360  0.32780  Biso   1.000  H
  H6       1.0000 0.06870  0.22210  0.32760  Biso   1.000  H
  K1       1.0000 0.21560  0.42560  0.06780  Biso   1.000  K
  H7       1.0000 0.17870  0.45930  0.55820  Biso   1.000  H
  H8       1.0000 0.18050  0.47270  0.46060  Biso   1.000  H
  H9       1.0000 0.17490  0.43130  0.48120  Biso   1.000  H
  H10      1.0000 0.23240  0.29700  0.94060  Biso   1.000  H
  H11      1.0000 0.24700  0.28300  0.03120  Biso   1.000  H
  H12      1.0000 0.21620  0.31250  0.02820  Biso   1.000  H
  Mn2      1.0000 0.85387  0.64830  0.24810  Biso   1.000  Mn
  N4       1.0000 0.95180  0.68230  0.34040  Biso   1.000  N
  N5       1.0000 0.86570  0.54340  0.33850  Biso   1.000  N
  N6       1.0000 0.80110  0.73850  0.16070  Biso   1.000  N
  O10      1.0000 0.96590  0.64220  0.20090  Biso   1.000  O
  O11      1.0000 0.90420  0.63520  0.18600  Biso   1.000  O
  O12      1.0000 0.89380  0.68190  0.32460  Biso   1.000  O
  O13      1.0000 0.82780  0.53910  0.19120  Biso   1.000  O
  O14      1.0000 0.83040  0.60050  0.18400  Biso   1.000  O
  O15      1.0000 0.86250  0.60690  0.33630  Biso   1.000  O
  O16      1.0000 0.83910  0.68810  0.16660  Biso   1.000  O
  O17      1.0000 0.80550  0.66710  0.31180  Biso   1.000  O
  O18      1.0000 0.76670  0.71540  0.30190  Biso   1.000  O
  C15      1.0000 0.93420  0.64520  0.22520  Biso   1.000  C
  C16      1.0000 0.92520  0.67210  0.30550  Biso   1.000  C
  C17      1.0000 0.85680  0.57360  0.30530  Biso   1.000  C
  C18      1.0000 0.84280  0.56940  0.21270  Biso   1.000  C
  C19      1.0000 0.79360  0.69960  0.27960  Biso   1.000  C
  C20      1.0000 0.81230  0.70940  0.19610  Biso   1.000  C
  C21      1.0000 0.95600  0.70440  0.42260  Biso   1.000  C
  C22      1.0000 0.95130  0.74110  0.42060  Biso   1.000  C
  C23      1.0000 0.88700  0.54450  0.42500  Biso   1.000  C
  C24      1.0000 0.81730  0.75220  0.07810  Biso   1.000  C
  C25      1.0000 0.84840  0.77780  0.07280  Biso   1.000  C
  C26      1.0000 0.92020  0.54620  0.42110  Biso   1.000  C
  C27      1.0000 0.94480  0.55270  0.33350  Biso   1.000  C
  H13      1.0000 0.92950  0.55180  0.28250  Biso   1.000  H
  H14      1.0000 0.96310  0.53400  0.32960  Biso   1.000  H
  H15      1.0000 0.95640  0.57610  0.33690  Biso   1.000  H
  C28      1.0000 0.95210  0.76210  0.33130  Biso   1.000  C
  H16      1.0000 0.95150  0.74500  0.28370  Biso   1.000  H
  H17      1.0000 0.97390  0.77640  0.32780  Biso   1.000  H
  H18      1.0000 0.93130  0.77790  0.32760  Biso   1.000  H
  K2       1.0000 0.78440  0.57440  0.06780  Biso   1.000  K
  H19      1.0000 0.82130  0.54070  0.55820  Biso   1.000  H
  H20      1.0000 0.81950  0.52730  0.46060  Biso   1.000  H
  H21      1.0000 0.82510  0.56870  0.48120  Biso   1.000  H
  H22      1.0000 0.76760  0.70300  0.94060  Biso   1.000  H
  H23      1.0000 0.75300  0.71700  0.03120  Biso   1.000  H
  H24      1.0000 0.78380  0.68750  0.02820  Biso   1.000  H
  Mn3      1.0000 0.64830  0.14613  0.24810  Biso   1.000  Mn
  N7       1.0000 0.68230  0.04820  0.34040  Biso   1.000  N
  N8       1.0000 0.54340  0.13430  0.33850  Biso   1.000  N
  N9       1.0000 0.73850  0.19890  0.16070  Biso   1.000  N
  O19      1.0000 0.64220  0.03410  0.20090  Biso   1.000  O
  O20      1.0000 0.63520  0.09580  0.18600  Biso   1.000  O
  O21      1.0000 0.68190  0.10620  0.32460  Biso   1.000  O
  O22      1.0000 0.53910  0.17220  0.19120  Biso   1.000  O
  O23      1.0000 0.60050  0.16960  0.18400  Biso   1.000  O
  O24      1.0000 0.60690  0.13750  0.33630  Biso   1.000  O
  O25      1.0000 0.68810  0.16090  0.16660  Biso   1.000  O
  O26      1.0000 0.66710  0.19450  0.31180  Biso   1.000  O
  O27      1.0000 0.71540  0.23330  0.30190  Biso   1.000  O
  C29      1.0000 0.64520  0.06580  0.22520  Biso   1.000  C
  C30      1.0000 0.67210  0.07480  0.30550  Biso   1.000  C
  C31      1.0000 0.57360  0.14320  0.30530  Biso   1.000  C
  C32      1.0000 0.56940  0.15720  0.21270  Biso   1.000  C
  C33      1.0000 0.69960  0.20640  0.27960  Biso   1.000  C
  C34      1.0000 0.70940  0.18770  0.19610  Biso   1.000  C
  C35      1.0000 0.70440  0.04400  0.42260  Biso   1.000  C
  C36      1.0000 0.74110  0.04870  0.42060  Biso   1.000  C
  C37      1.0000 0.54450  0.11300  0.42500  Biso   1.000  C
  C38      1.0000 0.75220  0.18270  0.07810  Biso   1.000  C
  C39      1.0000 0.77780  0.15160  0.07280  Biso   1.000  C
  C40      1.0000 0.54620  0.07980  0.42110  Biso   1.000  C
  C41      1.0000 0.55270  0.05520  0.33350  Biso   1.000  C
  H25      1.0000 0.55180  0.07050  0.28250  Biso   1.000  H
  H26      1.0000 0.53400  0.03690  0.32960  Biso   1.000  H
  H27      1.0000 0.57610  0.04360  0.33690  Biso   1.000  H
  C42      1.0000 0.76210  0.04790  0.33130  Biso   1.000  C
  H28      1.0000 0.74500  0.04850  0.28370  Biso   1.000  H
  H29      1.0000 0.77640  0.02610  0.32780  Biso   1.000  H
  H30      1.0000 0.77790  0.06870  0.32760  Biso   1.000  H
  K3       1.0000 0.57440  0.21560  0.06780  Biso   1.000  K
  H31      1.0000 0.54070  0.17870  0.55820  Biso   1.000  H
  H32      1.0000 0.52730  0.18050  0.46060  Biso   1.000  H
  H33      1.0000 0.56870  0.17490  0.48120  Biso   1.000  H
  H34      1.0000 0.70300  0.23240  0.94060  Biso   1.000  H
  H35      1.0000 0.71700  0.24700  0.03120  Biso   1.000  H
  H36      1.0000 0.68750  0.21620  0.02820  Biso   1.000  H
  Mn4      1.0000 0.35170  0.85387  0.24810  Biso   1.000  Mn
  N10      1.0000 0.31770  0.95180  0.34040  Biso   1.000  N
  N11      1.0000 0.45660  0.86570  0.33850  Biso   1.000  N
  N12      1.0000 0.26150  0.80110  0.16070  Biso   1.000  N
  O28      1.0000 0.35780  0.96590  0.20090  Biso   1.000  O
  O29      1.0000 0.36480  0.90420  0.18600  Biso   1.000  O
  O30      1.0000 0.31810  0.89380  0.32460  Biso   1.000  O
  O31      1.0000 0.46090  0.82780  0.19120  Biso   1.000  O
  O32      1.0000 0.39950  0.83040  0.18400  Biso   1.000  O
  O33      1.0000 0.39310  0.86250  0.33630  Biso   1.000  O
  O34      1.0000 0.31190  0.83910  0.16660  Biso   1.000  O
  O35      1.0000 0.33290  0.80550  0.31180  Biso   1.000  O
  O36      1.0000 0.28460  0.76670  0.30190  Biso   1.000  O
  C43      1.0000 0.35480  0.93420  0.22520  Biso   1.000  C
  C44      1.0000 0.32790  0.92520  0.30550  Biso   1.000  C
  C45      1.0000 0.42640  0.85680  0.30530  Biso   1.000  C
  C46      1.0000 0.43060  0.84280  0.21270  Biso   1.000  C
  C47      1.0000 0.30040  0.79360  0.27960  Biso   1.000  C
  C48      1.0000 0.29060  0.81230  0.19610  Biso   1.000  C
  C49      1.0000 0.29560  0.95600  0.42260  Biso   1.000  C
  C50      1.0000 0.25890  0.95130  0.42060  Biso   1.000  C
  C51      1.0000 0.45550  0.88700  0.42500  Biso   1.000  C
  C52      1.0000 0.24780  0.81730  0.07810  Biso   1.000  C
  C53      1.0000 0.22220  0.84840  0.07280  Biso   1.000  C
  C54      1.0000 0.45380  0.92020  0.42110  Biso   1.000  C
  C55      1.0000 0.44730  0.94480  0.33350  Biso   1.000  C
  H37      1.0000 0.44820  0.92950  0.28250  Biso   1.000  H
  H38      1.0000 0.46600  0.96310  0.32960  Biso   1.000  H
  H39      1.0000 0.42390  0.95640  0.33690  Biso   1.000  H
  C56      1.0000 0.23790  0.95210  0.33130  Biso   1.000  C
  H40      1.0000 0.25500  0.95150  0.28370  Biso   1.000  H
  H41      1.0000 0.22360  0.97390  0.32780  Biso   1.000  H
  H42      1.0000 0.22210  0.93130  0.32760  Biso   1.000  H
  K4       1.0000 0.42560  0.78440  0.06780  Biso   1.000  K
  H43      1.0000 0.45930  0.82130  0.55820  Biso   1.000  H
  H44      1.0000 0.47270  0.81950  0.46060  Biso   1.000  H
  H45      1.0000 0.43130  0.82510  0.48120  Biso   1.000  H
  H46      1.0000 0.29700  0.76760  0.94060  Biso   1.000  H
  H47      1.0000 0.28300  0.75300  0.03120  Biso   1.000  H
  H48      1.0000 0.31250  0.78380  0.02820  Biso   1.000  H
  Mn5      1.0000 0.85387  0.35170  0.75190  Biso   1.000  Mn
  N13      1.0000 0.95180  0.31770  0.65960  Biso   1.000  N
  N14      1.0000 0.86570  0.45660  0.66150  Biso   1.000  N
  N15      1.0000 0.80110  0.26150  0.83930  Biso   1.000  N
  O37      1.0000 0.96590  0.35780  0.79910  Biso   1.000  O
  O38      1.0000 0.90420  0.36480  0.81400  Biso   1.000  O
  O39      1.0000 0.89380  0.31810  0.67540  Biso   1.000  O
  O40      1.0000 0.82780  0.46090  0.80880  Biso   1.000  O
  O41      1.0000 0.83040  0.39950  0.81600  Biso   1.000  O
  O42      1.0000 0.86250  0.39310  0.66370  Biso   1.000  O
  O43      1.0000 0.83910  0.31190  0.83340  Biso   1.000  O
  O44      1.0000 0.80550  0.33290  0.68820  Biso   1.000  O
  O45      1.0000 0.76670  0.28460  0.69810  Biso   1.000  O
  C57      1.0000 0.93420  0.35480  0.77480  Biso   1.000  C
  C58      1.0000 0.92520  0.32790  0.69450  Biso   1.000  C
  C59      1.0000 0.85680  0.42640  0.69470  Biso   1.000  C
  C60      1.0000 0.84280  0.43060  0.78730  Biso   1.000  C
  C61      1.0000 0.79360  0.30040  0.72040  Biso   1.000  C
  C62      1.0000 0.81230  0.29060  0.80390  Biso   1.000  C
  C63      1.0000 0.95600  0.29560  0.57740  Biso   1.000  C
  C64      1.0000 0.95130  0.25890  0.57940  Biso   1.000  C
  C65      1.0000 0.88700  0.45550  0.57500  Biso   1.000  C
  C66      1.0000 0.81730  0.24780  0.92190  Biso   1.000  C
  C67      1.0000 0.84840  0.22220  0.92720  Biso   1.000  C
  C68      1.0000 0.92020  0.45380  0.57890  Biso   1.000  C
  C69      1.0000 0.94480  0.44730  0.66650  Biso   1.000  C
  H49      1.0000 0.92950  0.44820  0.71750  Biso   1.000  H
  H50      1.0000 0.96310  0.46600  0.67040  Biso   1.000  H
  H51      1.0000 0.95640  0.42390  0.66310  Biso   1.000  H
  C70      1.0000 0.95210  0.23790  0.66870  Biso   1.000  C
  H52      1.0000 0.95150  0.25500  0.71630  Biso   1.000  H
  H53      1.0000 0.97390  0.22360  0.67220  Biso   1.000  H
  H54      1.0000 0.93130  0.22210  0.67240  Biso   1.000  H
  K5       1.0000 0.78440  0.42560  0.93220  Biso   1.000  K
  H55      1.0000 0.82130  0.45930  0.44180  Biso   1.000  H
  H56      1.0000 0.81950  0.47270  0.53940  Biso   1.000  H
  H57      1.0000 0.82510  0.43130  0.51880  Biso   1.000  H
  H58      1.0000 0.76760  0.29700  0.05940  Biso   1.000  H
  H59      1.0000 0.75300  0.28300  0.96880  Biso   1.000  H
  H60      1.0000 0.78380  0.31250  0.97180  Biso   1.000  H
  Mn6      1.0000 0.14613  0.64830  0.75190  Biso   1.000  Mn
  N16      1.0000 0.04820  0.68230  0.65960  Biso   1.000  N
  N17      1.0000 0.13430  0.54340  0.66150  Biso   1.000  N
  N18      1.0000 0.19890  0.73850  0.83930  Biso   1.000  N
  O46      1.0000 0.03410  0.64220  0.79910  Biso   1.000  O
  O47      1.0000 0.09580  0.63520  0.81400  Biso   1.000  O
  O48      1.0000 0.10620  0.68190  0.67540  Biso   1.000  O
  O49      1.0000 0.17220  0.53910  0.80880  Biso   1.000  O
  O50      1.0000 0.16960  0.60050  0.81600  Biso   1.000  O
  O51      1.0000 0.13750  0.60690  0.66370  Biso   1.000  O
  O52      1.0000 0.16090  0.68810  0.83340  Biso   1.000  O
  O53      1.0000 0.19450  0.66710  0.68820  Biso   1.000  O
  O54      1.0000 0.23330  0.71540  0.69810  Biso   1.000  O
  C71      1.0000 0.06580  0.64520  0.77480  Biso   1.000  C
  C72      1.0000 0.07480  0.67210  0.69450  Biso   1.000  C
  C73      1.0000 0.14320  0.57360  0.69470  Biso   1.000  C
  C74      1.0000 0.15720  0.56940  0.78730  Biso   1.000  C
  C75      1.0000 0.20640  0.69960  0.72040  Biso   1.000  C
  C76      1.0000 0.18770  0.70940  0.80390  Biso   1.000  C
  C77      1.0000 0.04400  0.70440  0.57740  Biso   1.000  C
  C78      1.0000 0.04870  0.74110  0.57940  Biso   1.000  C
  C79      1.0000 0.11300  0.54450  0.57500  Biso   1.000  C
  C80      1.0000 0.18270  0.75220  0.92190  Biso   1.000  C
  C81      1.0000 0.15160  0.77780  0.92720  Biso   1.000  C
  C82      1.0000 0.07980  0.54620  0.57890  Biso   1.000  C
  C83      1.0000 0.05520  0.55270  0.66650  Biso   1.000  C
  H61      1.0000 0.07050  0.55180  0.71750  Biso   1.000  H
  H62      1.0000 0.03690  0.53400  0.67040  Biso   1.000  H
  H63      1.0000 0.04360  0.57610  0.66310  Biso   1.000  H
  C84      1.0000 0.04790  0.76210  0.66870  Biso   1.000  C
  H64      1.0000 0.04850  0.74500  0.71630  Biso   1.000  H
  H65      1.0000 0.02610  0.77640  0.67220  Biso   1.000  H
  H66      1.0000 0.06870  0.77790  0.67240  Biso   1.000  H
  K6       1.0000 0.21560  0.57440  0.93220  Biso   1.000  K
  H67      1.0000 0.17870  0.54070  0.44180  Biso   1.000  H
  H68      1.0000 0.18050  0.52730  0.53940  Biso   1.000  H
  H69      1.0000 0.17490  0.56870  0.51880  Biso   1.000  H
  H70      1.0000 0.23240  0.70300  0.05940  Biso   1.000  H
  H71      1.0000 0.24700  0.71700  0.96880  Biso   1.000  H
  H72      1.0000 0.21620  0.68750  0.97180  Biso   1.000  H
  Mn7      1.0000 0.35170  0.14613  0.75190  Biso   1.000  Mn
  N19      1.0000 0.31770  0.04820  0.65960  Biso   1.000  N
  N20      1.0000 0.45660  0.13430  0.66150  Biso   1.000  N
  N21      1.0000 0.26150  0.19890  0.83930  Biso   1.000  N
  O55      1.0000 0.35780  0.03410  0.79910  Biso   1.000  O
  O56      1.0000 0.36480  0.09580  0.81400  Biso   1.000  O
  O57      1.0000 0.31810  0.10620  0.67540  Biso   1.000  O
  O58      1.0000 0.46090  0.17220  0.80880  Biso   1.000  O
  O59      1.0000 0.39950  0.16960  0.81600  Biso   1.000  O
  O60      1.0000 0.39310  0.13750  0.66370  Biso   1.000  O
  O61      1.0000 0.31190  0.16090  0.83340  Biso   1.000  O
  O62      1.0000 0.33290  0.19450  0.68820  Biso   1.000  O
  O63      1.0000 0.28460  0.23330  0.69810  Biso   1.000  O
  C85      1.0000 0.35480  0.06580  0.77480  Biso   1.000  C
  C86      1.0000 0.32790  0.07480  0.69450  Biso   1.000  C
  C87      1.0000 0.42640  0.14320  0.69470  Biso   1.000  C
  C88      1.0000 0.43060  0.15720  0.78730  Biso   1.000  C
  C89      1.0000 0.30040  0.20640  0.72040  Biso   1.000  C
  C90      1.0000 0.29060  0.18770  0.80390  Biso   1.000  C
  C91      1.0000 0.29560  0.04400  0.57740  Biso   1.000  C
  C92      1.0000 0.25890  0.04870  0.57940  Biso   1.000  C
  C93      1.0000 0.45550  0.11300  0.57500  Biso   1.000  C
  C94      1.0000 0.24780  0.18270  0.92190  Biso   1.000  C
  C95      1.0000 0.22220  0.15160  0.92720  Biso   1.000  C
  C96      1.0000 0.45380  0.07980  0.57890  Biso   1.000  C
  C97      1.0000 0.44730  0.05520  0.66650  Biso   1.000  C
  H73      1.0000 0.44820  0.07050  0.71750  Biso   1.000  H
  H74      1.0000 0.46600  0.03690  0.67040  Biso   1.000  H
  H75      1.0000 0.42390  0.04360  0.66310  Biso   1.000  H
  C98      1.0000 0.23790  0.04790  0.66870  Biso   1.000  C
  H76      1.0000 0.25500  0.04850  0.71630  Biso   1.000  H
  H77      1.0000 0.22360  0.02610  0.67220  Biso   1.000  H
  H78      1.0000 0.22210  0.06870  0.67240  Biso   1.000  H
  K7       1.0000 0.42560  0.21560  0.93220  Biso   1.000  K
  H79      1.0000 0.45930  0.17870  0.44180  Biso   1.000  H
  H80      1.0000 0.47270  0.18050  0.53940  Biso   1.000  H
  H81      1.0000 0.43130  0.17490  0.51880  Biso   1.000  H
  H82      1.0000 0.29700  0.23240  0.05940  Biso   1.000  H
  H83      1.0000 0.28300  0.24700  0.96880  Biso   1.000  H
  H84      1.0000 0.31250  0.21620  0.97180  Biso   1.000  H
  Mn8      1.0000 0.64830  0.85387  0.75190  Biso   1.000  Mn
  N22      1.0000 0.68230  0.95180  0.65960  Biso   1.000  N
  N23      1.0000 0.54340  0.86570  0.66150  Biso   1.000  N
  N24      1.0000 0.73850  0.80110  0.83930  Biso   1.000  N
  O64      1.0000 0.64220  0.96590  0.79910  Biso   1.000  O
  O65      1.0000 0.63520  0.90420  0.81400  Biso   1.000  O
  O66      1.0000 0.68190  0.89380  0.67540  Biso   1.000  O
  O67      1.0000 0.53910  0.82780  0.80880  Biso   1.000  O
  O68      1.0000 0.60050  0.83040  0.81600  Biso   1.000  O
  O69      1.0000 0.60690  0.86250  0.66370  Biso   1.000  O
  O70      1.0000 0.68810  0.83910  0.83340  Biso   1.000  O
  O71      1.0000 0.66710  0.80550  0.68820  Biso   1.000  O
  O72      1.0000 0.71540  0.76670  0.69810  Biso   1.000  O
  C99      1.0000 0.64520  0.93420  0.77480  Biso   1.000  C
  C100     1.0000 0.67210  0.92520  0.69450  Biso   1.000  C
  C101     1.0000 0.57360  0.85680  0.69470  Biso   1.000  C
  C102     1.0000 0.56940  0.84280  0.78730  Biso   1.000  C
  C103     1.0000 0.69960  0.79360  0.72040  Biso   1.000  C
  C104     1.0000 0.70940  0.81230  0.80390  Biso   1.000  C
  C105     1.0000 0.70440  0.95600  0.57740  Biso   1.000  C
  C106     1.0000 0.74110  0.95130  0.57940  Biso   1.000  C
  C107     1.0000 0.54450  0.88700  0.57500  Biso   1.000  C
  C108     1.0000 0.75220  0.81730  0.92190  Biso   1.000  C
  C109     1.0000 0.77780  0.84840  0.92720  Biso   1.000  C
  C110     1.0000 0.54620  0.92020  0.57890  Biso   1.000  C
  C111     1.0000 0.55270  0.94480  0.66650  Biso   1.000  C
  H85      1.0000 0.55180  0.92950  0.71750  Biso   1.000  H
  H86      1.0000 0.53400  0.96310  0.67040  Biso   1.000  H
  H87      1.0000 0.57610  0.95640  0.66310  Biso   1.000  H
  C112     1.0000 0.76210  0.95210  0.66870  Biso   1.000  C
  H88      1.0000 0.74500  0.95150  0.71630  Biso   1.000  H
  H89      1.0000 0.77640  0.97390  0.67220  Biso   1.000  H
  H90      1.0000 0.77790  0.93130  0.67240  Biso   1.000  H
  K8       1.0000 0.57440  0.78440  0.93220  Biso   1.000  K
  H91      1.0000 0.54070  0.82130  0.44180  Biso   1.000  H
  H92      1.0000 0.52730  0.81950  0.53940  Biso   1.000  H
  H93      1.0000 0.56870  0.82510  0.51880  Biso   1.000  H
  H94      1.0000 0.70300  0.76760  0.05940  Biso   1.000  H
  H95      1.0000 0.71700  0.75300  0.96880  Biso   1.000  H
  H96      1.0000 0.68750  0.78380  0.97180  Biso   1.000  H
  Mn9      1.0000 0.85387  0.64830  0.75190  Biso   1.000  Mn
  N25      1.0000 0.95180  0.68230  0.65960  Biso   1.000  N
  N26      1.0000 0.86570  0.54340  0.66150  Biso   1.000  N
  N27      1.0000 0.80110  0.73850  0.83930  Biso   1.000  N
  O73      1.0000 0.96590  0.64220  0.79910  Biso   1.000  O
  O74      1.0000 0.90420  0.63520  0.81400  Biso   1.000  O
  O75      1.0000 0.89380  0.68190  0.67540  Biso   1.000  O
  O76      1.0000 0.82780  0.53910  0.80880  Biso   1.000  O
  O77      1.0000 0.83040  0.60050  0.81600  Biso   1.000  O
  O78      1.0000 0.86250  0.60690  0.66370  Biso   1.000  O
  O79      1.0000 0.83910  0.68810  0.83340  Biso   1.000  O
  O80      1.0000 0.80550  0.66710  0.68820  Biso   1.000  O
  O81      1.0000 0.76670  0.71540  0.69810  Biso   1.000  O
  C113     1.0000 0.93420  0.64520  0.77480  Biso   1.000  C
  C114     1.0000 0.92520  0.67210  0.69450  Biso   1.000  C
  C115     1.0000 0.85680  0.57360  0.69470  Biso   1.000  C
  C116     1.0000 0.84280  0.56940  0.78730  Biso   1.000  C
  C117     1.0000 0.79360  0.69960  0.72040  Biso   1.000  C
  C118     1.0000 0.81230  0.70940  0.80390  Biso   1.000  C
  C119     1.0000 0.95600  0.70440  0.57740  Biso   1.000  C
  C120     1.0000 0.95130  0.74110  0.57940  Biso   1.000  C
  C121     1.0000 0.88700  0.54450  0.57500  Biso   1.000  C
  C122     1.0000 0.81730  0.75220  0.92190  Biso   1.000  C
  C123     1.0000 0.84840  0.77780  0.92720  Biso   1.000  C
  C124     1.0000 0.92020  0.54620  0.57890  Biso   1.000  C
  C125     1.0000 0.94480  0.55270  0.66650  Biso   1.000  C
  H97      1.0000 0.92950  0.55180  0.71750  Biso   1.000  H
  H98      1.0000 0.96310  0.53400  0.67040  Biso   1.000  H
  H99      1.0000 0.95640  0.57610  0.66310  Biso   1.000  H
  C126     1.0000 0.95210  0.76210  0.66870  Biso   1.000  C
  H100     1.0000 0.95150  0.74500  0.71630  Biso   1.000  H
  H101     1.0000 0.97390  0.77640  0.67220  Biso   1.000  H
  H102     1.0000 0.93130  0.77790  0.67240  Biso   1.000  H
  K9       1.0000 0.78440  0.57440  0.93220  Biso   1.000  K
  H103     1.0000 0.82130  0.54070  0.44180  Biso   1.000  H
  H104     1.0000 0.81950  0.52730  0.53940  Biso   1.000  H
  H105     1.0000 0.82510  0.56870  0.51880  Biso   1.000  H
  H106     1.0000 0.76760  0.70300  0.05940  Biso   1.000  H
  H107     1.0000 0.75300  0.71700  0.96880  Biso   1.000  H
  H108     1.0000 0.78380  0.68750  0.97180  Biso   1.000  H
  Mn10     1.0000 0.14613  0.35170  0.75190  Biso   1.000  Mn
  N28      1.0000 0.04820  0.31770  0.65960  Biso   1.000  N
  N29      1.0000 0.13430  0.45660  0.66150  Biso   1.000  N
  N30      1.0000 0.19890  0.26150  0.83930  Biso   1.000  N
  O82      1.0000 0.03410  0.35780  0.79910  Biso   1.000  O
  O83      1.0000 0.09580  0.36480  0.81400  Biso   1.000  O
  O84      1.0000 0.10620  0.31810  0.67540  Biso   1.000  O
  O85      1.0000 0.17220  0.46090  0.80880  Biso   1.000  O
  O86      1.0000 0.16960  0.39950  0.81600  Biso   1.000  O
  O87      1.0000 0.13750  0.39310  0.66370  Biso   1.000  O
  O88      1.0000 0.16090  0.31190  0.83340  Biso   1.000  O
  O89      1.0000 0.19450  0.33290  0.68820  Biso   1.000  O
  O90      1.0000 0.23330  0.28460  0.69810  Biso   1.000  O
  C127     1.0000 0.06580  0.35480  0.77480  Biso   1.000  C
  C128     1.0000 0.07480  0.32790  0.69450  Biso   1.000  C
  C129     1.0000 0.14320  0.42640  0.69470  Biso   1.000  C
  C130     1.0000 0.15720  0.43060  0.78730  Biso   1.000  C
  C131     1.0000 0.20640  0.30040  0.72040  Biso   1.000  C
  C132     1.0000 0.18770  0.29060  0.80390  Biso   1.000  C
  C133     1.0000 0.04400  0.29560  0.57740  Biso   1.000  C
  C134     1.0000 0.04870  0.25890  0.57940  Biso   1.000  C
  C135     1.0000 0.11300  0.45550  0.57500  Biso   1.000  C
  C136     1.0000 0.18270  0.24780  0.92190  Biso   1.000  C
  C137     1.0000 0.15160  0.22220  0.92720  Biso   1.000  C
  C138     1.0000 0.07980  0.45380  0.57890  Biso   1.000  C
  C139     1.0000 0.05520  0.44730  0.66650  Biso   1.000  C
  H109     1.0000 0.07050  0.44820  0.71750  Biso   1.000  H
  H110     1.0000 0.03690  0.46600  0.67040  Biso   1.000  H
  H111     1.0000 0.04360  0.42390  0.66310  Biso   1.000  H
  C140     1.0000 0.04790  0.23790  0.66870  Biso   1.000  C
  H112     1.0000 0.04850  0.25500  0.71630  Biso   1.000  H
  H113     1.0000 0.02610  0.22360  0.67220  Biso   1.000  H
  H114     1.0000 0.06870  0.22210  0.67240  Biso   1.000  H
  K10      1.0000 0.21560  0.42560  0.93220  Biso   1.000  K
  H115     1.0000 0.17870  0.45930  0.44180  Biso   1.000  H
  H116     1.0000 0.18050  0.47270  0.53940  Biso   1.000  H
  H117     1.0000 0.17490  0.43130  0.51880  Biso   1.000  H
  H118     1.0000 0.23240  0.29700  0.05940  Biso   1.000  H
  H119     1.0000 0.24700  0.28300  0.96880  Biso   1.000  H
  H120     1.0000 0.21620  0.31250  0.97180  Biso   1.000  H
  Mn11     1.0000 0.35170  0.85387  0.75190  Biso   1.000  Mn
  N31      1.0000 0.31770  0.95180  0.65960  Biso   1.000  N
  N32      1.0000 0.45660  0.86570  0.66150  Biso   1.000  N
  N33      1.0000 0.26150  0.80110  0.83930  Biso   1.000  N
  O91      1.0000 0.35780  0.96590  0.79910  Biso   1.000  O
  O92      1.0000 0.36480  0.90420  0.81400  Biso   1.000  O
  O93      1.0000 0.31810  0.89380  0.67540  Biso   1.000  O
  O94      1.0000 0.46090  0.82780  0.80880  Biso   1.000  O
  O95      1.0000 0.39950  0.83040  0.81600  Biso   1.000  O
  O96      1.0000 0.39310  0.86250  0.66370  Biso   1.000  O
  O97      1.0000 0.31190  0.83910  0.83340  Biso   1.000  O
  O98      1.0000 0.33290  0.80550  0.68820  Biso   1.000  O
  O99      1.0000 0.28460  0.76670  0.69810  Biso   1.000  O
  C141     1.0000 0.35480  0.93420  0.77480  Biso   1.000  C
  C142     1.0000 0.32790  0.92520  0.69450  Biso   1.000  C
  C143     1.0000 0.42640  0.85680  0.69470  Biso   1.000  C
  C144     1.0000 0.43060  0.84280  0.78730  Biso   1.000  C
  C145     1.0000 0.30040  0.79360  0.72040  Biso   1.000  C
  C146     1.0000 0.29060  0.81230  0.80390  Biso   1.000  C
  C147     1.0000 0.29560  0.95600  0.57740  Biso   1.000  C
  C148     1.0000 0.25890  0.95130  0.57940  Biso   1.000  C
  C149     1.0000 0.45550  0.88700  0.57500  Biso   1.000  C
  C150     1.0000 0.24780  0.81730  0.92190  Biso   1.000  C
  C151     1.0000 0.22220  0.84840  0.92720  Biso   1.000  C
  C152     1.0000 0.45380  0.92020  0.57890  Biso   1.000  C
  C153     1.0000 0.44730  0.94480  0.66650  Biso   1.000  C
  H121     1.0000 0.44820  0.92950  0.71750  Biso   1.000  H
  H122     1.0000 0.46600  0.96310  0.67040  Biso   1.000  H
  H123     1.0000 0.42390  0.95640  0.66310  Biso   1.000  H
  C154     1.0000 0.23790  0.95210  0.66870  Biso   1.000  C
  H124     1.0000 0.25500  0.95150  0.71630  Biso   1.000  H
  H125     1.0000 0.22360  0.97390  0.67220  Biso   1.000  H
  H126     1.0000 0.22210  0.93130  0.67240  Biso   1.000  H
  K11      1.0000 0.42560  0.78440  0.93220  Biso   1.000  K
  H127     1.0000 0.45930  0.82130  0.44180  Biso   1.000  H
  H128     1.0000 0.47270  0.81950  0.53940  Biso   1.000  H
  H129     1.0000 0.43130  0.82510  0.51880  Biso   1.000  H
  H130     1.0000 0.29700  0.76760  0.05940  Biso   1.000  H
  H131     1.0000 0.28300  0.75300  0.96880  Biso   1.000  H
  H132     1.0000 0.31250  0.78380  0.97180  Biso   1.000  H
  Mn12     1.0000 0.64830  0.14613  0.75190  Biso   1.000  Mn
  N34      1.0000 0.68230  0.04820  0.65960  Biso   1.000  N
  N35      1.0000 0.54340  0.13430  0.66150  Biso   1.000  N
  N36      1.0000 0.73850  0.19890  0.83930  Biso   1.000  N
  O100     1.0000 0.64220  0.03410  0.79910  Biso   1.000  O
  O101     1.0000 0.63520  0.09580  0.81400  Biso   1.000  O
  O102     1.0000 0.68190  0.10620  0.67540  Biso   1.000  O
  O103     1.0000 0.53910  0.17220  0.80880  Biso   1.000  O
  O104     1.0000 0.60050  0.16960  0.81600  Biso   1.000  O
  O105     1.0000 0.60690  0.13750  0.66370  Biso   1.000  O
  O106     1.0000 0.68810  0.16090  0.83340  Biso   1.000  O
  O107     1.0000 0.66710  0.19450  0.68820  Biso   1.000  O
  O108     1.0000 0.71540  0.23330  0.69810  Biso   1.000  O
  C155     1.0000 0.64520  0.06580  0.77480  Biso   1.000  C
  C156     1.0000 0.67210  0.07480  0.69450  Biso   1.000  C
  C157     1.0000 0.57360  0.14320  0.69470  Biso   1.000  C
  C158     1.0000 0.56940  0.15720  0.78730  Biso   1.000  C
  C159     1.0000 0.69960  0.20640  0.72040  Biso   1.000  C
  C160     1.0000 0.70940  0.18770  0.80390  Biso   1.000  C
  C161     1.0000 0.70440  0.04400  0.57740  Biso   1.000  C
  C162     1.0000 0.74110  0.04870  0.57940  Biso   1.000  C
  C163     1.0000 0.54450  0.11300  0.57500  Biso   1.000  C
  C164     1.0000 0.75220  0.18270  0.92190  Biso   1.000  C
  C165     1.0000 0.77780  0.15160  0.92720  Biso   1.000  C
  C166     1.0000 0.54620  0.07980  0.57890  Biso   1.000  C
  C167     1.0000 0.55270  0.05520  0.66650  Biso   1.000  C
  H133     1.0000 0.55180  0.07050  0.71750  Biso   1.000  H
  H134     1.0000 0.53400  0.03690  0.67040  Biso   1.000  H
  H135     1.0000 0.57610  0.04360  0.66310  Biso   1.000  H
  C168     1.0000 0.76210  0.04790  0.66870  Biso   1.000  C
  H136     1.0000 0.74500  0.04850  0.71630  Biso   1.000  H
  H137     1.0000 0.77640  0.02610  0.67220  Biso   1.000  H
  H138     1.0000 0.77790  0.06870  0.67240  Biso   1.000  H
  K12      1.0000 0.57440  0.21560  0.93220  Biso   1.000  K
  H139     1.0000 0.54070  0.17870  0.44180  Biso   1.000  H
  H140     1.0000 0.52730  0.18050  0.53940  Biso   1.000  H
  H141     1.0000 0.56870  0.17490  0.51880  Biso   1.000  H
  H142     1.0000 0.70300  0.23240  0.05940  Biso   1.000  H
  H143     1.0000 0.71700  0.24700  0.96880  Biso   1.000  H
  H144     1.0000 0.68750  0.21620  0.97180  Biso   1.000  H
  Mn13     1.0000 0.14613  0.64830  0.24810  Biso   1.000  Mn
  N37      1.0000 0.04820  0.68230  0.34040  Biso   1.000  N
  N38      1.0000 0.13430  0.54340  0.33850  Biso   1.000  N
  N39      1.0000 0.19890  0.73850  0.16070  Biso   1.000  N
  O109     1.0000 0.03410  0.64220  0.20090  Biso   1.000  O
  O110     1.0000 0.09580  0.63520  0.18600  Biso   1.000  O
  O111     1.0000 0.10620  0.68190  0.32460  Biso   1.000  O
  O112     1.0000 0.17220  0.53910  0.19120  Biso   1.000  O
  O113     1.0000 0.16960  0.60050  0.18400  Biso   1.000  O
  O114     1.0000 0.13750  0.60690  0.33630  Biso   1.000  O
  O115     1.0000 0.16090  0.68810  0.16660  Biso   1.000  O
  O116     1.0000 0.19450  0.66710  0.31180  Biso   1.000  O
  O117     1.0000 0.23330  0.71540  0.30190  Biso   1.000  O
  C169     1.0000 0.06580  0.64520  0.22520  Biso   1.000  C
  C170     1.0000 0.07480  0.67210  0.30550  Biso   1.000  C
  C171     1.0000 0.14320  0.57360  0.30530  Biso   1.000  C
  C172     1.0000 0.15720  0.56940  0.21270  Biso   1.000  C
  C173     1.0000 0.20640  0.69960  0.27960  Biso   1.000  C
  C174     1.0000 0.18770  0.70940  0.19610  Biso   1.000  C
  C175     1.0000 0.04400  0.70440  0.42260  Biso   1.000  C
  C176     1.0000 0.04870  0.74110  0.42060  Biso   1.000  C
  C177     1.0000 0.11300  0.54450  0.42500  Biso   1.000  C
  C178     1.0000 0.18270  0.75220  0.07810  Biso   1.000  C
  C179     1.0000 0.15160  0.77780  0.07280  Biso   1.000  C
  C180     1.0000 0.07980  0.54620  0.42110  Biso   1.000  C
  C181     1.0000 0.05520  0.55270  0.33350  Biso   1.000  C
  H145     1.0000 0.07050  0.55180  0.28250  Biso   1.000  H
  H146     1.0000 0.03690  0.53400  0.32960  Biso   1.000  H
  H147     1.0000 0.04360  0.57610  0.33690  Biso   1.000  H
  C182     1.0000 0.04790  0.76210  0.33130  Biso   1.000  C
  H148     1.0000 0.04850  0.74500  0.28370  Biso   1.000  H
  H149     1.0000 0.02610  0.77640  0.32780  Biso   1.000  H
  H150     1.0000 0.06870  0.77790  0.32760  Biso   1.000  H
  K13      1.0000 0.21560  0.57440  0.06780  Biso   1.000  K
  H151     1.0000 0.17870  0.54070  0.55820  Biso   1.000  H
  H152     1.0000 0.18050  0.52730  0.46060  Biso   1.000  H
  H153     1.0000 0.17490  0.56870  0.48120  Biso   1.000  H
  H154     1.0000 0.23240  0.70300  0.94060  Biso   1.000  H
  H155     1.0000 0.24700  0.71700  0.03120  Biso   1.000  H
  H156     1.0000 0.21620  0.68750  0.02820  Biso   1.000  H
  Mn14     1.0000 0.85387  0.35170  0.24810  Biso   1.000  Mn
  N40      1.0000 0.95180  0.31770  0.34040  Biso   1.000  N
  N41      1.0000 0.86570  0.45660  0.33850  Biso   1.000  N
  N42      1.0000 0.80110  0.26150  0.16070  Biso   1.000  N
  O118     1.0000 0.96590  0.35780  0.20090  Biso   1.000  O
  O119     1.0000 0.90420  0.36480  0.18600  Biso   1.000  O
  O120     1.0000 0.89380  0.31810  0.32460  Biso   1.000  O
  O121     1.0000 0.82780  0.46090  0.19120  Biso   1.000  O
  O122     1.0000 0.83040  0.39950  0.18400  Biso   1.000  O
  O123     1.0000 0.86250  0.39310  0.33630  Biso   1.000  O
  O124     1.0000 0.83910  0.31190  0.16660  Biso   1.000  O
  O125     1.0000 0.80550  0.33290  0.31180  Biso   1.000  O
  O126     1.0000 0.76670  0.28460  0.30190  Biso   1.000  O
  C183     1.0000 0.93420  0.35480  0.22520  Biso   1.000  C
  C184     1.0000 0.92520  0.32790  0.30550  Biso   1.000  C
  C185     1.0000 0.85680  0.42640  0.30530  Biso   1.000  C
  C186     1.0000 0.84280  0.43060  0.21270  Biso   1.000  C
  C187     1.0000 0.79360  0.30040  0.27960  Biso   1.000  C
  C188     1.0000 0.81230  0.29060  0.19610  Biso   1.000  C
  C189     1.0000 0.95600  0.29560  0.42260  Biso   1.000  C
  C190     1.0000 0.95130  0.25890  0.42060  Biso   1.000  C
  C191     1.0000 0.88700  0.45550  0.42500  Biso   1.000  C
  C192     1.0000 0.81730  0.24780  0.07810  Biso   1.000  C
  C193     1.0000 0.84840  0.22220  0.07280  Biso   1.000  C
  C194     1.0000 0.92020  0.45380  0.42110  Biso   1.000  C
  C195     1.0000 0.94480  0.44730  0.33350  Biso   1.000  C
  H157     1.0000 0.92950  0.44820  0.28250  Biso   1.000  H
  H158     1.0000 0.96310  0.46600  0.32960  Biso   1.000  H
  H159     1.0000 0.95640  0.42390  0.33690  Biso   1.000  H
  C196     1.0000 0.95210  0.23790  0.33130  Biso   1.000  C
  H160     1.0000 0.95150  0.25500  0.28370  Biso   1.000  H
  H161     1.0000 0.97390  0.22360  0.32780  Biso   1.000  H
  H162     1.0000 0.93130  0.22210  0.32760  Biso   1.000  H
  K14      1.0000 0.78440  0.42560  0.06780  Biso   1.000  K
  H163     1.0000 0.82130  0.45930  0.55820  Biso   1.000  H
  H164     1.0000 0.81950  0.47270  0.46060  Biso   1.000  H
  H165     1.0000 0.82510  0.43130  0.48120  Biso   1.000  H
  H166     1.0000 0.76760  0.29700  0.94060  Biso   1.000  H
  H167     1.0000 0.75300  0.28300  0.03120  Biso   1.000  H
  H168     1.0000 0.78380  0.31250  0.02820  Biso   1.000  H
  Mn15     1.0000 0.64830  0.85387  0.24810  Biso   1.000  Mn
  N43      1.0000 0.68230  0.95180  0.34040  Biso   1.000  N
  N44      1.0000 0.54340  0.86570  0.33850  Biso   1.000  N
  N45      1.0000 0.73850  0.80110  0.16070  Biso   1.000  N
  O127     1.0000 0.64220  0.96590  0.20090  Biso   1.000  O
  O128     1.0000 0.63520  0.90420  0.18600  Biso   1.000  O
  O129     1.0000 0.68190  0.89380  0.32460  Biso   1.000  O
  O130     1.0000 0.53910  0.82780  0.19120  Biso   1.000  O
  O131     1.0000 0.60050  0.83040  0.18400  Biso   1.000  O
  O132     1.0000 0.60690  0.86250  0.33630  Biso   1.000  O
  O133     1.0000 0.68810  0.83910  0.16660  Biso   1.000  O
  O134     1.0000 0.66710  0.80550  0.31180  Biso   1.000  O
  O135     1.0000 0.71540  0.76670  0.30190  Biso   1.000  O
  C197     1.0000 0.64520  0.93420  0.22520  Biso   1.000  C
  C198     1.0000 0.67210  0.92520  0.30550  Biso   1.000  C
  C199     1.0000 0.57360  0.85680  0.30530  Biso   1.000  C
  C200     1.0000 0.56940  0.84280  0.21270  Biso   1.000  C
  C201     1.0000 0.69960  0.79360  0.27960  Biso   1.000  C
  C202     1.0000 0.70940  0.81230  0.19610  Biso   1.000  C
  C203     1.0000 0.70440  0.95600  0.42260  Biso   1.000  C
  C204     1.0000 0.74110  0.95130  0.42060  Biso   1.000  C
  C205     1.0000 0.54450  0.88700  0.42500  Biso   1.000  C
  C206     1.0000 0.75220  0.81730  0.07810  Biso   1.000  C
  C207     1.0000 0.77780  0.84840  0.07280  Biso   1.000  C
  C208     1.0000 0.54620  0.92020  0.42110  Biso   1.000  C
  C209     1.0000 0.55270  0.94480  0.33350  Biso   1.000  C
  H169     1.0000 0.55180  0.92950  0.28250  Biso   1.000  H
  H170     1.0000 0.53400  0.96310  0.32960  Biso   1.000  H
  H171     1.0000 0.57610  0.95640  0.33690  Biso   1.000  H
  C210     1.0000 0.76210  0.95210  0.33130  Biso   1.000  C
  H172     1.0000 0.74500  0.95150  0.28370  Biso   1.000  H
  H173     1.0000 0.77640  0.97390  0.32780  Biso   1.000  H
  H174     1.0000 0.77790  0.93130  0.32760  Biso   1.000  H
  K15      1.0000 0.57440  0.78440  0.06780  Biso   1.000  K
  H175     1.0000 0.54070  0.82130  0.55820  Biso   1.000  H
  H176     1.0000 0.52730  0.81950  0.46060  Biso   1.000  H
  H177     1.0000 0.56870  0.82510  0.48120  Biso   1.000  H
  H178     1.0000 0.70300  0.76760  0.94060  Biso   1.000  H
  H179     1.0000 0.71700  0.75300  0.03120  Biso   1.000  H
  H180     1.0000 0.68750  0.78380  0.02820  Biso   1.000  H
  Mn16     1.0000 0.35170  0.14613  0.24810  Biso   1.000  Mn
  N46      1.0000 0.31770  0.04820  0.34040  Biso   1.000  N
  N47      1.0000 0.45660  0.13430  0.33850  Biso   1.000  N
  N48      1.0000 0.26150  0.19890  0.16070  Biso   1.000  N
  O136     1.0000 0.35780  0.03410  0.20090  Biso   1.000  O
  O137     1.0000 0.36480  0.09580  0.18600  Biso   1.000  O
  O138     1.0000 0.31810  0.10620  0.32460  Biso   1.000  O
  O139     1.0000 0.46090  0.17220  0.19120  Biso   1.000  O
  O140     1.0000 0.39950  0.16960  0.18400  Biso   1.000  O
  O141     1.0000 0.39310  0.13750  0.33630  Biso   1.000  O
  O142     1.0000 0.31190  0.16090  0.16660  Biso   1.000  O
  O143     1.0000 0.33290  0.19450  0.31180  Biso   1.000  O
  O144     1.0000 0.28460  0.23330  0.30190  Biso   1.000  O
  C211     1.0000 0.35480  0.06580  0.22520  Biso   1.000  C
  C212     1.0000 0.32790  0.07480  0.30550  Biso   1.000  C
  C213     1.0000 0.42640  0.14320  0.30530  Biso   1.000  C
  C214     1.0000 0.43060  0.15720  0.21270  Biso   1.000  C
  C215     1.0000 0.30040  0.20640  0.27960  Biso   1.000  C
  C216     1.0000 0.29060  0.18770  0.19610  Biso   1.000  C
  C217     1.0000 0.29560  0.04400  0.42260  Biso   1.000  C
  C218     1.0000 0.25890  0.04870  0.42060  Biso   1.000  C
  C219     1.0000 0.45550  0.11300  0.42500  Biso   1.000  C
  C220     1.0000 0.24780  0.18270  0.07810  Biso   1.000  C
  C221     1.0000 0.22220  0.15160  0.07280  Biso   1.000  C
  C222     1.0000 0.45380  0.07980  0.42110  Biso   1.000  C
  C223     1.0000 0.44730  0.05520  0.33350  Biso   1.000  C
  H181     1.0000 0.44820  0.07050  0.28250  Biso   1.000  H
  H182     1.0000 0.46600  0.03690  0.32960  Biso   1.000  H
  H183     1.0000 0.42390  0.04360  0.33690  Biso   1.000  H
  C224     1.0000 0.23790  0.04790  0.33130  Biso   1.000  C
  H184     1.0000 0.25500  0.04850  0.28370  Biso   1.000  H
  H185     1.0000 0.22360  0.02610  0.32780  Biso   1.000  H
  H186     1.0000 0.22210  0.06870  0.32760  Biso   1.000  H
  K16      1.0000 0.42560  0.21560  0.06780  Biso   1.000  K
  H187     1.0000 0.45930  0.17870  0.55820  Biso   1.000  H
  H188     1.0000 0.47270  0.18050  0.46060  Biso   1.000  H
  H189     1.0000 0.43130  0.17490  0.48120  Biso   1.000  H
  H190     1.0000 0.29700  0.23240  0.94060  Biso   1.000  H
  H191     1.0000 0.28300  0.24700  0.03120  Biso   1.000  H
  H192     1.0000 0.31250  0.21620  0.02820  Biso   1.000  H
  Cu1      1.0000 0.00000  0.33268  0.27403  Biso   1.000  Cu
  Cu2      1.0000 0.00000  0.66732  0.27403  Biso   1.000  Cu
  Cu3      1.0000 0.66732  0.00000  0.27403  Biso   1.000  Cu
  Cu4      1.0000 0.33268  0.00000  0.27403  Biso   1.000  Cu
  Cu5      1.0000 0.00000  0.33268  0.72597  Biso   1.000  Cu
  Cu6      1.0000 0.00000  0.66732  0.72597  Biso   1.000  Cu
  Cu7      1.0000 0.33268  0.00000  0.72597  Biso   1.000  Cu
  Cu8      1.0000 0.66732  0.00000  0.72597  Biso   1.000  Cu
  Cu9      1.0000 0.14659  0.50000  0.26827  Biso   1.000  Cu
  Cu10     1.0000 0.85341  0.50000  0.26827  Biso   1.000  Cu
  Cu11     1.0000 0.50000  0.14659  0.26827  Biso   1.000  Cu
  Cu12     1.0000 0.50000  0.85341  0.26827  Biso   1.000  Cu
  Cu13     1.0000 0.85341  0.50000  0.73173  Biso   1.000  Cu
  Cu14     1.0000 0.14659  0.50000  0.73173  Biso   1.000  Cu
  Cu15     1.0000 0.50000  0.14659  0.73173  Biso   1.000  Cu
  Cu16     1.0000 0.50000  0.85341  0.73173  Biso   1.000  Cu
  Cu17     1.0000 0.24088  0.24088  0.23048  Biso   1.000  Cu
  Cu18     1.0000 0.75912  0.75912  0.23048  Biso   1.000  Cu
  Cu19     1.0000 0.75912  0.24088  0.23048  Biso   1.000  Cu
  Cu20     1.0000 0.24088  0.75912  0.23048  Biso   1.000  Cu
  Cu21     1.0000 0.75912  0.24088  0.76952  Biso   1.000  Cu
  Cu22     1.0000 0.24088  0.75912  0.76952  Biso   1.000  Cu
  Cu23     1.0000 0.24088  0.24088  0.76952  Biso   1.000  Cu
  Cu24     1.0000 0.75912  0.75912  0.76952  Biso   1.000  Cu
  C225     1.0000 0.04610  0.31440  0.50000  Biso   1.000  C
  C226     1.0000 0.04790  0.23700  0.50000  Biso   1.000  C
  H193     1.0000 0.04690  0.21170  0.50000  Biso   1.000  H
  C227     1.0000 0.13050  0.46080  0.50000  Biso   1.000  C
  C228     1.0000 0.16940  0.45560  0.50000  Biso   1.000  C
  C229     1.0000 0.05970  0.45280  0.50000  Biso   1.000  C
  H194     1.0000 0.03440  0.45160  0.50000  Biso   1.000  H
  C230     1.0000 0.95390  0.68560  0.50000  Biso   1.000  C
  C231     1.0000 0.95210  0.76300  0.50000  Biso   1.000  C
  H195     1.0000 0.95310  0.78830  0.50000  Biso   1.000  H
  C232     1.0000 0.86950  0.53920  0.50000  Biso   1.000  C
  C233     1.0000 0.83060  0.54440  0.50000  Biso   1.000  C
  C234     1.0000 0.94030  0.54720  0.50000  Biso   1.000  C
  H196     1.0000 0.96560  0.54840  0.50000  Biso   1.000  H
  C235     1.0000 0.68560  0.04610  0.50000  Biso   1.000  C
  C236     1.0000 0.76300  0.04790  0.50000  Biso   1.000  C
  H197     1.0000 0.78830  0.04690  0.50000  Biso   1.000  H
  C237     1.0000 0.53920  0.13050  0.50000  Biso   1.000  C
  C238     1.0000 0.54440  0.16940  0.50000  Biso   1.000  C
  C239     1.0000 0.54720  0.05970  0.50000  Biso   1.000  C
  H198     1.0000 0.54840  0.03440  0.50000  Biso   1.000  H
  C240     1.0000 0.31440  0.95390  0.50000  Biso   1.000  C
  C241     1.0000 0.23700  0.95210  0.50000  Biso   1.000  C
  H199     1.0000 0.21170  0.95310  0.50000  Biso   1.000  H
  C242     1.0000 0.46080  0.86950  0.50000  Biso   1.000  C
  C243     1.0000 0.45560  0.83060  0.50000  Biso   1.000  C
  C244     1.0000 0.45280  0.94030  0.50000  Biso   1.000  C
  H200     1.0000 0.45160  0.96560  0.50000  Biso   1.000  H
  C245     1.0000 0.95390  0.31440  0.50000  Biso   1.000  C
  C246     1.0000 0.95210  0.23700  0.50000  Biso   1.000  C
  H201     1.0000 0.95310  0.21170  0.50000  Biso   1.000  H
  C247     1.0000 0.86950  0.46080  0.50000  Biso   1.000  C
  C248     1.0000 0.83060  0.45560  0.50000  Biso   1.000  C
  C249     1.0000 0.94030  0.45280  0.50000  Biso   1.000  C
  H202     1.0000 0.96560  0.45160  0.50000  Biso   1.000  H
  C250     1.0000 0.04610  0.68560  0.50000  Biso   1.000  C
  C251     1.0000 0.04790  0.76300  0.50000  Biso   1.000  C
  H203     1.0000 0.04690  0.78830  0.50000  Biso   1.000  H
  C252     1.0000 0.13050  0.53920  0.50000  Biso   1.000  C
  C253     1.0000 0.16940  0.54440  0.50000  Biso   1.000  C
  C254     1.0000 0.05970  0.54720  0.50000  Biso   1.000  C
  H204     1.0000 0.03440  0.54840  0.50000  Biso   1.000  H
  C255     1.0000 0.31440  0.04610  0.50000  Biso   1.000  C
  C256     1.0000 0.23700  0.04790  0.50000  Biso   1.000  C
  H205     1.0000 0.21170  0.04690  0.50000  Biso   1.000  H
  C257     1.0000 0.46080  0.13050  0.50000  Biso   1.000  C
  C258     1.0000 0.45560  0.16940  0.50000  Biso   1.000  C
  C259     1.0000 0.45280  0.05970  0.50000  Biso   1.000  C
  H206     1.0000 0.45160  0.03440  0.50000  Biso   1.000  H
  C260     1.0000 0.68560  0.95390  0.50000  Biso   1.000  C
  C261     1.0000 0.76300  0.95210  0.50000  Biso   1.000  C
  H207     1.0000 0.78830  0.95310  0.50000  Biso   1.000  H
  C262     1.0000 0.53920  0.86950  0.50000  Biso   1.000  C
  C263     1.0000 0.54440  0.83060  0.50000  Biso   1.000  C
  C264     1.0000 0.54720  0.94030  0.50000  Biso   1.000  C
  H208     1.0000 0.54840  0.96560  0.50000  Biso   1.000  H
  C265     1.0000 0.19590  0.26010  0.00000  Biso   1.000  C
  C266     1.0000 0.22580  0.29120  0.00000  Biso   1.000  C
  C267     1.0000 0.13910  0.20500  0.00000  Biso   1.000  C
  H209     1.0000 0.12430  0.18450  0.00000  Biso   1.000  H
  O145     1.0000 0.19000  0.38970  0.00000  Biso   1.000  O
  C268     1.0000 0.80410  0.73990  0.00000  Biso   1.000  C
  C269     1.0000 0.77420  0.70880  0.00000  Biso   1.000  C
  C270     1.0000 0.86090  0.79500  0.00000  Biso   1.000  C
  H210     1.0000 0.87570  0.81550  0.00000  Biso   1.000  H
  O146     1.0000 0.81000  0.61030  0.00000  Biso   1.000  O
  C271     1.0000 0.73990  0.19590  0.00000  Biso   1.000  C
  C272     1.0000 0.70880  0.22580  0.00000  Biso   1.000  C
  C273     1.0000 0.79500  0.13910  0.00000  Biso   1.000  C
  H211     1.0000 0.81550  0.12430  0.00000  Biso   1.000  H
  O147     1.0000 0.61030  0.19000  0.00000  Biso   1.000  O
  C274     1.0000 0.26010  0.80410  0.00000  Biso   1.000  C
  C275     1.0000 0.29120  0.77420  0.00000  Biso   1.000  C
  C276     1.0000 0.20500  0.86090  0.00000  Biso   1.000  C
  H212     1.0000 0.18450  0.87570  0.00000  Biso   1.000  H
  O148     1.0000 0.38970  0.81000  0.00000  Biso   1.000  O
  C277     1.0000 0.80410  0.26010  0.00000  Biso   1.000  C
  C278     1.0000 0.77420  0.29120  0.00000  Biso   1.000  C
  C279     1.0000 0.86090  0.20500  0.00000  Biso   1.000  C
  H213     1.0000 0.87570  0.18450  0.00000  Biso   1.000  H
  O149     1.0000 0.81000  0.38970  0.00000  Biso   1.000  O
  C280     1.0000 0.19590  0.73990  0.00000  Biso   1.000  C
  C281     1.0000 0.22580  0.70880  0.00000  Biso   1.000  C
  C282     1.0000 0.13910  0.79500  0.00000  Biso   1.000  C
  H214     1.0000 0.12430  0.81550  0.00000  Biso   1.000  H
  O150     1.0000 0.19000  0.61030  0.00000  Biso   1.000  O
  C283     1.0000 0.26010  0.19590  0.00000  Biso   1.000  C
  C284     1.0000 0.29120  0.22580  0.00000  Biso   1.000  C
  C285     1.0000 0.20500  0.13910  0.00000  Biso   1.000  C
  H215     1.0000 0.18450  0.12430  0.00000  Biso   1.000  H
  O151     1.0000 0.38970  0.19000  0.00000  Biso   1.000  O
  C286     1.0000 0.73990  0.80410  0.00000  Biso   1.000  C
  C287     1.0000 0.70880  0.77420  0.00000  Biso   1.000  C
  C288     1.0000 0.79500  0.86090  0.00000  Biso   1.000  C
  H216     1.0000 0.81550  0.87570  0.00000  Biso   1.000  H
  O152     1.0000 0.61030  0.81000  0.00000  Biso   1.000  O
