data_image0
_cell_length_a       24.8217
_cell_length_b       24.8217
_cell_length_c       56.734
_cell_angle_alpha    90
_cell_angle_beta     90
_cell_angle_gamma    120

_symmetry_space_group_name_H-M    "P 1"
_symmetry_int_tables_number       1

loop_
  _symmetry_equiv_pos_as_xyz
  'x, y, z'

loop_
  _atom_site_label
  _atom_site_occupancy
  _atom_site_fract_x
  _atom_site_fract_y
  _atom_site_fract_z
  _atom_site_thermal_displace_type
  _atom_site_B_iso_or_equiv
  _atom_site_type_symbol
  O1       1.0000 0.43710  0.78050  0.02611  Biso   1.000  O
  O2       1.0000 0.65470  0.22060  0.13070  Biso   1.000  O
  C1       1.0000 0.19060  0.88620  0.95000  Biso   1.000  C
  C2       1.0000 0.21640  0.84860  0.87060  Biso   1.000  C
  C3       1.0000 0.49440  0.88930  0.05240  Biso   1.000  C
  H1       1.0000 0.51810  0.87250  0.04690  Biso   1.000  H
  C4       1.0000 0.52240  0.94520  0.06530  Biso   1.000  C
  C5       1.0000 0.57780  0.05700  0.09190  Biso   1.000  C
  C6       1.0000 0.60380  0.11280  0.10444  Biso   1.000  C
  H2       1.0000 0.64610  0.13310  0.10800  Biso   1.000  H
  C7       1.0000 0.57100  0.95780  0.08560  Biso   1.000  C
  C8       1.0000 0.59320  0.98560  0.06610  Biso   1.000  C
  C9       1.0000 0.60400  0.01400  0.09050  Biso   1.000  C
  C10      1.0000 0.61550  0.03320  0.08100  Biso   1.000  C
  O3       1.0000 0.10377  0.11383  0.35944  Biso   1.000  O
  O4       1.0000 0.32137  0.55393  0.46403  Biso   1.000  O
  C11      1.0000 0.85727  0.21953  0.28333  Biso   1.000  C
  C12      1.0000 0.88307  0.18193  0.20393  Biso   1.000  C
  C13      1.0000 0.16107  0.22263  0.38573  Biso   1.000  C
  H3       1.0000 0.18477  0.20583  0.38023  Biso   1.000  H
  C14      1.0000 0.18907  0.27853  0.39863  Biso   1.000  C
  C15      1.0000 0.24447  0.39033  0.42523  Biso   1.000  C
  C16      1.0000 0.27047  0.44613  0.43777  Biso   1.000  C
  H4       1.0000 0.31277  0.46643  0.44133  Biso   1.000  H
  C17      1.0000 0.23767  0.29113  0.41893  Biso   1.000  C
  C18      1.0000 0.25987  0.31893  0.39943  Biso   1.000  C
  C19      1.0000 0.27067  0.34733  0.42383  Biso   1.000  C
  C20      1.0000 0.28217  0.36653  0.41433  Biso   1.000  C
  O5       1.0000 0.77043  0.44717  0.69278  Biso   1.000  O
  O6       1.0000 0.98803  0.88727  0.79737  Biso   1.000  O
  C21      1.0000 0.52393  0.55287  0.61667  Biso   1.000  C
  C22      1.0000 0.54973  0.51527  0.53727  Biso   1.000  C
  C23      1.0000 0.82773  0.55597  0.71907  Biso   1.000  C
  H5       1.0000 0.85143  0.53917  0.71357  Biso   1.000  H
  C24      1.0000 0.85573  0.61187  0.73197  Biso   1.000  C
  C25      1.0000 0.91113  0.72367  0.75857  Biso   1.000  C
  C26      1.0000 0.93713  0.77947  0.77111  Biso   1.000  C
  H6       1.0000 0.97943  0.79977  0.77467  Biso   1.000  H
  C27      1.0000 0.90433  0.62447  0.75227  Biso   1.000  C
  C28      1.0000 0.92653  0.65227  0.73277  Biso   1.000  C
  C29      1.0000 0.93733  0.68067  0.75717  Biso   1.000  C
  C30      1.0000 0.94883  0.69987  0.74767  Biso   1.000  C
  O7       1.0000 0.21950  0.65660  0.02611  Biso   1.000  O
  O8       1.0000 0.77940  0.43410  0.13070  Biso   1.000  O
  C31      1.0000 0.11380  0.30440  0.95000  Biso   1.000  C
  C32      1.0000 0.15140  0.36780  0.87060  Biso   1.000  C
  C33      1.0000 0.11070  0.60510  0.05240  Biso   1.000  C
  H7       1.0000 0.12750  0.64560  0.04690  Biso   1.000  H
  C34      1.0000 0.05480  0.57720  0.06530  Biso   1.000  C
  C35      1.0000 0.94300  0.52080  0.09190  Biso   1.000  C
  C36      1.0000 0.88720  0.49100  0.10444  Biso   1.000  C
  H8       1.0000 0.86690  0.51300  0.10800  Biso   1.000  H
  C37      1.0000 0.04220  0.61320  0.08560  Biso   1.000  C
  C38      1.0000 0.01440  0.60760  0.06610  Biso   1.000  C
  C39      1.0000 0.98600  0.59000  0.09050  Biso   1.000  C
  C40      1.0000 0.96680  0.58230  0.08100  Biso   1.000  C
  O9       1.0000 0.88617  0.98993  0.35944  Biso   1.000  O
  O10      1.0000 0.44607  0.76743  0.46403  Biso   1.000  O
  C41      1.0000 0.78047  0.63773  0.28333  Biso   1.000  C
  C42      1.0000 0.81807  0.70113  0.20393  Biso   1.000  C
  C43      1.0000 0.77737  0.93843  0.38573  Biso   1.000  C
  H9       1.0000 0.79417  0.97893  0.38023  Biso   1.000  H
  C44      1.0000 0.72147  0.91053  0.39863  Biso   1.000  C
  C45      1.0000 0.60967  0.85413  0.42523  Biso   1.000  C
  C46      1.0000 0.55387  0.82433  0.43777  Biso   1.000  C
  H10      1.0000 0.53357  0.84633  0.44133  Biso   1.000  H
  C47      1.0000 0.70887  0.94653  0.41893  Biso   1.000  C
  C48      1.0000 0.68107  0.94093  0.39943  Biso   1.000  C
  C49      1.0000 0.65267  0.92333  0.42383  Biso   1.000  C
  C50      1.0000 0.63347  0.91563  0.41433  Biso   1.000  C
  O11      1.0000 0.55283  0.32327  0.69278  Biso   1.000  O
  O12      1.0000 0.11273  0.10077  0.79737  Biso   1.000  O
  C51      1.0000 0.44713  0.97107  0.61667  Biso   1.000  C
  C52      1.0000 0.48473  0.03447  0.53727  Biso   1.000  C
  C53      1.0000 0.44403  0.27177  0.71907  Biso   1.000  C
  H11      1.0000 0.46083  0.31227  0.71357  Biso   1.000  H
  C54      1.0000 0.38813  0.24387  0.73197  Biso   1.000  C
  C55      1.0000 0.27633  0.18747  0.75857  Biso   1.000  C
  C56      1.0000 0.22053  0.15767  0.77111  Biso   1.000  C
  H12      1.0000 0.20023  0.17967  0.77467  Biso   1.000  H
  C57      1.0000 0.37553  0.27987  0.75227  Biso   1.000  C
  C58      1.0000 0.34773  0.27427  0.73277  Biso   1.000  C
  C59      1.0000 0.31933  0.25667  0.75717  Biso   1.000  C
  C60      1.0000 0.30013  0.24897  0.74767  Biso   1.000  C
  O13      1.0000 0.34340  0.56290  0.02611  Biso   1.000  O
  O14      1.0000 0.56590  0.34530  0.13070  Biso   1.000  O
  C61      1.0000 0.69560  0.80940  0.95000  Biso   1.000  C
  C62      1.0000 0.63220  0.78360  0.87060  Biso   1.000  C
  C63      1.0000 0.39490  0.50560  0.05240  Biso   1.000  C
  H13      1.0000 0.35440  0.48190  0.04690  Biso   1.000  H
  C64      1.0000 0.42280  0.47760  0.06530  Biso   1.000  C
  C65      1.0000 0.47920  0.42220  0.09190  Biso   1.000  C
  C66      1.0000 0.50900  0.39620  0.10444  Biso   1.000  C
  H14      1.0000 0.48700  0.35390  0.10800  Biso   1.000  H
  C67      1.0000 0.38680  0.42900  0.08560  Biso   1.000  C
  C68      1.0000 0.39240  0.40680  0.06610  Biso   1.000  C
  C69      1.0000 0.41000  0.39600  0.09050  Biso   1.000  C
  C70      1.0000 0.41770  0.38450  0.08100  Biso   1.000  C
  O15      1.0000 0.01007  0.89623  0.35944  Biso   1.000  O
  O16      1.0000 0.23257  0.67863  0.46403  Biso   1.000  O
  C71      1.0000 0.36227  0.14273  0.28333  Biso   1.000  C
  C72      1.0000 0.29887  0.11693  0.20393  Biso   1.000  C
  C73      1.0000 0.06157  0.83893  0.38573  Biso   1.000  C
  H15      1.0000 0.02107  0.81523  0.38023  Biso   1.000  H
  C74      1.0000 0.08947  0.81093  0.39863  Biso   1.000  C
  C75      1.0000 0.14587  0.75553  0.42523  Biso   1.000  C
  C76      1.0000 0.17567  0.72953  0.43777  Biso   1.000  C
  H16      1.0000 0.15367  0.68723  0.44133  Biso   1.000  H
  C77      1.0000 0.05347  0.76233  0.41893  Biso   1.000  C
  C78      1.0000 0.05907  0.74013  0.39943  Biso   1.000  C
  C79      1.0000 0.07667  0.72933  0.42383  Biso   1.000  C
  C80      1.0000 0.08437  0.71783  0.41433  Biso   1.000  C
  O17      1.0000 0.67673  0.22957  0.69278  Biso   1.000  O
  O18      1.0000 0.89923  0.01197  0.79737  Biso   1.000  O
  C81      1.0000 0.02893  0.47607  0.61667  Biso   1.000  C
  C82      1.0000 0.96553  0.45027  0.53727  Biso   1.000  C
  C83      1.0000 0.72823  0.17227  0.71907  Biso   1.000  C
  H17      1.0000 0.68773  0.14857  0.71357  Biso   1.000  H
  C84      1.0000 0.75613  0.14427  0.73197  Biso   1.000  C
  C85      1.0000 0.81253  0.08887  0.75857  Biso   1.000  C
  C86      1.0000 0.84233  0.06287  0.77111  Biso   1.000  C
  H18      1.0000 0.82033  0.02057  0.77467  Biso   1.000  H
  C87      1.0000 0.72013  0.09567  0.75227  Biso   1.000  C
  C88      1.0000 0.72573  0.07347  0.73277  Biso   1.000  C
  C89      1.0000 0.74333  0.06267  0.75717  Biso   1.000  C
  C90      1.0000 0.75103  0.05117  0.74767  Biso   1.000  C
  O19      1.0000 0.21950  0.56290  0.02611  Biso   1.000  O
  O20      1.0000 0.77940  0.34530  0.13070  Biso   1.000  O
  C91      1.0000 0.11380  0.80940  0.95000  Biso   1.000  C
  C92      1.0000 0.15140  0.78360  0.87060  Biso   1.000  C
  C93      1.0000 0.11070  0.50560  0.05240  Biso   1.000  C
  H19      1.0000 0.12750  0.48190  0.04690  Biso   1.000  H
  C94      1.0000 0.05480  0.47760  0.06530  Biso   1.000  C
  C95      1.0000 0.94300  0.42220  0.09190  Biso   1.000  C
  C96      1.0000 0.88720  0.39620  0.10444  Biso   1.000  C
  H20      1.0000 0.86690  0.35390  0.10800  Biso   1.000  H
  C97      1.0000 0.04220  0.42900  0.08560  Biso   1.000  C
  C98      1.0000 0.01440  0.40680  0.06610  Biso   1.000  C
  C99      1.0000 0.98600  0.39600  0.09050  Biso   1.000  C
  C100     1.0000 0.96680  0.38450  0.08100  Biso   1.000  C
  O21      1.0000 0.88617  0.89623  0.35944  Biso   1.000  O
  O22      1.0000 0.44607  0.67863  0.46403  Biso   1.000  O
  C101     1.0000 0.78047  0.14273  0.28333  Biso   1.000  C
  C102     1.0000 0.81807  0.11693  0.20393  Biso   1.000  C
  C103     1.0000 0.77737  0.83893  0.38573  Biso   1.000  C
  H21      1.0000 0.79417  0.81523  0.38023  Biso   1.000  H
  C104     1.0000 0.72147  0.81093  0.39863  Biso   1.000  C
  C105     1.0000 0.60967  0.75553  0.42523  Biso   1.000  C
  C106     1.0000 0.55387  0.72953  0.43777  Biso   1.000  C
  H22      1.0000 0.53357  0.68723  0.44133  Biso   1.000  H
  C107     1.0000 0.70887  0.76233  0.41893  Biso   1.000  C
  C108     1.0000 0.68107  0.74013  0.39943  Biso   1.000  C
  C109     1.0000 0.65267  0.72933  0.42383  Biso   1.000  C
  C110     1.0000 0.63347  0.71783  0.41433  Biso   1.000  C
  O23      1.0000 0.55283  0.22957  0.69278  Biso   1.000  O
  O24      1.0000 0.11273  0.01197  0.79737  Biso   1.000  O
  C111     1.0000 0.44713  0.47607  0.61667  Biso   1.000  C
  C112     1.0000 0.48473  0.45027  0.53727  Biso   1.000  C
  C113     1.0000 0.44403  0.17227  0.71907  Biso   1.000  C
  H23      1.0000 0.46083  0.14857  0.71357  Biso   1.000  H
  C114     1.0000 0.38813  0.14427  0.73197  Biso   1.000  C
  C115     1.0000 0.27633  0.08887  0.75857  Biso   1.000  C
  C116     1.0000 0.22053  0.06287  0.77111  Biso   1.000  C
  H24      1.0000 0.20023  0.02057  0.77467  Biso   1.000  H
  C117     1.0000 0.37553  0.09567  0.75227  Biso   1.000  C
  C118     1.0000 0.34773  0.07347  0.73277  Biso   1.000  C
  C119     1.0000 0.31933  0.06267  0.75717  Biso   1.000  C
  C120     1.0000 0.30013  0.05117  0.74767  Biso   1.000  C
  O25      1.0000 0.34340  0.78050  0.02611  Biso   1.000  O
  O26      1.0000 0.56590  0.22060  0.13070  Biso   1.000  O
  C121     1.0000 0.69560  0.88620  0.95000  Biso   1.000  C
  C122     1.0000 0.63220  0.84860  0.87060  Biso   1.000  C
  C123     1.0000 0.39490  0.88930  0.05240  Biso   1.000  C
  H25      1.0000 0.35440  0.87250  0.04690  Biso   1.000  H
  C124     1.0000 0.42280  0.94520  0.06530  Biso   1.000  C
  C125     1.0000 0.47920  0.05700  0.09190  Biso   1.000  C
  C126     1.0000 0.50900  0.11280  0.10444  Biso   1.000  C
  H26      1.0000 0.48700  0.13310  0.10800  Biso   1.000  H
  C127     1.0000 0.38680  0.95780  0.08560  Biso   1.000  C
  C128     1.0000 0.39240  0.98560  0.06610  Biso   1.000  C
  C129     1.0000 0.41000  0.01400  0.09050  Biso   1.000  C
  C130     1.0000 0.41770  0.03320  0.08100  Biso   1.000  C
  O27      1.0000 0.01007  0.11383  0.35944  Biso   1.000  O
  O28      1.0000 0.23257  0.55393  0.46403  Biso   1.000  O
  C131     1.0000 0.36227  0.21953  0.28333  Biso   1.000  C
  C132     1.0000 0.29887  0.18193  0.20393  Biso   1.000  C
  C133     1.0000 0.06157  0.22263  0.38573  Biso   1.000  C
  H27      1.0000 0.02107  0.20583  0.38023  Biso   1.000  H
  C134     1.0000 0.08947  0.27853  0.39863  Biso   1.000  C
  C135     1.0000 0.14587  0.39033  0.42523  Biso   1.000  C
  C136     1.0000 0.17567  0.44613  0.43777  Biso   1.000  C
  H28      1.0000 0.15367  0.46643  0.44133  Biso   1.000  H
  C137     1.0000 0.05347  0.29113  0.41893  Biso   1.000  C
  C138     1.0000 0.05907  0.31893  0.39943  Biso   1.000  C
  C139     1.0000 0.07667  0.34733  0.42383  Biso   1.000  C
  C140     1.0000 0.08437  0.36653  0.41433  Biso   1.000  C
  O29      1.0000 0.67673  0.44717  0.69278  Biso   1.000  O
  O30      1.0000 0.89923  0.88727  0.79737  Biso   1.000  O
  C141     1.0000 0.02893  0.55287  0.61667  Biso   1.000  C
  C142     1.0000 0.96553  0.51527  0.53727  Biso   1.000  C
  C143     1.0000 0.72823  0.55597  0.71907  Biso   1.000  C
  H29      1.0000 0.68773  0.53917  0.71357  Biso   1.000  H
  C144     1.0000 0.75613  0.61187  0.73197  Biso   1.000  C
  C145     1.0000 0.81253  0.72367  0.75857  Biso   1.000  C
  C146     1.0000 0.84233  0.77947  0.77111  Biso   1.000  C
  H30      1.0000 0.82033  0.79977  0.77467  Biso   1.000  H
  C147     1.0000 0.72013  0.62447  0.75227  Biso   1.000  C
  C148     1.0000 0.72573  0.65227  0.73277  Biso   1.000  C
  C149     1.0000 0.74333  0.68067  0.75717  Biso   1.000  C
  C150     1.0000 0.75103  0.69987  0.74767  Biso   1.000  C
  O31      1.0000 0.43710  0.65660  0.02611  Biso   1.000  O
  O32      1.0000 0.65470  0.43410  0.13070  Biso   1.000  O
  C151     1.0000 0.19060  0.30440  0.95000  Biso   1.000  C
  C152     1.0000 0.21640  0.36780  0.87060  Biso   1.000  C
  C153     1.0000 0.49440  0.60510  0.05240  Biso   1.000  C
  H31      1.0000 0.51810  0.64560  0.04690  Biso   1.000  H
  C154     1.0000 0.52240  0.57720  0.06530  Biso   1.000  C
  C155     1.0000 0.57780  0.52080  0.09190  Biso   1.000  C
  C156     1.0000 0.60380  0.49100  0.10444  Biso   1.000  C
  H32      1.0000 0.64610  0.51300  0.10800  Biso   1.000  H
  C157     1.0000 0.57100  0.61320  0.08560  Biso   1.000  C
  C158     1.0000 0.59320  0.60760  0.06610  Biso   1.000  C
  C159     1.0000 0.60400  0.59000  0.09050  Biso   1.000  C
  C160     1.0000 0.61550  0.58230  0.08100  Biso   1.000  C
  O33      1.0000 0.10377  0.98993  0.35944  Biso   1.000  O
  O34      1.0000 0.32137  0.76743  0.46403  Biso   1.000  O
  C161     1.0000 0.85727  0.63773  0.28333  Biso   1.000  C
  C162     1.0000 0.88307  0.70113  0.20393  Biso   1.000  C
  C163     1.0000 0.16107  0.93843  0.38573  Biso   1.000  C
  H33      1.0000 0.18477  0.97893  0.38023  Biso   1.000  H
  C164     1.0000 0.18907  0.91053  0.39863  Biso   1.000  C
  C165     1.0000 0.24447  0.85413  0.42523  Biso   1.000  C
  C166     1.0000 0.27047  0.82433  0.43777  Biso   1.000  C
  H34      1.0000 0.31277  0.84633  0.44133  Biso   1.000  H
  C167     1.0000 0.23767  0.94653  0.41893  Biso   1.000  C
  C168     1.0000 0.25987  0.94093  0.39943  Biso   1.000  C
  C169     1.0000 0.27067  0.92333  0.42383  Biso   1.000  C
  C170     1.0000 0.28217  0.91563  0.41433  Biso   1.000  C
  O35      1.0000 0.77043  0.32327  0.69278  Biso   1.000  O
  O36      1.0000 0.98803  0.10077  0.79737  Biso   1.000  O
  C171     1.0000 0.52393  0.97107  0.61667  Biso   1.000  C
  C172     1.0000 0.54973  0.03447  0.53727  Biso   1.000  C
  C173     1.0000 0.82773  0.27177  0.71907  Biso   1.000  C
  H35      1.0000 0.85143  0.31227  0.71357  Biso   1.000  H
  C174     1.0000 0.85573  0.24387  0.73197  Biso   1.000  C
  C175     1.0000 0.91113  0.18747  0.75857  Biso   1.000  C
  C176     1.0000 0.93713  0.15767  0.77111  Biso   1.000  C
  H36      1.0000 0.97943  0.17967  0.77467  Biso   1.000  H
  C177     1.0000 0.90433  0.27987  0.75227  Biso   1.000  C
  C178     1.0000 0.92653  0.27427  0.73277  Biso   1.000  C
  C179     1.0000 0.93733  0.25667  0.75717  Biso   1.000  C
  C180     1.0000 0.94883  0.24897  0.74767  Biso   1.000  C
  Zn1      1.0000 0.33333  0.66667  0.96170  Biso   1.000  Zn
  O37      1.0000 0.33333  0.66667  0.99559  Biso   1.000  O
  Zn2      1.0000 0.00000  0.00000  0.29503  Biso   1.000  Zn
  O38      1.0000 0.00000  0.00000  0.32892  Biso   1.000  O
  Zn3      1.0000 0.66667  0.33333  0.62837  Biso   1.000  Zn
  O39      1.0000 0.66667  0.33333  0.66226  Biso   1.000  O
  Zn4      1.0000 0.41919  0.70960  0.00717  Biso   1.000  Zn
  Zn5      1.0000 0.08586  0.04293  0.34051  Biso   1.000  Zn
  Zn6      1.0000 0.75252  0.37626  0.67384  Biso   1.000  Zn
  Zn7      1.0000 0.29040  0.70960  0.00717  Biso   1.000  Zn
  Zn8      1.0000 0.95707  0.04293  0.34051  Biso   1.000  Zn
  Zn9      1.0000 0.62374  0.37626  0.67384  Biso   1.000  Zn
  Zn10     1.0000 0.29040  0.58081  0.00717  Biso   1.000  Zn
  Zn11     1.0000 0.95707  0.91414  0.34051  Biso   1.000  Zn
  Zn12     1.0000 0.62374  0.24748  0.67384  Biso   1.000  Zn
  Zn13     1.0000 0.04156  0.95844  0.81740  Biso   1.000  Zn
  O40      1.0000 0.29179  0.70821  0.94794  Biso   1.000  O
  O41      1.0000 0.26266  0.73734  0.98047  Biso   1.000  O
  O42      1.0000 0.07524  0.92476  0.83979  Biso   1.000  O
  O43      1.0000 0.04610  0.95390  0.87100  Biso   1.000  O
  C181     1.0000 0.23864  0.76136  0.92001  Biso   1.000  C
  H37      1.0000 0.25790  0.74210  0.91260  Biso   1.000  H
  C182     1.0000 0.23750  0.76250  0.94300  Biso   1.000  C
  C183     1.0000 0.20930  0.79070  0.95380  Biso   1.000  C
  H38      1.0000 0.20850  0.79150  0.97010  Biso   1.000  H
  C184     1.0000 0.12780  0.87220  0.93960  Biso   1.000  C
  C185     1.0000 0.09910  0.90090  0.90000  Biso   1.000  C
  H39      1.0000 0.08000  0.92000  0.90760  Biso   1.000  H
  C186     1.0000 0.10080  0.89920  0.87580  Biso   1.000  C
  C187     1.0000 0.12760  0.87240  0.86627  Biso   1.000  C
  H40      1.0000 0.12930  0.87070  0.85000  Biso   1.000  H
  C188     1.0000 0.21270  0.78730  0.87986  Biso   1.000  C
  C189     1.0000 0.21185  0.78815  0.90617  Biso   1.000  C
  C190     1.0000 0.18330  0.81670  0.91686  Biso   1.000  C
  C191     1.0000 0.18110  0.81890  0.94090  Biso   1.000  C
  C192     1.0000 0.12730  0.87270  0.91300  Biso   1.000  C
  C193     1.0000 0.15470  0.84530  0.90230  Biso   1.000  C
  C194     1.0000 0.15480  0.84520  0.88009  Biso   1.000  C
  C195     1.0000 0.26590  0.73410  0.95830  Biso   1.000  C
  C196     1.0000 0.07050  0.92950  0.86130  Biso   1.000  C
  Zn14     1.0000 0.70823  0.29177  0.15073  Biso   1.000  Zn
  O44      1.0000 0.95846  0.04154  0.28127  Biso   1.000  O
  O45      1.0000 0.92932  0.07068  0.31380  Biso   1.000  O
  O46      1.0000 0.74191  0.25809  0.17312  Biso   1.000  O
  O47      1.0000 0.71277  0.28723  0.20433  Biso   1.000  O
  C197     1.0000 0.90531  0.09469  0.25334  Biso   1.000  C
  H41      1.0000 0.92457  0.07543  0.24593  Biso   1.000  H
  C198     1.0000 0.90417  0.09583  0.27633  Biso   1.000  C
  C199     1.0000 0.87597  0.12403  0.28713  Biso   1.000  C
  H42      1.0000 0.87517  0.12483  0.30343  Biso   1.000  H
  C200     1.0000 0.79447  0.20553  0.27293  Biso   1.000  C
  C201     1.0000 0.76577  0.23423  0.23333  Biso   1.000  C
  H43      1.0000 0.74667  0.25333  0.24093  Biso   1.000  H
  C202     1.0000 0.76747  0.23253  0.20913  Biso   1.000  C
  C203     1.0000 0.79427  0.20573  0.19960  Biso   1.000  C
  H44      1.0000 0.79597  0.20403  0.18333  Biso   1.000  H
  C204     1.0000 0.87937  0.12063  0.21319  Biso   1.000  C
  C205     1.0000 0.87852  0.12148  0.23950  Biso   1.000  C
  C206     1.0000 0.84997  0.15003  0.25019  Biso   1.000  C
  C207     1.0000 0.84777  0.15223  0.27423  Biso   1.000  C
  C208     1.0000 0.79397  0.20603  0.24633  Biso   1.000  C
  C209     1.0000 0.82137  0.17863  0.23563  Biso   1.000  C
  C210     1.0000 0.82147  0.17853  0.21342  Biso   1.000  C
  C211     1.0000 0.93257  0.06743  0.29163  Biso   1.000  C
  C212     1.0000 0.73717  0.26283  0.19463  Biso   1.000  C
  Zn15     1.0000 0.37489  0.62511  0.48407  Biso   1.000  Zn
  O48      1.0000 0.62512  0.37488  0.61461  Biso   1.000  O
  O49      1.0000 0.59599  0.40401  0.64714  Biso   1.000  O
  O50      1.0000 0.40857  0.59143  0.50646  Biso   1.000  O
  O51      1.0000 0.37943  0.62057  0.53767  Biso   1.000  O
  C213     1.0000 0.57197  0.42803  0.58668  Biso   1.000  C
  H45      1.0000 0.59123  0.40877  0.57927  Biso   1.000  H
  C214     1.0000 0.57083  0.42917  0.60967  Biso   1.000  C
  C215     1.0000 0.54263  0.45737  0.62047  Biso   1.000  C
  H46      1.0000 0.54183  0.45817  0.63677  Biso   1.000  H
  C216     1.0000 0.46113  0.53887  0.60627  Biso   1.000  C
  C217     1.0000 0.43243  0.56757  0.56667  Biso   1.000  C
  H47      1.0000 0.41333  0.58667  0.57427  Biso   1.000  H
  C218     1.0000 0.43413  0.56587  0.54247  Biso   1.000  C
  C219     1.0000 0.46093  0.53907  0.53294  Biso   1.000  C
  H48      1.0000 0.46263  0.53737  0.51667  Biso   1.000  H
  C220     1.0000 0.54603  0.45397  0.54653  Biso   1.000  C
  C221     1.0000 0.54518  0.45482  0.57284  Biso   1.000  C
  C222     1.0000 0.51663  0.48337  0.58353  Biso   1.000  C
  C223     1.0000 0.51443  0.48557  0.60757  Biso   1.000  C
  C224     1.0000 0.46063  0.53937  0.57967  Biso   1.000  C
  C225     1.0000 0.48803  0.51197  0.56897  Biso   1.000  C
  C226     1.0000 0.48813  0.51187  0.54676  Biso   1.000  C
  C227     1.0000 0.59923  0.40077  0.62497  Biso   1.000  C
  C228     1.0000 0.40383  0.59617  0.52797  Biso   1.000  C
  Zn16     1.0000 0.04156  0.08312  0.81740  Biso   1.000  Zn
  O52      1.0000 0.29179  0.58358  0.94794  Biso   1.000  O
  O53      1.0000 0.26266  0.52531  0.98047  Biso   1.000  O
  O54      1.0000 0.07524  0.15048  0.83979  Biso   1.000  O
  O55      1.0000 0.04610  0.09220  0.87100  Biso   1.000  O
  C229     1.0000 0.23864  0.47728  0.92001  Biso   1.000  C
  H49      1.0000 0.25790  0.51580  0.91260  Biso   1.000  H
  C230     1.0000 0.23750  0.47500  0.94300  Biso   1.000  C
  C231     1.0000 0.20930  0.41860  0.95380  Biso   1.000  C
  H50      1.0000 0.20850  0.41700  0.97010  Biso   1.000  H
  C232     1.0000 0.12780  0.25560  0.93960  Biso   1.000  C
  C233     1.0000 0.09910  0.19820  0.90000  Biso   1.000  C
  H51      1.0000 0.08000  0.16000  0.90760  Biso   1.000  H
  C234     1.0000 0.10080  0.20160  0.87580  Biso   1.000  C
  C235     1.0000 0.12760  0.25520  0.86627  Biso   1.000  C
  H52      1.0000 0.12930  0.25860  0.85000  Biso   1.000  H
  C236     1.0000 0.21270  0.42540  0.87986  Biso   1.000  C
  C237     1.0000 0.21185  0.42370  0.90617  Biso   1.000  C
  C238     1.0000 0.18330  0.36660  0.91686  Biso   1.000  C
  C239     1.0000 0.18110  0.36220  0.94090  Biso   1.000  C
  C240     1.0000 0.12730  0.25460  0.91300  Biso   1.000  C
  C241     1.0000 0.15470  0.30940  0.90230  Biso   1.000  C
  C242     1.0000 0.15480  0.30960  0.88009  Biso   1.000  C
  C243     1.0000 0.26590  0.53180  0.95830  Biso   1.000  C
  C244     1.0000 0.07050  0.14100  0.86130  Biso   1.000  C
  Zn17     1.0000 0.70823  0.41645  0.15073  Biso   1.000  Zn
  O56      1.0000 0.95846  0.91691  0.28127  Biso   1.000  O
  O57      1.0000 0.92932  0.85864  0.31380  Biso   1.000  O
  O58      1.0000 0.74191  0.48381  0.17312  Biso   1.000  O
  O59      1.0000 0.71277  0.42553  0.20433  Biso   1.000  O
  C245     1.0000 0.90531  0.81061  0.25334  Biso   1.000  C
  H53      1.0000 0.92457  0.84913  0.24593  Biso   1.000  H
  C246     1.0000 0.90417  0.80833  0.27633  Biso   1.000  C
  C247     1.0000 0.87597  0.75193  0.28713  Biso   1.000  C
  H54      1.0000 0.87517  0.75033  0.30343  Biso   1.000  H
  C248     1.0000 0.79447  0.58893  0.27293  Biso   1.000  C
  C249     1.0000 0.76577  0.53153  0.23333  Biso   1.000  C
  H55      1.0000 0.74667  0.49333  0.24093  Biso   1.000  H
  C250     1.0000 0.76747  0.53493  0.20913  Biso   1.000  C
  C251     1.0000 0.79427  0.58853  0.19960  Biso   1.000  C
  H56      1.0000 0.79597  0.59193  0.18333  Biso   1.000  H
  C252     1.0000 0.87937  0.75873  0.21319  Biso   1.000  C
  C253     1.0000 0.87852  0.75703  0.23950  Biso   1.000  C
  C254     1.0000 0.84997  0.69993  0.25019  Biso   1.000  C
  C255     1.0000 0.84777  0.69553  0.27423  Biso   1.000  C
  C256     1.0000 0.79397  0.58793  0.24633  Biso   1.000  C
  C257     1.0000 0.82137  0.64273  0.23563  Biso   1.000  C
  C258     1.0000 0.82147  0.64293  0.21342  Biso   1.000  C
  C259     1.0000 0.93257  0.86513  0.29163  Biso   1.000  C
  C260     1.0000 0.73717  0.47433  0.19463  Biso   1.000  C
  Zn18     1.0000 0.37489  0.74979  0.48407  Biso   1.000  Zn
  O60      1.0000 0.62512  0.25025  0.61461  Biso   1.000  O
  O61      1.0000 0.59599  0.19198  0.64714  Biso   1.000  O
  O62      1.0000 0.40857  0.81715  0.50646  Biso   1.000  O
  O63      1.0000 0.37943  0.75887  0.53767  Biso   1.000  O
  C261     1.0000 0.57197  0.14395  0.58668  Biso   1.000  C
  H57      1.0000 0.59123  0.18247  0.57927  Biso   1.000  H
  C262     1.0000 0.57083  0.14167  0.60967  Biso   1.000  C
  C263     1.0000 0.54263  0.08527  0.62047  Biso   1.000  C
  H58      1.0000 0.54183  0.08367  0.63677  Biso   1.000  H
  C264     1.0000 0.46113  0.92227  0.60627  Biso   1.000  C
  C265     1.0000 0.43243  0.86487  0.56667  Biso   1.000  C
  H59      1.0000 0.41333  0.82667  0.57427  Biso   1.000  H
  C266     1.0000 0.43413  0.86827  0.54247  Biso   1.000  C
  C267     1.0000 0.46093  0.92187  0.53294  Biso   1.000  C
  H60      1.0000 0.46263  0.92527  0.51667  Biso   1.000  H
  C268     1.0000 0.54603  0.09207  0.54653  Biso   1.000  C
  C269     1.0000 0.54518  0.09037  0.57284  Biso   1.000  C
  C270     1.0000 0.51663  0.03327  0.58353  Biso   1.000  C
  C271     1.0000 0.51443  0.02887  0.60757  Biso   1.000  C
  C272     1.0000 0.46063  0.92127  0.57967  Biso   1.000  C
  C273     1.0000 0.48803  0.97607  0.56897  Biso   1.000  C
  C274     1.0000 0.48813  0.97627  0.54676  Biso   1.000  C
  C275     1.0000 0.59923  0.19847  0.62497  Biso   1.000  C
  C276     1.0000 0.40383  0.80767  0.52797  Biso   1.000  C
  Zn19     1.0000 0.91688  0.95844  0.81740  Biso   1.000  Zn
  O64      1.0000 0.41642  0.70821  0.94794  Biso   1.000  O
  O65      1.0000 0.47469  0.73734  0.98047  Biso   1.000  O
  O66      1.0000 0.84952  0.92476  0.83979  Biso   1.000  O
  O67      1.0000 0.90780  0.95390  0.87100  Biso   1.000  O
  C277     1.0000 0.52272  0.76136  0.92001  Biso   1.000  C
  H61      1.0000 0.48420  0.74210  0.91260  Biso   1.000  H
  C278     1.0000 0.52500  0.76250  0.94300  Biso   1.000  C
  C279     1.0000 0.58140  0.79070  0.95380  Biso   1.000  C
  H62      1.0000 0.58300  0.79150  0.97010  Biso   1.000  H
  C280     1.0000 0.74440  0.87220  0.93960  Biso   1.000  C
  C281     1.0000 0.80180  0.90090  0.90000  Biso   1.000  C
  H63      1.0000 0.84000  0.92000  0.90760  Biso   1.000  H
  C282     1.0000 0.79840  0.89920  0.87580  Biso   1.000  C
  C283     1.0000 0.74480  0.87240  0.86627  Biso   1.000  C
  H64      1.0000 0.74140  0.87070  0.85000  Biso   1.000  H
  C284     1.0000 0.57460  0.78730  0.87986  Biso   1.000  C
  C285     1.0000 0.57630  0.78815  0.90617  Biso   1.000  C
  C286     1.0000 0.63340  0.81670  0.91686  Biso   1.000  C
  C287     1.0000 0.63780  0.81890  0.94090  Biso   1.000  C
  C288     1.0000 0.74540  0.87270  0.91300  Biso   1.000  C
  C289     1.0000 0.69060  0.84530  0.90230  Biso   1.000  C
  C290     1.0000 0.69040  0.84520  0.88009  Biso   1.000  C
  C291     1.0000 0.46820  0.73410  0.95830  Biso   1.000  C
  C292     1.0000 0.85900  0.92950  0.86130  Biso   1.000  C
  Zn20     1.0000 0.58355  0.29177  0.15073  Biso   1.000  Zn
  O68      1.0000 0.08309  0.04154  0.28127  Biso   1.000  O
  O69      1.0000 0.14136  0.07068  0.31380  Biso   1.000  O
  O70      1.0000 0.51619  0.25809  0.17312  Biso   1.000  O
  O71      1.0000 0.57447  0.28723  0.20433  Biso   1.000  O
  C293     1.0000 0.18939  0.09469  0.25334  Biso   1.000  C
  H65      1.0000 0.15087  0.07543  0.24593  Biso   1.000  H
  C294     1.0000 0.19167  0.09583  0.27633  Biso   1.000  C
  C295     1.0000 0.24807  0.12403  0.28713  Biso   1.000  C
  H66      1.0000 0.24967  0.12483  0.30343  Biso   1.000  H
  C296     1.0000 0.41107  0.20553  0.27293  Biso   1.000  C
  C297     1.0000 0.46847  0.23423  0.23333  Biso   1.000  C
  H67      1.0000 0.50667  0.25333  0.24093  Biso   1.000  H
  C298     1.0000 0.46507  0.23253  0.20913  Biso   1.000  C
  C299     1.0000 0.41147  0.20573  0.19960  Biso   1.000  C
  H68      1.0000 0.40807  0.20403  0.18333  Biso   1.000  H
  C300     1.0000 0.24127  0.12063  0.21319  Biso   1.000  C
  C301     1.0000 0.24297  0.12148  0.23950  Biso   1.000  C
  C302     1.0000 0.30007  0.15003  0.25019  Biso   1.000  C
  C303     1.0000 0.30447  0.15223  0.27423  Biso   1.000  C
  C304     1.0000 0.41207  0.20603  0.24633  Biso   1.000  C
  C305     1.0000 0.35727  0.17863  0.23563  Biso   1.000  C
  C306     1.0000 0.35707  0.17853  0.21342  Biso   1.000  C
  C307     1.0000 0.13487  0.06743  0.29163  Biso   1.000  C
  C308     1.0000 0.52567  0.26283  0.19463  Biso   1.000  C
  Zn21     1.0000 0.25021  0.62511  0.48407  Biso   1.000  Zn
  O72      1.0000 0.74975  0.37488  0.61461  Biso   1.000  O
  O73      1.0000 0.80802  0.40401  0.64714  Biso   1.000  O
  O74      1.0000 0.18285  0.59143  0.50646  Biso   1.000  O
  O75      1.0000 0.24113  0.62057  0.53767  Biso   1.000  O
  C309     1.0000 0.85605  0.42803  0.58668  Biso   1.000  C
  H69      1.0000 0.81753  0.40877  0.57927  Biso   1.000  H
  C310     1.0000 0.85833  0.42917  0.60967  Biso   1.000  C
  C311     1.0000 0.91473  0.45737  0.62047  Biso   1.000  C
  H70      1.0000 0.91633  0.45817  0.63677  Biso   1.000  H
  C312     1.0000 0.07773  0.53887  0.60627  Biso   1.000  C
  C313     1.0000 0.13513  0.56757  0.56667  Biso   1.000  C
  H71      1.0000 0.17333  0.58667  0.57427  Biso   1.000  H
  C314     1.0000 0.13173  0.56587  0.54247  Biso   1.000  C
  C315     1.0000 0.07813  0.53907  0.53294  Biso   1.000  C
  H72      1.0000 0.07473  0.53737  0.51667  Biso   1.000  H
  C316     1.0000 0.90793  0.45397  0.54653  Biso   1.000  C
  C317     1.0000 0.90963  0.45482  0.57284  Biso   1.000  C
  C318     1.0000 0.96673  0.48337  0.58353  Biso   1.000  C
  C319     1.0000 0.97113  0.48557  0.60757  Biso   1.000  C
  C320     1.0000 0.07873  0.53937  0.57967  Biso   1.000  C
  C321     1.0000 0.02393  0.51197  0.56897  Biso   1.000  C
  C322     1.0000 0.02373  0.51187  0.54676  Biso   1.000  C
  C323     1.0000 0.80153  0.40077  0.62497  Biso   1.000  C
  C324     1.0000 0.19233  0.59617  0.52797  Biso   1.000  C
  Zn22     1.0000 0.00000  0.00000  0.86537  Biso   1.000  Zn
  O76      1.0000 0.00000  0.00000  0.82952  Biso   1.000  O
  Zn23     1.0000 0.66667  0.33333  0.19870  Biso   1.000  Zn
  O77      1.0000 0.66667  0.33333  0.16285  Biso   1.000  O
  Zn24     1.0000 0.33333  0.66667  0.53204  Biso   1.000  Zn
  O78      1.0000 0.33333  0.66667  0.49619  Biso   1.000  O
  C325     1.0000 0.42935  0.85870  0.04810  Biso   1.000  C
  C326     1.0000 0.48475  0.96950  0.07260  Biso   1.000  C
  C327     1.0000 0.51395  0.02790  0.08670  Biso   1.000  C
  C328     1.0000 0.56910  0.13820  0.11150  Biso   1.000  C
  C329     1.0000 0.40060  0.80120  0.03240  Biso   1.000  C
  C330     1.0000 0.59885  0.19770  0.12616  Biso   1.000  C
  C331     1.0000 0.09602  0.19203  0.38143  Biso   1.000  C
  C332     1.0000 0.15142  0.30283  0.40593  Biso   1.000  C
  C333     1.0000 0.18062  0.36123  0.42003  Biso   1.000  C
  C334     1.0000 0.23577  0.47153  0.44483  Biso   1.000  C
  C335     1.0000 0.06727  0.13453  0.36573  Biso   1.000  C
  C336     1.0000 0.26552  0.53103  0.45949  Biso   1.000  C
  C337     1.0000 0.76268  0.52537  0.71477  Biso   1.000  C
  C338     1.0000 0.81808  0.63617  0.73927  Biso   1.000  C
  C339     1.0000 0.84728  0.69457  0.75337  Biso   1.000  C
  C340     1.0000 0.90243  0.80487  0.77817  Biso   1.000  C
  C341     1.0000 0.73393  0.46787  0.69907  Biso   1.000  C
  C342     1.0000 0.93218  0.86437  0.79283  Biso   1.000  C
  C343     1.0000 0.14130  0.57065  0.04810  Biso   1.000  C
  C344     1.0000 0.03050  0.51525  0.07260  Biso   1.000  C
  C345     1.0000 0.97210  0.48605  0.08670  Biso   1.000  C
  C346     1.0000 0.86180  0.43090  0.11150  Biso   1.000  C
  C347     1.0000 0.19880  0.59940  0.03240  Biso   1.000  C
  C348     1.0000 0.80230  0.40115  0.12616  Biso   1.000  C
  C349     1.0000 0.80797  0.90398  0.38143  Biso   1.000  C
  C350     1.0000 0.69717  0.84858  0.40593  Biso   1.000  C
  C351     1.0000 0.63877  0.81938  0.42003  Biso   1.000  C
  C352     1.0000 0.52847  0.76423  0.44483  Biso   1.000  C
  C353     1.0000 0.86547  0.93273  0.36573  Biso   1.000  C
  C354     1.0000 0.46897  0.73448  0.45949  Biso   1.000  C
  C355     1.0000 0.47463  0.23732  0.71477  Biso   1.000  C
  C356     1.0000 0.36383  0.18192  0.73927  Biso   1.000  C
  C357     1.0000 0.30543  0.15272  0.75337  Biso   1.000  C
  C358     1.0000 0.19513  0.09757  0.77817  Biso   1.000  C
  C359     1.0000 0.53213  0.26607  0.69907  Biso   1.000  C
  C360     1.0000 0.13563  0.06782  0.79283  Biso   1.000  C
  C361     1.0000 0.42935  0.57065  0.04810  Biso   1.000  C
  C362     1.0000 0.48475  0.51525  0.07260  Biso   1.000  C
  C363     1.0000 0.51395  0.48605  0.08670  Biso   1.000  C
  C364     1.0000 0.56910  0.43090  0.11150  Biso   1.000  C
  C365     1.0000 0.40060  0.59940  0.03240  Biso   1.000  C
  C366     1.0000 0.59885  0.40115  0.12616  Biso   1.000  C
  C367     1.0000 0.09602  0.90398  0.38143  Biso   1.000  C
  C368     1.0000 0.15142  0.84858  0.40593  Biso   1.000  C
  C369     1.0000 0.18062  0.81938  0.42003  Biso   1.000  C
  C370     1.0000 0.23577  0.76423  0.44483  Biso   1.000  C
  C371     1.0000 0.06727  0.93273  0.36573  Biso   1.000  C
  C372     1.0000 0.26552  0.73448  0.45949  Biso   1.000  C
  C373     1.0000 0.76268  0.23732  0.71477  Biso   1.000  C
  C374     1.0000 0.81808  0.18192  0.73927  Biso   1.000  C
  C375     1.0000 0.84728  0.15272  0.75337  Biso   1.000  C
  C376     1.0000 0.90243  0.09757  0.77817  Biso   1.000  C
  C377     1.0000 0.73393  0.26607  0.69907  Biso   1.000  C
  C378     1.0000 0.93218  0.06782  0.79283  Biso   1.000  C
  O79      1.0000 0.78050  0.43710  0.97389  Biso   1.000  O
  O80      1.0000 0.22060  0.65470  0.86930  Biso   1.000  O
  C379     1.0000 0.88620  0.19060  0.05000  Biso   1.000  C
  C380     1.0000 0.84860  0.21640  0.12940  Biso   1.000  C
  C381     1.0000 0.88930  0.49440  0.94760  Biso   1.000  C
  H73      1.0000 0.87250  0.51810  0.95310  Biso   1.000  H
  C382     1.0000 0.94520  0.52240  0.93470  Biso   1.000  C
  C383     1.0000 0.05700  0.57780  0.90810  Biso   1.000  C
  C384     1.0000 0.11280  0.60380  0.89556  Biso   1.000  C
  H74      1.0000 0.13310  0.64610  0.89200  Biso   1.000  H
  C385     1.0000 0.95780  0.57100  0.91440  Biso   1.000  C
  C386     1.0000 0.98560  0.59320  0.93390  Biso   1.000  C
  C387     1.0000 0.01400  0.60400  0.90950  Biso   1.000  C
  C388     1.0000 0.03320  0.61550  0.91900  Biso   1.000  C
  O81      1.0000 0.44717  0.77043  0.30722  Biso   1.000  O
  O82      1.0000 0.88727  0.98803  0.20263  Biso   1.000  O
  C389     1.0000 0.55287  0.52393  0.38333  Biso   1.000  C
  C390     1.0000 0.51527  0.54973  0.46273  Biso   1.000  C
  C391     1.0000 0.55597  0.82773  0.28093  Biso   1.000  C
  H75      1.0000 0.53917  0.85143  0.28643  Biso   1.000  H
  C392     1.0000 0.61187  0.85573  0.26803  Biso   1.000  C
  C393     1.0000 0.72367  0.91113  0.24143  Biso   1.000  C
  C394     1.0000 0.77947  0.93713  0.22889  Biso   1.000  C
  H76      1.0000 0.79977  0.97943  0.22533  Biso   1.000  H
  C395     1.0000 0.62447  0.90433  0.24773  Biso   1.000  C
  C396     1.0000 0.65227  0.92653  0.26723  Biso   1.000  C
  C397     1.0000 0.68067  0.93733  0.24283  Biso   1.000  C
  C398     1.0000 0.69987  0.94883  0.25233  Biso   1.000  C
  O83      1.0000 0.11383  0.10377  0.64056  Biso   1.000  O
  O84      1.0000 0.55393  0.32137  0.53597  Biso   1.000  O
  C399     1.0000 0.21953  0.85727  0.71667  Biso   1.000  C
  C400     1.0000 0.18193  0.88307  0.79607  Biso   1.000  C
  C401     1.0000 0.22263  0.16107  0.61427  Biso   1.000  C
  H77      1.0000 0.20583  0.18477  0.61977  Biso   1.000  H
  C402     1.0000 0.27853  0.18907  0.60137  Biso   1.000  C
  C403     1.0000 0.39033  0.24447  0.57477  Biso   1.000  C
  C404     1.0000 0.44613  0.27047  0.56223  Biso   1.000  C
  H78      1.0000 0.46643  0.31277  0.55867  Biso   1.000  H
  C405     1.0000 0.29113  0.23767  0.58107  Biso   1.000  C
  C406     1.0000 0.31893  0.25987  0.60057  Biso   1.000  C
  C407     1.0000 0.34733  0.27067  0.57617  Biso   1.000  C
  C408     1.0000 0.36653  0.28217  0.58567  Biso   1.000  C
  O85      1.0000 0.65660  0.21950  0.97389  Biso   1.000  O
  O86      1.0000 0.43410  0.77940  0.86930  Biso   1.000  O
  C409     1.0000 0.30440  0.11380  0.05000  Biso   1.000  C
  C410     1.0000 0.36780  0.15140  0.12940  Biso   1.000  C
  C411     1.0000 0.60510  0.11070  0.94760  Biso   1.000  C
  H79      1.0000 0.64560  0.12750  0.95310  Biso   1.000  H
  C412     1.0000 0.57720  0.05480  0.93470  Biso   1.000  C
  C413     1.0000 0.52080  0.94300  0.90810  Biso   1.000  C
  C414     1.0000 0.49100  0.88720  0.89556  Biso   1.000  C
  H80      1.0000 0.51300  0.86690  0.89200  Biso   1.000  H
  C415     1.0000 0.61320  0.04220  0.91440  Biso   1.000  C
  C416     1.0000 0.60760  0.01440  0.93390  Biso   1.000  C
  C417     1.0000 0.59000  0.98600  0.90950  Biso   1.000  C
  C418     1.0000 0.58230  0.96680  0.91900  Biso   1.000  C
  O87      1.0000 0.32327  0.55283  0.30722  Biso   1.000  O
  O88      1.0000 0.10077  0.11273  0.20263  Biso   1.000  O
  C419     1.0000 0.97107  0.44713  0.38333  Biso   1.000  C
  C420     1.0000 0.03447  0.48473  0.46273  Biso   1.000  C
  C421     1.0000 0.27177  0.44403  0.28093  Biso   1.000  C
  H81      1.0000 0.31227  0.46083  0.28643  Biso   1.000  H
  C422     1.0000 0.24387  0.38813  0.26803  Biso   1.000  C
  C423     1.0000 0.18747  0.27633  0.24143  Biso   1.000  C
  C424     1.0000 0.15767  0.22053  0.22889  Biso   1.000  C
  H82      1.0000 0.17967  0.20023  0.22533  Biso   1.000  H
  C425     1.0000 0.27987  0.37553  0.24773  Biso   1.000  C
  C426     1.0000 0.27427  0.34773  0.26723  Biso   1.000  C
  C427     1.0000 0.25667  0.31933  0.24283  Biso   1.000  C
  C428     1.0000 0.24897  0.30013  0.25233  Biso   1.000  C
  O89      1.0000 0.98993  0.88617  0.64056  Biso   1.000  O
  O90      1.0000 0.76743  0.44607  0.53597  Biso   1.000  O
  C429     1.0000 0.63773  0.78047  0.71667  Biso   1.000  C
  C430     1.0000 0.70113  0.81807  0.79607  Biso   1.000  C
  C431     1.0000 0.93843  0.77737  0.61427  Biso   1.000  C
  H83      1.0000 0.97893  0.79417  0.61977  Biso   1.000  H
  C432     1.0000 0.91053  0.72147  0.60137  Biso   1.000  C
  C433     1.0000 0.85413  0.60967  0.57477  Biso   1.000  C
  C434     1.0000 0.82433  0.55387  0.56223  Biso   1.000  C
  H84      1.0000 0.84633  0.53357  0.55867  Biso   1.000  H
  C435     1.0000 0.94653  0.70887  0.58107  Biso   1.000  C
  C436     1.0000 0.94093  0.68107  0.60057  Biso   1.000  C
  C437     1.0000 0.92333  0.65267  0.57617  Biso   1.000  C
  C438     1.0000 0.91563  0.63347  0.58567  Biso   1.000  C
  O91      1.0000 0.56290  0.34340  0.97389  Biso   1.000  O
  O92      1.0000 0.34530  0.56590  0.86930  Biso   1.000  O
  C439     1.0000 0.80940  0.69560  0.05000  Biso   1.000  C
  C440     1.0000 0.78360  0.63220  0.12940  Biso   1.000  C
  C441     1.0000 0.50560  0.39490  0.94760  Biso   1.000  C
  H85      1.0000 0.48190  0.35440  0.95310  Biso   1.000  H
  C442     1.0000 0.47760  0.42280  0.93470  Biso   1.000  C
  C443     1.0000 0.42220  0.47920  0.90810  Biso   1.000  C
  C444     1.0000 0.39620  0.50900  0.89556  Biso   1.000  C
  H86      1.0000 0.35390  0.48700  0.89200  Biso   1.000  H
  C445     1.0000 0.42900  0.38680  0.91440  Biso   1.000  C
  C446     1.0000 0.40680  0.39240  0.93390  Biso   1.000  C
  C447     1.0000 0.39600  0.41000  0.90950  Biso   1.000  C
  C448     1.0000 0.38450  0.41770  0.91900  Biso   1.000  C
  O93      1.0000 0.22957  0.67673  0.30722  Biso   1.000  O
  O94      1.0000 0.01197  0.89923  0.20263  Biso   1.000  O
  C449     1.0000 0.47607  0.02893  0.38333  Biso   1.000  C
  C450     1.0000 0.45027  0.96553  0.46273  Biso   1.000  C
  C451     1.0000 0.17227  0.72823  0.28093  Biso   1.000  C
  H87      1.0000 0.14857  0.68773  0.28643  Biso   1.000  H
  C452     1.0000 0.14427  0.75613  0.26803  Biso   1.000  C
  C453     1.0000 0.08887  0.81253  0.24143  Biso   1.000  C
  C454     1.0000 0.06287  0.84233  0.22889  Biso   1.000  C
  H88      1.0000 0.02057  0.82033  0.22533  Biso   1.000  H
  C455     1.0000 0.09567  0.72013  0.24773  Biso   1.000  C
  C456     1.0000 0.07347  0.72573  0.26723  Biso   1.000  C
  C457     1.0000 0.06267  0.74333  0.24283  Biso   1.000  C
  C458     1.0000 0.05117  0.75103  0.25233  Biso   1.000  C
  O95      1.0000 0.89623  0.01007  0.64056  Biso   1.000  O
  O96      1.0000 0.67863  0.23257  0.53597  Biso   1.000  O
  C459     1.0000 0.14273  0.36227  0.71667  Biso   1.000  C
  C460     1.0000 0.11693  0.29887  0.79607  Biso   1.000  C
  C461     1.0000 0.83893  0.06157  0.61427  Biso   1.000  C
  H89      1.0000 0.81523  0.02107  0.61977  Biso   1.000  H
  C462     1.0000 0.81093  0.08947  0.60137  Biso   1.000  C
  C463     1.0000 0.75553  0.14587  0.57477  Biso   1.000  C
  C464     1.0000 0.72953  0.17567  0.56223  Biso   1.000  C
  H90      1.0000 0.68723  0.15367  0.55867  Biso   1.000  H
  C465     1.0000 0.76233  0.05347  0.58107  Biso   1.000  C
  C466     1.0000 0.74013  0.05907  0.60057  Biso   1.000  C
  C467     1.0000 0.72933  0.07667  0.57617  Biso   1.000  C
  C468     1.0000 0.71783  0.08437  0.58567  Biso   1.000  C
  O97      1.0000 0.56290  0.21950  0.97389  Biso   1.000  O
  O98      1.0000 0.34530  0.77940  0.86930  Biso   1.000  O
  C469     1.0000 0.80940  0.11380  0.05000  Biso   1.000  C
  C470     1.0000 0.78360  0.15140  0.12940  Biso   1.000  C
  C471     1.0000 0.50560  0.11070  0.94760  Biso   1.000  C
  H91      1.0000 0.48190  0.12750  0.95310  Biso   1.000  H
  C472     1.0000 0.47760  0.05480  0.93470  Biso   1.000  C
  C473     1.0000 0.42220  0.94300  0.90810  Biso   1.000  C
  C474     1.0000 0.39620  0.88720  0.89556  Biso   1.000  C
  H92      1.0000 0.35390  0.86690  0.89200  Biso   1.000  H
  C475     1.0000 0.42900  0.04220  0.91440  Biso   1.000  C
  C476     1.0000 0.40680  0.01440  0.93390  Biso   1.000  C
  C477     1.0000 0.39600  0.98600  0.90950  Biso   1.000  C
  C478     1.0000 0.38450  0.96680  0.91900  Biso   1.000  C
  O99      1.0000 0.22957  0.55283  0.30722  Biso   1.000  O
  O100     1.0000 0.01197  0.11273  0.20263  Biso   1.000  O
  C479     1.0000 0.47607  0.44713  0.38333  Biso   1.000  C
  C480     1.0000 0.45027  0.48473  0.46273  Biso   1.000  C
  C481     1.0000 0.17227  0.44403  0.28093  Biso   1.000  C
  H93      1.0000 0.14857  0.46083  0.28643  Biso   1.000  H
  C482     1.0000 0.14427  0.38813  0.26803  Biso   1.000  C
  C483     1.0000 0.08887  0.27633  0.24143  Biso   1.000  C
  C484     1.0000 0.06287  0.22053  0.22889  Biso   1.000  C
  H94      1.0000 0.02057  0.20023  0.22533  Biso   1.000  H
  C485     1.0000 0.09567  0.37553  0.24773  Biso   1.000  C
  C486     1.0000 0.07347  0.34773  0.26723  Biso   1.000  C
  C487     1.0000 0.06267  0.31933  0.24283  Biso   1.000  C
  C488     1.0000 0.05117  0.30013  0.25233  Biso   1.000  C
  O101     1.0000 0.89623  0.88617  0.64056  Biso   1.000  O
  O102     1.0000 0.67863  0.44607  0.53597  Biso   1.000  O
  C489     1.0000 0.14273  0.78047  0.71667  Biso   1.000  C
  C490     1.0000 0.11693  0.81807  0.79607  Biso   1.000  C
  C491     1.0000 0.83893  0.77737  0.61427  Biso   1.000  C
  H95      1.0000 0.81523  0.79417  0.61977  Biso   1.000  H
  C492     1.0000 0.81093  0.72147  0.60137  Biso   1.000  C
  C493     1.0000 0.75553  0.60967  0.57477  Biso   1.000  C
  C494     1.0000 0.72953  0.55387  0.56223  Biso   1.000  C
  H96      1.0000 0.68723  0.53357  0.55867  Biso   1.000  H
  C495     1.0000 0.76233  0.70887  0.58107  Biso   1.000  C
  C496     1.0000 0.74013  0.68107  0.60057  Biso   1.000  C
  C497     1.0000 0.72933  0.65267  0.57617  Biso   1.000  C
  C498     1.0000 0.71783  0.63347  0.58567  Biso   1.000  C
  O103     1.0000 0.78050  0.34340  0.97389  Biso   1.000  O
  O104     1.0000 0.22060  0.56590  0.86930  Biso   1.000  O
  C499     1.0000 0.88620  0.69560  0.05000  Biso   1.000  C
  C500     1.0000 0.84860  0.63220  0.12940  Biso   1.000  C
  C501     1.0000 0.88930  0.39490  0.94760  Biso   1.000  C
  H97      1.0000 0.87250  0.35440  0.95310  Biso   1.000  H
  C502     1.0000 0.94520  0.42280  0.93470  Biso   1.000  C
  C503     1.0000 0.05700  0.47920  0.90810  Biso   1.000  C
  C504     1.0000 0.11280  0.50900  0.89556  Biso   1.000  C
  H98      1.0000 0.13310  0.48700  0.89200  Biso   1.000  H
  C505     1.0000 0.95780  0.38680  0.91440  Biso   1.000  C
  C506     1.0000 0.98560  0.39240  0.93390  Biso   1.000  C
  C507     1.0000 0.01400  0.41000  0.90950  Biso   1.000  C
  C508     1.0000 0.03320  0.41770  0.91900  Biso   1.000  C
  O105     1.0000 0.44717  0.67673  0.30722  Biso   1.000  O
  O106     1.0000 0.88727  0.89923  0.20263  Biso   1.000  O
  C509     1.0000 0.55287  0.02893  0.38333  Biso   1.000  C
  C510     1.0000 0.51527  0.96553  0.46273  Biso   1.000  C
  C511     1.0000 0.55597  0.72823  0.28093  Biso   1.000  C
  H99      1.0000 0.53917  0.68773  0.28643  Biso   1.000  H
  C512     1.0000 0.61187  0.75613  0.26803  Biso   1.000  C
  C513     1.0000 0.72367  0.81253  0.24143  Biso   1.000  C
  C514     1.0000 0.77947  0.84233  0.22889  Biso   1.000  C
  H100     1.0000 0.79977  0.82033  0.22533  Biso   1.000  H
  C515     1.0000 0.62447  0.72013  0.24773  Biso   1.000  C
  C516     1.0000 0.65227  0.72573  0.26723  Biso   1.000  C
  C517     1.0000 0.68067  0.74333  0.24283  Biso   1.000  C
  C518     1.0000 0.69987  0.75103  0.25233  Biso   1.000  C
  O107     1.0000 0.11383  0.01007  0.64056  Biso   1.000  O
  O108     1.0000 0.55393  0.23257  0.53597  Biso   1.000  O
  C519     1.0000 0.21953  0.36227  0.71667  Biso   1.000  C
  C520     1.0000 0.18193  0.29887  0.79607  Biso   1.000  C
  C521     1.0000 0.22263  0.06157  0.61427  Biso   1.000  C
  H101     1.0000 0.20583  0.02107  0.61977  Biso   1.000  H
  C522     1.0000 0.27853  0.08947  0.60137  Biso   1.000  C
  C523     1.0000 0.39033  0.14587  0.57477  Biso   1.000  C
  C524     1.0000 0.44613  0.17567  0.56223  Biso   1.000  C
  H102     1.0000 0.46643  0.15367  0.55867  Biso   1.000  H
  C525     1.0000 0.29113  0.05347  0.58107  Biso   1.000  C
  C526     1.0000 0.31893  0.05907  0.60057  Biso   1.000  C
  C527     1.0000 0.34733  0.07667  0.57617  Biso   1.000  C
  C528     1.0000 0.36653  0.08437  0.58567  Biso   1.000  C
  O109     1.0000 0.65660  0.43710  0.97389  Biso   1.000  O
  O110     1.0000 0.43410  0.65470  0.86930  Biso   1.000  O
  C529     1.0000 0.30440  0.19060  0.05000  Biso   1.000  C
  C530     1.0000 0.36780  0.21640  0.12940  Biso   1.000  C
  C531     1.0000 0.60510  0.49440  0.94760  Biso   1.000  C
  H103     1.0000 0.64560  0.51810  0.95310  Biso   1.000  H
  C532     1.0000 0.57720  0.52240  0.93470  Biso   1.000  C
  C533     1.0000 0.52080  0.57780  0.90810  Biso   1.000  C
  C534     1.0000 0.49100  0.60380  0.89556  Biso   1.000  C
  H104     1.0000 0.51300  0.64610  0.89200  Biso   1.000  H
  C535     1.0000 0.61320  0.57100  0.91440  Biso   1.000  C
  C536     1.0000 0.60760  0.59320  0.93390  Biso   1.000  C
  C537     1.0000 0.59000  0.60400  0.90950  Biso   1.000  C
  C538     1.0000 0.58230  0.61550  0.91900  Biso   1.000  C
  O111     1.0000 0.32327  0.77043  0.30722  Biso   1.000  O
  O112     1.0000 0.10077  0.98803  0.20263  Biso   1.000  O
  C539     1.0000 0.97107  0.52393  0.38333  Biso   1.000  C
  C540     1.0000 0.03447  0.54973  0.46273  Biso   1.000  C
  C541     1.0000 0.27177  0.82773  0.28093  Biso   1.000  C
  H105     1.0000 0.31227  0.85143  0.28643  Biso   1.000  H
  C542     1.0000 0.24387  0.85573  0.26803  Biso   1.000  C
  C543     1.0000 0.18747  0.91113  0.24143  Biso   1.000  C
  C544     1.0000 0.15767  0.93713  0.22889  Biso   1.000  C
  H106     1.0000 0.17967  0.97943  0.22533  Biso   1.000  H
  C545     1.0000 0.27987  0.90433  0.24773  Biso   1.000  C
  C546     1.0000 0.27427  0.92653  0.26723  Biso   1.000  C
  C547     1.0000 0.25667  0.93733  0.24283  Biso   1.000  C
  C548     1.0000 0.24897  0.94883  0.25233  Biso   1.000  C
  O113     1.0000 0.98993  0.10377  0.64056  Biso   1.000  O
  O114     1.0000 0.76743  0.32137  0.53597  Biso   1.000  O
  C549     1.0000 0.63773  0.85727  0.71667  Biso   1.000  C
  C550     1.0000 0.70113  0.88307  0.79607  Biso   1.000  C
  C551     1.0000 0.93843  0.16107  0.61427  Biso   1.000  C
  H107     1.0000 0.97893  0.18477  0.61977  Biso   1.000  H
  C552     1.0000 0.91053  0.18907  0.60137  Biso   1.000  C
  C553     1.0000 0.85413  0.24447  0.57477  Biso   1.000  C
  C554     1.0000 0.82433  0.27047  0.56223  Biso   1.000  C
  H108     1.0000 0.84633  0.31277  0.55867  Biso   1.000  H
  C555     1.0000 0.94653  0.23767  0.58107  Biso   1.000  C
  C556     1.0000 0.94093  0.25987  0.60057  Biso   1.000  C
  C557     1.0000 0.92333  0.27067  0.57617  Biso   1.000  C
  C558     1.0000 0.91563  0.28217  0.58567  Biso   1.000  C
  Zn25     1.0000 0.66667  0.33333  0.03830  Biso   1.000  Zn
  O115     1.0000 0.66667  0.33333  0.00441  Biso   1.000  O
  Zn26     1.0000 0.33333  0.66667  0.37163  Biso   1.000  Zn
  O116     1.0000 0.33333  0.66667  0.33774  Biso   1.000  O
  Zn27     1.0000 0.00000  0.00000  0.70497  Biso   1.000  Zn
  O117     1.0000 0.00000  0.00000  0.67108  Biso   1.000  O
  Zn28     1.0000 0.70960  0.41919  0.99283  Biso   1.000  Zn
  Zn29     1.0000 0.37626  0.75252  0.32616  Biso   1.000  Zn
  Zn30     1.0000 0.04293  0.08586  0.65949  Biso   1.000  Zn
  Zn31     1.0000 0.70960  0.29040  0.99283  Biso   1.000  Zn
  Zn32     1.0000 0.37626  0.62374  0.32616  Biso   1.000  Zn
  Zn33     1.0000 0.04293  0.95707  0.65949  Biso   1.000  Zn
  Zn34     1.0000 0.58081  0.29040  0.99283  Biso   1.000  Zn
  Zn35     1.0000 0.24748  0.62374  0.32616  Biso   1.000  Zn
  Zn36     1.0000 0.91414  0.95707  0.65949  Biso   1.000  Zn
  Zn37     1.0000 0.95844  0.04156  0.18260  Biso   1.000  Zn
  O118     1.0000 0.70821  0.29179  0.05206  Biso   1.000  O
  O119     1.0000 0.73734  0.26266  0.01953  Biso   1.000  O
  O120     1.0000 0.92476  0.07524  0.16021  Biso   1.000  O
  O121     1.0000 0.95390  0.04610  0.12900  Biso   1.000  O
  C559     1.0000 0.76136  0.23864  0.07999  Biso   1.000  C
  H109     1.0000 0.74210  0.25790  0.08740  Biso   1.000  H
  C560     1.0000 0.76250  0.23750  0.05700  Biso   1.000  C
  C561     1.0000 0.79070  0.20930  0.04620  Biso   1.000  C
  H110     1.0000 0.79150  0.20850  0.02990  Biso   1.000  H
  C562     1.0000 0.87220  0.12780  0.06040  Biso   1.000  C
  C563     1.0000 0.90090  0.09910  0.10000  Biso   1.000  C
  H111     1.0000 0.92000  0.08000  0.09240  Biso   1.000  H
  C564     1.0000 0.89920  0.10080  0.12420  Biso   1.000  C
  C565     1.0000 0.87240  0.12760  0.13373  Biso   1.000  C
  H112     1.0000 0.87070  0.12930  0.15000  Biso   1.000  H
  C566     1.0000 0.78730  0.21270  0.12014  Biso   1.000  C
  C567     1.0000 0.78815  0.21185  0.09383  Biso   1.000  C
  C568     1.0000 0.81670  0.18330  0.08314  Biso   1.000  C
  C569     1.0000 0.81890  0.18110  0.05910  Biso   1.000  C
  C570     1.0000 0.87270  0.12730  0.08700  Biso   1.000  C
  C571     1.0000 0.84530  0.15470  0.09770  Biso   1.000  C
  C572     1.0000 0.84520  0.15480  0.11991  Biso   1.000  C
  C573     1.0000 0.73410  0.26590  0.04170  Biso   1.000  C
  C574     1.0000 0.92950  0.07050  0.13870  Biso   1.000  C
  Zn38     1.0000 0.62511  0.37489  0.51593  Biso   1.000  Zn
  O122     1.0000 0.37488  0.62512  0.38539  Biso   1.000  O
  O123     1.0000 0.40401  0.59599  0.35286  Biso   1.000  O
  O124     1.0000 0.59143  0.40857  0.49354  Biso   1.000  O
  O125     1.0000 0.62057  0.37943  0.46233  Biso   1.000  O
  C575     1.0000 0.42803  0.57197  0.41332  Biso   1.000  C
  H113     1.0000 0.40877  0.59123  0.42073  Biso   1.000  H
  C576     1.0000 0.42917  0.57083  0.39033  Biso   1.000  C
  C577     1.0000 0.45737  0.54263  0.37953  Biso   1.000  C
  H114     1.0000 0.45817  0.54183  0.36323  Biso   1.000  H
  C578     1.0000 0.53887  0.46113  0.39373  Biso   1.000  C
  C579     1.0000 0.56757  0.43243  0.43333  Biso   1.000  C
  H115     1.0000 0.58667  0.41333  0.42573  Biso   1.000  H
  C580     1.0000 0.56587  0.43413  0.45753  Biso   1.000  C
  C581     1.0000 0.53907  0.46093  0.46706  Biso   1.000  C
  H116     1.0000 0.53737  0.46263  0.48333  Biso   1.000  H
  C582     1.0000 0.45397  0.54603  0.45347  Biso   1.000  C
  C583     1.0000 0.45482  0.54518  0.42716  Biso   1.000  C
  C584     1.0000 0.48337  0.51663  0.41647  Biso   1.000  C
  C585     1.0000 0.48557  0.51443  0.39243  Biso   1.000  C
  C586     1.0000 0.53937  0.46063  0.42033  Biso   1.000  C
  C587     1.0000 0.51197  0.48803  0.43103  Biso   1.000  C
  C588     1.0000 0.51187  0.48813  0.45324  Biso   1.000  C
  C589     1.0000 0.40077  0.59923  0.37503  Biso   1.000  C
  C590     1.0000 0.59617  0.40383  0.47203  Biso   1.000  C
  Zn39     1.0000 0.29177  0.70823  0.84927  Biso   1.000  Zn
  O126     1.0000 0.04154  0.95846  0.71873  Biso   1.000  O
  O127     1.0000 0.07068  0.92932  0.68620  Biso   1.000  O
  O128     1.0000 0.25809  0.74191  0.82688  Biso   1.000  O
  O129     1.0000 0.28723  0.71277  0.79567  Biso   1.000  O
  C591     1.0000 0.09469  0.90531  0.74666  Biso   1.000  C
  H117     1.0000 0.07543  0.92457  0.75407  Biso   1.000  H
  C592     1.0000 0.09583  0.90417  0.72367  Biso   1.000  C
  C593     1.0000 0.12403  0.87597  0.71287  Biso   1.000  C
  H118     1.0000 0.12483  0.87517  0.69657  Biso   1.000  H
  C594     1.0000 0.20553  0.79447  0.72707  Biso   1.000  C
  C595     1.0000 0.23423  0.76577  0.76667  Biso   1.000  C
  H119     1.0000 0.25333  0.74667  0.75907  Biso   1.000  H
  C596     1.0000 0.23253  0.76747  0.79087  Biso   1.000  C
  C597     1.0000 0.20573  0.79427  0.80040  Biso   1.000  C
  H120     1.0000 0.20403  0.79597  0.81667  Biso   1.000  H
  C598     1.0000 0.12063  0.87937  0.78681  Biso   1.000  C
  C599     1.0000 0.12148  0.87852  0.76050  Biso   1.000  C
  C600     1.0000 0.15003  0.84997  0.74981  Biso   1.000  C
  C601     1.0000 0.15223  0.84777  0.72577  Biso   1.000  C
  C602     1.0000 0.20603  0.79397  0.75367  Biso   1.000  C
  C603     1.0000 0.17863  0.82137  0.76437  Biso   1.000  C
  C604     1.0000 0.17853  0.82147  0.78658  Biso   1.000  C
  C605     1.0000 0.06743  0.93257  0.70837  Biso   1.000  C
  C606     1.0000 0.26283  0.73717  0.80537  Biso   1.000  C
  Zn40     1.0000 0.08312  0.04156  0.18260  Biso   1.000  Zn
  O130     1.0000 0.58358  0.29179  0.05206  Biso   1.000  O
  O131     1.0000 0.52531  0.26266  0.01953  Biso   1.000  O
  O132     1.0000 0.15048  0.07524  0.16021  Biso   1.000  O
  O133     1.0000 0.09220  0.04610  0.12900  Biso   1.000  O
  C607     1.0000 0.47728  0.23864  0.07999  Biso   1.000  C
  H121     1.0000 0.51580  0.25790  0.08740  Biso   1.000  H
  C608     1.0000 0.47500  0.23750  0.05700  Biso   1.000  C
  C609     1.0000 0.41860  0.20930  0.04620  Biso   1.000  C
  H122     1.0000 0.41700  0.20850  0.02990  Biso   1.000  H
  C610     1.0000 0.25560  0.12780  0.06040  Biso   1.000  C
  C611     1.0000 0.19820  0.09910  0.10000  Biso   1.000  C
  H123     1.0000 0.16000  0.08000  0.09240  Biso   1.000  H
  C612     1.0000 0.20160  0.10080  0.12420  Biso   1.000  C
  C613     1.0000 0.25520  0.12760  0.13373  Biso   1.000  C
  H124     1.0000 0.25860  0.12930  0.15000  Biso   1.000  H
  C614     1.0000 0.42540  0.21270  0.12014  Biso   1.000  C
  C615     1.0000 0.42370  0.21185  0.09383  Biso   1.000  C
  C616     1.0000 0.36660  0.18330  0.08314  Biso   1.000  C
  C617     1.0000 0.36220  0.18110  0.05910  Biso   1.000  C
  C618     1.0000 0.25460  0.12730  0.08700  Biso   1.000  C
  C619     1.0000 0.30940  0.15470  0.09770  Biso   1.000  C
  C620     1.0000 0.30960  0.15480  0.11991  Biso   1.000  C
  C621     1.0000 0.53180  0.26590  0.04170  Biso   1.000  C
  C622     1.0000 0.14100  0.07050  0.13870  Biso   1.000  C
  Zn41     1.0000 0.74979  0.37489  0.51593  Biso   1.000  Zn
  O134     1.0000 0.25025  0.62512  0.38539  Biso   1.000  O
  O135     1.0000 0.19198  0.59599  0.35286  Biso   1.000  O
  O136     1.0000 0.81715  0.40857  0.49354  Biso   1.000  O
  O137     1.0000 0.75887  0.37943  0.46233  Biso   1.000  O
  C623     1.0000 0.14395  0.57197  0.41332  Biso   1.000  C
  H125     1.0000 0.18247  0.59123  0.42073  Biso   1.000  H
  C624     1.0000 0.14167  0.57083  0.39033  Biso   1.000  C
  C625     1.0000 0.08527  0.54263  0.37953  Biso   1.000  C
  H126     1.0000 0.08367  0.54183  0.36323  Biso   1.000  H
  C626     1.0000 0.92227  0.46113  0.39373  Biso   1.000  C
  C627     1.0000 0.86487  0.43243  0.43333  Biso   1.000  C
  H127     1.0000 0.82667  0.41333  0.42573  Biso   1.000  H
  C628     1.0000 0.86827  0.43413  0.45753  Biso   1.000  C
  C629     1.0000 0.92187  0.46093  0.46706  Biso   1.000  C
  H128     1.0000 0.92527  0.46263  0.48333  Biso   1.000  H
  C630     1.0000 0.09207  0.54603  0.45347  Biso   1.000  C
  C631     1.0000 0.09037  0.54518  0.42716  Biso   1.000  C
  C632     1.0000 0.03327  0.51663  0.41647  Biso   1.000  C
  C633     1.0000 0.02887  0.51443  0.39243  Biso   1.000  C
  C634     1.0000 0.92127  0.46063  0.42033  Biso   1.000  C
  C635     1.0000 0.97607  0.48803  0.43103  Biso   1.000  C
  C636     1.0000 0.97627  0.48813  0.45324  Biso   1.000  C
  C637     1.0000 0.19847  0.59923  0.37503  Biso   1.000  C
  C638     1.0000 0.80767  0.40383  0.47203  Biso   1.000  C
  Zn42     1.0000 0.41645  0.70823  0.84927  Biso   1.000  Zn
  O138     1.0000 0.91691  0.95846  0.71873  Biso   1.000  O
  O139     1.0000 0.85864  0.92932  0.68620  Biso   1.000  O
  O140     1.0000 0.48381  0.74191  0.82688  Biso   1.000  O
  O141     1.0000 0.42553  0.71277  0.79567  Biso   1.000  O
  C639     1.0000 0.81061  0.90531  0.74666  Biso   1.000  C
  H129     1.0000 0.84913  0.92457  0.75407  Biso   1.000  H
  C640     1.0000 0.80833  0.90417  0.72367  Biso   1.000  C
  C641     1.0000 0.75193  0.87597  0.71287  Biso   1.000  C
  H130     1.0000 0.75033  0.87517  0.69657  Biso   1.000  H
  C642     1.0000 0.58893  0.79447  0.72707  Biso   1.000  C
  C643     1.0000 0.53153  0.76577  0.76667  Biso   1.000  C
  H131     1.0000 0.49333  0.74667  0.75907  Biso   1.000  H
  C644     1.0000 0.53493  0.76747  0.79087  Biso   1.000  C
  C645     1.0000 0.58853  0.79427  0.80040  Biso   1.000  C
  H132     1.0000 0.59193  0.79597  0.81667  Biso   1.000  H
  C646     1.0000 0.75873  0.87937  0.78681  Biso   1.000  C
  C647     1.0000 0.75703  0.87852  0.76050  Biso   1.000  C
  C648     1.0000 0.69993  0.84997  0.74981  Biso   1.000  C
  C649     1.0000 0.69553  0.84777  0.72577  Biso   1.000  C
  C650     1.0000 0.58793  0.79397  0.75367  Biso   1.000  C
  C651     1.0000 0.64273  0.82137  0.76437  Biso   1.000  C
  C652     1.0000 0.64293  0.82147  0.78658  Biso   1.000  C
  C653     1.0000 0.86513  0.93257  0.70837  Biso   1.000  C
  C654     1.0000 0.47433  0.73717  0.80537  Biso   1.000  C
  Zn43     1.0000 0.95844  0.91688  0.18260  Biso   1.000  Zn
  O142     1.0000 0.70821  0.41642  0.05206  Biso   1.000  O
  O143     1.0000 0.73734  0.47469  0.01953  Biso   1.000  O
  O144     1.0000 0.92476  0.84952  0.16021  Biso   1.000  O
  O145     1.0000 0.95390  0.90780  0.12900  Biso   1.000  O
  C655     1.0000 0.76136  0.52272  0.07999  Biso   1.000  C
  H133     1.0000 0.74210  0.48420  0.08740  Biso   1.000  H
  C656     1.0000 0.76250  0.52500  0.05700  Biso   1.000  C
  C657     1.0000 0.79070  0.58140  0.04620  Biso   1.000  C
  H134     1.0000 0.79150  0.58300  0.02990  Biso   1.000  H
  C658     1.0000 0.87220  0.74440  0.06040  Biso   1.000  C
  C659     1.0000 0.90090  0.80180  0.10000  Biso   1.000  C
  H135     1.0000 0.92000  0.84000  0.09240  Biso   1.000  H
  C660     1.0000 0.89920  0.79840  0.12420  Biso   1.000  C
  C661     1.0000 0.87240  0.74480  0.13373  Biso   1.000  C
  H136     1.0000 0.87070  0.74140  0.15000  Biso   1.000  H
  C662     1.0000 0.78730  0.57460  0.12014  Biso   1.000  C
  C663     1.0000 0.78815  0.57630  0.09383  Biso   1.000  C
  C664     1.0000 0.81670  0.63340  0.08314  Biso   1.000  C
  C665     1.0000 0.81890  0.63780  0.05910  Biso   1.000  C
  C666     1.0000 0.87270  0.74540  0.08700  Biso   1.000  C
  C667     1.0000 0.84530  0.69060  0.09770  Biso   1.000  C
  C668     1.0000 0.84520  0.69040  0.11991  Biso   1.000  C
  C669     1.0000 0.73410  0.46820  0.04170  Biso   1.000  C
  C670     1.0000 0.92950  0.85900  0.13870  Biso   1.000  C
  Zn44     1.0000 0.62511  0.25021  0.51593  Biso   1.000  Zn
  O146     1.0000 0.37488  0.74975  0.38539  Biso   1.000  O
  O147     1.0000 0.40401  0.80802  0.35286  Biso   1.000  O
  O148     1.0000 0.59143  0.18285  0.49354  Biso   1.000  O
  O149     1.0000 0.62057  0.24113  0.46233  Biso   1.000  O
  C671     1.0000 0.42803  0.85605  0.41332  Biso   1.000  C
  H137     1.0000 0.40877  0.81753  0.42073  Biso   1.000  H
  C672     1.0000 0.42917  0.85833  0.39033  Biso   1.000  C
  C673     1.0000 0.45737  0.91473  0.37953  Biso   1.000  C
  H138     1.0000 0.45817  0.91633  0.36323  Biso   1.000  H
  C674     1.0000 0.53887  0.07773  0.39373  Biso   1.000  C
  C675     1.0000 0.56757  0.13513  0.43333  Biso   1.000  C
  H139     1.0000 0.58667  0.17333  0.42573  Biso   1.000  H
  C676     1.0000 0.56587  0.13173  0.45753  Biso   1.000  C
  C677     1.0000 0.53907  0.07813  0.46706  Biso   1.000  C
  H140     1.0000 0.53737  0.07473  0.48333  Biso   1.000  H
  C678     1.0000 0.45397  0.90793  0.45347  Biso   1.000  C
  C679     1.0000 0.45482  0.90963  0.42716  Biso   1.000  C
  C680     1.0000 0.48337  0.96673  0.41647  Biso   1.000  C
  C681     1.0000 0.48557  0.97113  0.39243  Biso   1.000  C
  C682     1.0000 0.53937  0.07873  0.42033  Biso   1.000  C
  C683     1.0000 0.51197  0.02393  0.43103  Biso   1.000  C
  C684     1.0000 0.51187  0.02373  0.45324  Biso   1.000  C
  C685     1.0000 0.40077  0.80153  0.37503  Biso   1.000  C
  C686     1.0000 0.59617  0.19233  0.47203  Biso   1.000  C
  Zn45     1.0000 0.29177  0.58355  0.84927  Biso   1.000  Zn
  O150     1.0000 0.04154  0.08309  0.71873  Biso   1.000  O
  O151     1.0000 0.07068  0.14136  0.68620  Biso   1.000  O
  O152     1.0000 0.25809  0.51619  0.82688  Biso   1.000  O
  O153     1.0000 0.28723  0.57447  0.79567  Biso   1.000  O
  C687     1.0000 0.09469  0.18939  0.74666  Biso   1.000  C
  H141     1.0000 0.07543  0.15087  0.75407  Biso   1.000  H
  C688     1.0000 0.09583  0.19167  0.72367  Biso   1.000  C
  C689     1.0000 0.12403  0.24807  0.71287  Biso   1.000  C
  H142     1.0000 0.12483  0.24967  0.69657  Biso   1.000  H
  C690     1.0000 0.20553  0.41107  0.72707  Biso   1.000  C
  C691     1.0000 0.23423  0.46847  0.76667  Biso   1.000  C
  H143     1.0000 0.25333  0.50667  0.75907  Biso   1.000  H
  C692     1.0000 0.23253  0.46507  0.79087  Biso   1.000  C
  C693     1.0000 0.20573  0.41147  0.80040  Biso   1.000  C
  H144     1.0000 0.20403  0.40807  0.81667  Biso   1.000  H
  C694     1.0000 0.12063  0.24127  0.78681  Biso   1.000  C
  C695     1.0000 0.12148  0.24297  0.76050  Biso   1.000  C
  C696     1.0000 0.15003  0.30007  0.74981  Biso   1.000  C
  C697     1.0000 0.15223  0.30447  0.72577  Biso   1.000  C
  C698     1.0000 0.20603  0.41207  0.75367  Biso   1.000  C
  C699     1.0000 0.17863  0.35727  0.76437  Biso   1.000  C
  C700     1.0000 0.17853  0.35707  0.78658  Biso   1.000  C
  C701     1.0000 0.06743  0.13487  0.70837  Biso   1.000  C
  C702     1.0000 0.26283  0.52567  0.80537  Biso   1.000  C
  Zn46     1.0000 0.00000  0.00000  0.13463  Biso   1.000  Zn
  O154     1.0000 0.00000  0.00000  0.17048  Biso   1.000  O
  Zn47     1.0000 0.66667  0.33333  0.46796  Biso   1.000  Zn
  O155     1.0000 0.66667  0.33333  0.50381  Biso   1.000  O
  Zn48     1.0000 0.33333  0.66667  0.80130  Biso   1.000  Zn
  O156     1.0000 0.33333  0.66667  0.83715  Biso   1.000  O
  C703     1.0000 0.85870  0.42935  0.95190  Biso   1.000  C
  C704     1.0000 0.96950  0.48475  0.92740  Biso   1.000  C
  C705     1.0000 0.02790  0.51395  0.91330  Biso   1.000  C
  C706     1.0000 0.13820  0.56910  0.88850  Biso   1.000  C
  C707     1.0000 0.80120  0.40060  0.96760  Biso   1.000  C
  C708     1.0000 0.19770  0.59885  0.87384  Biso   1.000  C
  C709     1.0000 0.52537  0.76268  0.28523  Biso   1.000  C
  C710     1.0000 0.63617  0.81808  0.26073  Biso   1.000  C
  C711     1.0000 0.69457  0.84728  0.24663  Biso   1.000  C
  C712     1.0000 0.80487  0.90243  0.22183  Biso   1.000  C
  C713     1.0000 0.46787  0.73393  0.30093  Biso   1.000  C
  C714     1.0000 0.86437  0.93218  0.20717  Biso   1.000  C
  C715     1.0000 0.19203  0.09602  0.61857  Biso   1.000  C
  C716     1.0000 0.30283  0.15142  0.59407  Biso   1.000  C
  C717     1.0000 0.36123  0.18062  0.57997  Biso   1.000  C
  C718     1.0000 0.47153  0.23577  0.55517  Biso   1.000  C
  C719     1.0000 0.13453  0.06727  0.63427  Biso   1.000  C
  C720     1.0000 0.53103  0.26552  0.54051  Biso   1.000  C
  C721     1.0000 0.57065  0.14130  0.95190  Biso   1.000  C
  C722     1.0000 0.51525  0.03050  0.92740  Biso   1.000  C
  C723     1.0000 0.48605  0.97210  0.91330  Biso   1.000  C
  C724     1.0000 0.43090  0.86180  0.88850  Biso   1.000  C
  C725     1.0000 0.59940  0.19880  0.96760  Biso   1.000  C
  C726     1.0000 0.40115  0.80230  0.87384  Biso   1.000  C
  C727     1.0000 0.23732  0.47463  0.28523  Biso   1.000  C
  C728     1.0000 0.18192  0.36383  0.26073  Biso   1.000  C
  C729     1.0000 0.15272  0.30543  0.24663  Biso   1.000  C
  C730     1.0000 0.09757  0.19513  0.22183  Biso   1.000  C
  C731     1.0000 0.26607  0.53213  0.30093  Biso   1.000  C
  C732     1.0000 0.06782  0.13563  0.20717  Biso   1.000  C
  C733     1.0000 0.90398  0.80797  0.61857  Biso   1.000  C
  C734     1.0000 0.84858  0.69717  0.59407  Biso   1.000  C
  C735     1.0000 0.81938  0.63877  0.57997  Biso   1.000  C
  C736     1.0000 0.76423  0.52847  0.55517  Biso   1.000  C
  C737     1.0000 0.93273  0.86547  0.63427  Biso   1.000  C
  C738     1.0000 0.73448  0.46897  0.54051  Biso   1.000  C
  C739     1.0000 0.57065  0.42935  0.95190  Biso   1.000  C
  C740     1.0000 0.51525  0.48475  0.92740  Biso   1.000  C
  C741     1.0000 0.48605  0.51395  0.91330  Biso   1.000  C
  C742     1.0000 0.43090  0.56910  0.88850  Biso   1.000  C
  C743     1.0000 0.59940  0.40060  0.96760  Biso   1.000  C
  C744     1.0000 0.40115  0.59885  0.87384  Biso   1.000  C
  C745     1.0000 0.23732  0.76268  0.28523  Biso   1.000  C
  C746     1.0000 0.18192  0.81808  0.26073  Biso   1.000  C
  C747     1.0000 0.15272  0.84728  0.24663  Biso   1.000  C
  C748     1.0000 0.09757  0.90243  0.22183  Biso   1.000  C
  C749     1.0000 0.26607  0.73393  0.30093  Biso   1.000  C
  C750     1.0000 0.06782  0.93218  0.20717  Biso   1.000  C
  C751     1.0000 0.90398  0.09602  0.61857  Biso   1.000  C
  C752     1.0000 0.84858  0.15142  0.59407  Biso   1.000  C
  C753     1.0000 0.81938  0.18062  0.57997  Biso   1.000  C
  C754     1.0000 0.76423  0.23577  0.55517  Biso   1.000  C
  C755     1.0000 0.93273  0.06727  0.63427  Biso   1.000  C
  C756     1.0000 0.73448  0.26552  0.54051  Biso   1.000  C
