data_image0
_cell_length_a       34.2807
_cell_length_b       34.2807
_cell_length_c       34.2807
_cell_angle_alpha    90
_cell_angle_beta     90
_cell_angle_gamma    90

_symmetry_space_group_name_H-M    "P 1"
_symmetry_int_tables_number       1

loop_
  _symmetry_equiv_pos_as_xyz
  'x, y, z'

loop_
  _atom_site_label
  _atom_site_occupancy
  _atom_site_fract_x
  _atom_site_fract_y
  _atom_site_fract_z
  _atom_site_thermal_displace_type
  _atom_site_B_iso_or_equiv
  _atom_site_type_symbol
  C1       1.0000 0.19100  0.21200  0.01850  Biso   1.000  C
  C2       1.0000 0.19100  0.71200  0.51850  Biso   1.000  C
  C3       1.0000 0.69100  0.21200  0.51850  Biso   1.000  C
  C4       1.0000 0.69100  0.71200  0.01850  Biso   1.000  C
  C5       1.0000 0.80900  0.78800  0.01850  Biso   1.000  C
  C6       1.0000 0.80900  0.28800  0.51850  Biso   1.000  C
  C7       1.0000 0.30900  0.78800  0.51850  Biso   1.000  C
  C8       1.0000 0.30900  0.28800  0.01850  Biso   1.000  C
  C9       1.0000 0.80900  0.21200  0.98150  Biso   1.000  C
  C10      1.0000 0.80900  0.71200  0.48150  Biso   1.000  C
  C11      1.0000 0.30900  0.21200  0.48150  Biso   1.000  C
  C12      1.0000 0.30900  0.71200  0.98150  Biso   1.000  C
  C13      1.0000 0.19100  0.78800  0.98150  Biso   1.000  C
  C14      1.0000 0.19100  0.28800  0.48150  Biso   1.000  C
  C15      1.0000 0.69100  0.78800  0.48150  Biso   1.000  C
  C16      1.0000 0.69100  0.28800  0.98150  Biso   1.000  C
  C17      1.0000 0.01850  0.19100  0.21200  Biso   1.000  C
  C18      1.0000 0.01850  0.69100  0.71200  Biso   1.000  C
  C19      1.0000 0.51850  0.19100  0.71200  Biso   1.000  C
  C20      1.0000 0.51850  0.69100  0.21200  Biso   1.000  C
  C21      1.0000 0.01850  0.80900  0.78800  Biso   1.000  C
  C22      1.0000 0.01850  0.30900  0.28800  Biso   1.000  C
  C23      1.0000 0.51850  0.80900  0.28800  Biso   1.000  C
  C24      1.0000 0.51850  0.30900  0.78800  Biso   1.000  C
  C25      1.0000 0.98150  0.80900  0.21200  Biso   1.000  C
  C26      1.0000 0.98150  0.30900  0.71200  Biso   1.000  C
  C27      1.0000 0.48150  0.80900  0.71200  Biso   1.000  C
  C28      1.0000 0.48150  0.30900  0.21200  Biso   1.000  C
  C29      1.0000 0.98150  0.19100  0.78800  Biso   1.000  C
  C30      1.0000 0.98150  0.69100  0.28800  Biso   1.000  C
  C31      1.0000 0.48150  0.19100  0.28800  Biso   1.000  C
  C32      1.0000 0.48150  0.69100  0.78800  Biso   1.000  C
  C33      1.0000 0.21200  0.01850  0.19100  Biso   1.000  C
  C34      1.0000 0.21200  0.51850  0.69100  Biso   1.000  C
  C35      1.0000 0.71200  0.01850  0.69100  Biso   1.000  C
  C36      1.0000 0.71200  0.51850  0.19100  Biso   1.000  C
  C37      1.0000 0.78800  0.01850  0.80900  Biso   1.000  C
  C38      1.0000 0.78800  0.51850  0.30900  Biso   1.000  C
  C39      1.0000 0.28800  0.01850  0.30900  Biso   1.000  C
  C40      1.0000 0.28800  0.51850  0.80900  Biso   1.000  C
  C41      1.0000 0.21200  0.98150  0.80900  Biso   1.000  C
  C42      1.0000 0.21200  0.48150  0.30900  Biso   1.000  C
  C43      1.0000 0.71200  0.98150  0.30900  Biso   1.000  C
  C44      1.0000 0.71200  0.48150  0.80900  Biso   1.000  C
  C45      1.0000 0.78800  0.98150  0.19100  Biso   1.000  C
  C46      1.0000 0.78800  0.48150  0.69100  Biso   1.000  C
  C47      1.0000 0.28800  0.98150  0.69100  Biso   1.000  C
  C48      1.0000 0.28800  0.48150  0.19100  Biso   1.000  C
  C49      1.0000 0.21200  0.19100  0.98150  Biso   1.000  C
  C50      1.0000 0.21200  0.69100  0.48150  Biso   1.000  C
  C51      1.0000 0.71200  0.19100  0.48150  Biso   1.000  C
  C52      1.0000 0.71200  0.69100  0.98150  Biso   1.000  C
  C53      1.0000 0.78800  0.80900  0.98150  Biso   1.000  C
  C54      1.0000 0.78800  0.30900  0.48150  Biso   1.000  C
  C55      1.0000 0.28800  0.80900  0.48150  Biso   1.000  C
  C56      1.0000 0.28800  0.30900  0.98150  Biso   1.000  C
  C57      1.0000 0.21200  0.80900  0.01850  Biso   1.000  C
  C58      1.0000 0.21200  0.30900  0.51850  Biso   1.000  C
  C59      1.0000 0.71200  0.80900  0.51850  Biso   1.000  C
  C60      1.0000 0.71200  0.30900  0.01850  Biso   1.000  C
  C61      1.0000 0.78800  0.19100  0.01850  Biso   1.000  C
  C62      1.0000 0.78800  0.69100  0.51850  Biso   1.000  C
  C63      1.0000 0.28800  0.19100  0.51850  Biso   1.000  C
  C64      1.0000 0.28800  0.69100  0.01850  Biso   1.000  C
  C65      1.0000 0.19100  0.01850  0.78800  Biso   1.000  C
  C66      1.0000 0.19100  0.51850  0.28800  Biso   1.000  C
  C67      1.0000 0.69100  0.01850  0.28800  Biso   1.000  C
  C68      1.0000 0.69100  0.51850  0.78800  Biso   1.000  C
  C69      1.0000 0.80900  0.01850  0.21200  Biso   1.000  C
  C70      1.0000 0.80900  0.51850  0.71200  Biso   1.000  C
  C71      1.0000 0.30900  0.01850  0.71200  Biso   1.000  C
  C72      1.0000 0.30900  0.51850  0.21200  Biso   1.000  C
  C73      1.0000 0.80900  0.98150  0.78800  Biso   1.000  C
  C74      1.0000 0.80900  0.48150  0.28800  Biso   1.000  C
  C75      1.0000 0.30900  0.98150  0.28800  Biso   1.000  C
  C76      1.0000 0.30900  0.48150  0.78800  Biso   1.000  C
  C77      1.0000 0.19100  0.98150  0.21200  Biso   1.000  C
  C78      1.0000 0.19100  0.48150  0.71200  Biso   1.000  C
  C79      1.0000 0.69100  0.98150  0.71200  Biso   1.000  C
  C80      1.0000 0.69100  0.48150  0.21200  Biso   1.000  C
  C81      1.0000 0.01850  0.21200  0.80900  Biso   1.000  C
  C82      1.0000 0.01850  0.71200  0.30900  Biso   1.000  C
  C83      1.0000 0.51850  0.21200  0.30900  Biso   1.000  C
  C84      1.0000 0.51850  0.71200  0.80900  Biso   1.000  C
  C85      1.0000 0.01850  0.78800  0.19100  Biso   1.000  C
  C86      1.0000 0.01850  0.28800  0.69100  Biso   1.000  C
  C87      1.0000 0.51850  0.78800  0.69100  Biso   1.000  C
  C88      1.0000 0.51850  0.28800  0.19100  Biso   1.000  C
  C89      1.0000 0.98150  0.21200  0.19100  Biso   1.000  C
  C90      1.0000 0.98150  0.71200  0.69100  Biso   1.000  C
  C91      1.0000 0.48150  0.21200  0.69100  Biso   1.000  C
  C92      1.0000 0.48150  0.71200  0.19100  Biso   1.000  C
  C93      1.0000 0.98150  0.78800  0.80900  Biso   1.000  C
  C94      1.0000 0.98150  0.28800  0.30900  Biso   1.000  C
  C95      1.0000 0.48150  0.78800  0.30900  Biso   1.000  C
  C96      1.0000 0.48150  0.28800  0.80900  Biso   1.000  C
  C97      1.0000 0.80900  0.78800  0.98150  Biso   1.000  C
  C98      1.0000 0.80900  0.28800  0.48150  Biso   1.000  C
  C99      1.0000 0.30900  0.78800  0.48150  Biso   1.000  C
  C100     1.0000 0.30900  0.28800  0.98150  Biso   1.000  C
  C101     1.0000 0.19100  0.21200  0.98150  Biso   1.000  C
  C102     1.0000 0.19100  0.71200  0.48150  Biso   1.000  C
  C103     1.0000 0.69100  0.21200  0.48150  Biso   1.000  C
  C104     1.0000 0.69100  0.71200  0.98150  Biso   1.000  C
  C105     1.0000 0.19100  0.78800  0.01850  Biso   1.000  C
  C106     1.0000 0.19100  0.28800  0.51850  Biso   1.000  C
  C107     1.0000 0.69100  0.78800  0.51850  Biso   1.000  C
  C108     1.0000 0.69100  0.28800  0.01850  Biso   1.000  C
  C109     1.0000 0.80900  0.21200  0.01850  Biso   1.000  C
  C110     1.0000 0.80900  0.71200  0.51850  Biso   1.000  C
  C111     1.0000 0.30900  0.21200  0.51850  Biso   1.000  C
  C112     1.0000 0.30900  0.71200  0.01850  Biso   1.000  C
  C113     1.0000 0.98150  0.80900  0.78800  Biso   1.000  C
  C114     1.0000 0.98150  0.30900  0.28800  Biso   1.000  C
  C115     1.0000 0.48150  0.80900  0.28800  Biso   1.000  C
  C116     1.0000 0.48150  0.30900  0.78800  Biso   1.000  C
  C117     1.0000 0.98150  0.19100  0.21200  Biso   1.000  C
  C118     1.0000 0.98150  0.69100  0.71200  Biso   1.000  C
  C119     1.0000 0.48150  0.19100  0.71200  Biso   1.000  C
  C120     1.0000 0.48150  0.69100  0.21200  Biso   1.000  C
  C121     1.0000 0.01850  0.19100  0.78800  Biso   1.000  C
  C122     1.0000 0.01850  0.69100  0.28800  Biso   1.000  C
  C123     1.0000 0.51850  0.19100  0.28800  Biso   1.000  C
  C124     1.0000 0.51850  0.69100  0.78800  Biso   1.000  C
  C125     1.0000 0.01850  0.80900  0.21200  Biso   1.000  C
  C126     1.0000 0.01850  0.30900  0.71200  Biso   1.000  C
  C127     1.0000 0.51850  0.80900  0.71200  Biso   1.000  C
  C128     1.0000 0.51850  0.30900  0.21200  Biso   1.000  C
  C129     1.0000 0.78800  0.98150  0.80900  Biso   1.000  C
  C130     1.0000 0.78800  0.48150  0.30900  Biso   1.000  C
  C131     1.0000 0.28800  0.98150  0.30900  Biso   1.000  C
  C132     1.0000 0.28800  0.48150  0.80900  Biso   1.000  C
  C133     1.0000 0.21200  0.98150  0.19100  Biso   1.000  C
  C134     1.0000 0.21200  0.48150  0.69100  Biso   1.000  C
  C135     1.0000 0.71200  0.98150  0.69100  Biso   1.000  C
  C136     1.0000 0.71200  0.48150  0.19100  Biso   1.000  C
  C137     1.0000 0.78800  0.01850  0.19100  Biso   1.000  C
  C138     1.0000 0.78800  0.51850  0.69100  Biso   1.000  C
  C139     1.0000 0.28800  0.01850  0.69100  Biso   1.000  C
  C140     1.0000 0.28800  0.51850  0.19100  Biso   1.000  C
  C141     1.0000 0.21200  0.01850  0.80900  Biso   1.000  C
  C142     1.0000 0.21200  0.51850  0.30900  Biso   1.000  C
  C143     1.0000 0.71200  0.01850  0.30900  Biso   1.000  C
  C144     1.0000 0.71200  0.51850  0.80900  Biso   1.000  C
  C145     1.0000 0.78800  0.80900  0.01850  Biso   1.000  C
  C146     1.0000 0.78800  0.30900  0.51850  Biso   1.000  C
  C147     1.0000 0.28800  0.80900  0.51850  Biso   1.000  C
  C148     1.0000 0.28800  0.30900  0.01850  Biso   1.000  C
  C149     1.0000 0.21200  0.19100  0.01850  Biso   1.000  C
  C150     1.0000 0.21200  0.69100  0.51850  Biso   1.000  C
  C151     1.0000 0.71200  0.19100  0.51850  Biso   1.000  C
  C152     1.0000 0.71200  0.69100  0.01850  Biso   1.000  C
  C153     1.0000 0.78800  0.19100  0.98150  Biso   1.000  C
  C154     1.0000 0.78800  0.69100  0.48150  Biso   1.000  C
  C155     1.0000 0.28800  0.19100  0.48150  Biso   1.000  C
  C156     1.0000 0.28800  0.69100  0.98150  Biso   1.000  C
  C157     1.0000 0.21200  0.80900  0.98150  Biso   1.000  C
  C158     1.0000 0.21200  0.30900  0.48150  Biso   1.000  C
  C159     1.0000 0.71200  0.80900  0.48150  Biso   1.000  C
  C160     1.0000 0.71200  0.30900  0.98150  Biso   1.000  C
  C161     1.0000 0.80900  0.98150  0.21200  Biso   1.000  C
  C162     1.0000 0.80900  0.48150  0.71200  Biso   1.000  C
  C163     1.0000 0.30900  0.98150  0.71200  Biso   1.000  C
  C164     1.0000 0.30900  0.48150  0.21200  Biso   1.000  C
  C165     1.0000 0.19100  0.98150  0.78800  Biso   1.000  C
  C166     1.0000 0.19100  0.48150  0.28800  Biso   1.000  C
  C167     1.0000 0.69100  0.98150  0.28800  Biso   1.000  C
  C168     1.0000 0.69100  0.48150  0.78800  Biso   1.000  C
  C169     1.0000 0.19100  0.01850  0.21200  Biso   1.000  C
  C170     1.0000 0.19100  0.51850  0.71200  Biso   1.000  C
  C171     1.0000 0.69100  0.01850  0.71200  Biso   1.000  C
  C172     1.0000 0.69100  0.51850  0.21200  Biso   1.000  C
  C173     1.0000 0.80900  0.01850  0.78800  Biso   1.000  C
  C174     1.0000 0.80900  0.51850  0.28800  Biso   1.000  C
  C175     1.0000 0.30900  0.01850  0.28800  Biso   1.000  C
  C176     1.0000 0.30900  0.51850  0.78800  Biso   1.000  C
  C177     1.0000 0.98150  0.78800  0.19100  Biso   1.000  C
  C178     1.0000 0.98150  0.28800  0.69100  Biso   1.000  C
  C179     1.0000 0.48150  0.78800  0.69100  Biso   1.000  C
  C180     1.0000 0.48150  0.28800  0.19100  Biso   1.000  C
  C181     1.0000 0.98150  0.21200  0.80900  Biso   1.000  C
  C182     1.0000 0.98150  0.71200  0.30900  Biso   1.000  C
  C183     1.0000 0.48150  0.21200  0.30900  Biso   1.000  C
  C184     1.0000 0.48150  0.71200  0.80900  Biso   1.000  C
  C185     1.0000 0.01850  0.78800  0.80900  Biso   1.000  C
  C186     1.0000 0.01850  0.28800  0.30900  Biso   1.000  C
  C187     1.0000 0.51850  0.78800  0.30900  Biso   1.000  C
  C188     1.0000 0.51850  0.28800  0.80900  Biso   1.000  C
  C189     1.0000 0.01850  0.21200  0.19100  Biso   1.000  C
  C190     1.0000 0.01850  0.71200  0.69100  Biso   1.000  C
  C191     1.0000 0.51850  0.21200  0.69100  Biso   1.000  C
  C192     1.0000 0.51850  0.71200  0.19100  Biso   1.000  C
  Zn1      1.0000 0.21728  0.21728  0.21728  Biso   1.000  Zn
  Zn2      1.0000 0.21728  0.71728  0.71728  Biso   1.000  Zn
  Zn3      1.0000 0.71728  0.21728  0.71728  Biso   1.000  Zn
  Zn4      1.0000 0.71728  0.71728  0.21728  Biso   1.000  Zn
  Zn5      1.0000 0.78272  0.78272  0.21728  Biso   1.000  Zn
  Zn6      1.0000 0.78272  0.28272  0.71728  Biso   1.000  Zn
  Zn7      1.0000 0.28272  0.78272  0.71728  Biso   1.000  Zn
  Zn8      1.0000 0.28272  0.28272  0.21728  Biso   1.000  Zn
  Zn9      1.0000 0.78272  0.21728  0.78272  Biso   1.000  Zn
  Zn10     1.0000 0.78272  0.71728  0.28272  Biso   1.000  Zn
  Zn11     1.0000 0.28272  0.21728  0.28272  Biso   1.000  Zn
  Zn12     1.0000 0.28272  0.71728  0.78272  Biso   1.000  Zn
  Zn13     1.0000 0.21728  0.78272  0.78272  Biso   1.000  Zn
  Zn14     1.0000 0.21728  0.28272  0.28272  Biso   1.000  Zn
  Zn15     1.0000 0.71728  0.78272  0.28272  Biso   1.000  Zn
  Zn16     1.0000 0.71728  0.28272  0.78272  Biso   1.000  Zn
  Zn17     1.0000 0.21728  0.21728  0.78272  Biso   1.000  Zn
  Zn18     1.0000 0.21728  0.71728  0.28272  Biso   1.000  Zn
  Zn19     1.0000 0.71728  0.21728  0.28272  Biso   1.000  Zn
  Zn20     1.0000 0.71728  0.71728  0.78272  Biso   1.000  Zn
  Zn21     1.0000 0.78272  0.78272  0.78272  Biso   1.000  Zn
  Zn22     1.0000 0.78272  0.28272  0.28272  Biso   1.000  Zn
  Zn23     1.0000 0.28272  0.78272  0.28272  Biso   1.000  Zn
  Zn24     1.0000 0.28272  0.28272  0.78272  Biso   1.000  Zn
  Zn25     1.0000 0.21728  0.78272  0.21728  Biso   1.000  Zn
  Zn26     1.0000 0.21728  0.28272  0.71728  Biso   1.000  Zn
  Zn27     1.0000 0.71728  0.78272  0.71728  Biso   1.000  Zn
  Zn28     1.0000 0.71728  0.28272  0.21728  Biso   1.000  Zn
  Zn29     1.0000 0.78272  0.21728  0.21728  Biso   1.000  Zn
  Zn30     1.0000 0.78272  0.71728  0.71728  Biso   1.000  Zn
  Zn31     1.0000 0.28272  0.21728  0.71728  Biso   1.000  Zn
  Zn32     1.0000 0.28272  0.71728  0.21728  Biso   1.000  Zn
  O1       1.0000 0.25000  0.25000  0.25000  Biso   1.000  O
  O2       1.0000 0.75000  0.75000  0.25000  Biso   1.000  O
  O3       1.0000 0.75000  0.25000  0.75000  Biso   1.000  O
  O4       1.0000 0.25000  0.75000  0.75000  Biso   1.000  O
  O5       1.0000 0.25000  0.25000  0.75000  Biso   1.000  O
  O6       1.0000 0.75000  0.75000  0.75000  Biso   1.000  O
  O7       1.0000 0.75000  0.25000  0.25000  Biso   1.000  O
  O8       1.0000 0.25000  0.75000  0.25000  Biso   1.000  O
  O9       1.0000 0.22800  0.22800  0.16230  Biso   1.000  O
  C193     1.0000 0.22670  0.22670  0.07930  Biso   1.000  C
  H1       1.0000 0.20940  0.20940  0.09230  Biso   1.000  H
  C194     1.0000 0.22620  0.22620  0.03870  Biso   1.000  C
  O10      1.0000 0.22800  0.72800  0.66230  Biso   1.000  O
  C195     1.0000 0.22670  0.72670  0.57930  Biso   1.000  C
  H2       1.0000 0.20940  0.70940  0.59230  Biso   1.000  H
  C196     1.0000 0.22620  0.72620  0.53870  Biso   1.000  C
  O11      1.0000 0.72800  0.22800  0.66230  Biso   1.000  O
  C197     1.0000 0.72670  0.22670  0.57930  Biso   1.000  C
  H3       1.0000 0.70940  0.20940  0.59230  Biso   1.000  H
  C198     1.0000 0.72620  0.22620  0.53870  Biso   1.000  C
  O12      1.0000 0.72800  0.72800  0.16230  Biso   1.000  O
  C199     1.0000 0.72670  0.72670  0.07930  Biso   1.000  C
  H4       1.0000 0.70940  0.70940  0.09230  Biso   1.000  H
  C200     1.0000 0.72620  0.72620  0.03870  Biso   1.000  C
  O13      1.0000 0.77200  0.77200  0.16230  Biso   1.000  O
  C201     1.0000 0.77330  0.77330  0.07930  Biso   1.000  C
  H5       1.0000 0.79060  0.79060  0.09230  Biso   1.000  H
  C202     1.0000 0.77380  0.77380  0.03870  Biso   1.000  C
  O14      1.0000 0.77200  0.27200  0.66230  Biso   1.000  O
  C203     1.0000 0.77330  0.27330  0.57930  Biso   1.000  C
  H6       1.0000 0.79060  0.29060  0.59230  Biso   1.000  H
  C204     1.0000 0.77380  0.27380  0.53870  Biso   1.000  C
  O15      1.0000 0.27200  0.77200  0.66230  Biso   1.000  O
  C205     1.0000 0.27330  0.77330  0.57930  Biso   1.000  C
  H7       1.0000 0.29060  0.79060  0.59230  Biso   1.000  H
  C206     1.0000 0.27380  0.77380  0.53870  Biso   1.000  C
  O16      1.0000 0.27200  0.27200  0.16230  Biso   1.000  O
  C207     1.0000 0.27330  0.27330  0.07930  Biso   1.000  C
  H8       1.0000 0.29060  0.29060  0.09230  Biso   1.000  H
  C208     1.0000 0.27380  0.27380  0.03870  Biso   1.000  C
  O17      1.0000 0.77200  0.22800  0.83770  Biso   1.000  O
  C209     1.0000 0.77330  0.22670  0.92070  Biso   1.000  C
  H9       1.0000 0.79060  0.20940  0.90770  Biso   1.000  H
  C210     1.0000 0.77380  0.22620  0.96130  Biso   1.000  C
  O18      1.0000 0.77200  0.72800  0.33770  Biso   1.000  O
  C211     1.0000 0.77330  0.72670  0.42070  Biso   1.000  C
  H10      1.0000 0.79060  0.70940  0.40770  Biso   1.000  H
  C212     1.0000 0.77380  0.72620  0.46130  Biso   1.000  C
  O19      1.0000 0.27200  0.22800  0.33770  Biso   1.000  O
  C213     1.0000 0.27330  0.22670  0.42070  Biso   1.000  C
  H11      1.0000 0.29060  0.20940  0.40770  Biso   1.000  H
  C214     1.0000 0.27380  0.22620  0.46130  Biso   1.000  C
  O20      1.0000 0.27200  0.72800  0.83770  Biso   1.000  O
  C215     1.0000 0.27330  0.72670  0.92070  Biso   1.000  C
  H12      1.0000 0.29060  0.70940  0.90770  Biso   1.000  H
  C216     1.0000 0.27380  0.72620  0.96130  Biso   1.000  C
  O21      1.0000 0.22800  0.77200  0.83770  Biso   1.000  O
  C217     1.0000 0.22670  0.77330  0.92070  Biso   1.000  C
  H13      1.0000 0.20940  0.79060  0.90770  Biso   1.000  H
  C218     1.0000 0.22620  0.77380  0.96130  Biso   1.000  C
  O22      1.0000 0.22800  0.27200  0.33770  Biso   1.000  O
  C219     1.0000 0.22670  0.27330  0.42070  Biso   1.000  C
  H14      1.0000 0.20940  0.29060  0.40770  Biso   1.000  H
  C220     1.0000 0.22620  0.27380  0.46130  Biso   1.000  C
  O23      1.0000 0.72800  0.77200  0.33770  Biso   1.000  O
  C221     1.0000 0.72670  0.77330  0.42070  Biso   1.000  C
  H15      1.0000 0.70940  0.79060  0.40770  Biso   1.000  H
  C222     1.0000 0.72620  0.77380  0.46130  Biso   1.000  C
  O24      1.0000 0.72800  0.27200  0.83770  Biso   1.000  O
  C223     1.0000 0.72670  0.27330  0.92070  Biso   1.000  C
  H16      1.0000 0.70940  0.29060  0.90770  Biso   1.000  H
  C224     1.0000 0.72620  0.27380  0.96130  Biso   1.000  C
  O25      1.0000 0.16230  0.22800  0.22800  Biso   1.000  O
  C225     1.0000 0.07930  0.22670  0.22670  Biso   1.000  C
  H17      1.0000 0.09230  0.20940  0.20940  Biso   1.000  H
  C226     1.0000 0.03870  0.22620  0.22620  Biso   1.000  C
  O26      1.0000 0.16230  0.72800  0.72800  Biso   1.000  O
  C227     1.0000 0.07930  0.72670  0.72670  Biso   1.000  C
  H18      1.0000 0.09230  0.70940  0.70940  Biso   1.000  H
  C228     1.0000 0.03870  0.72620  0.72620  Biso   1.000  C
  O27      1.0000 0.66230  0.22800  0.72800  Biso   1.000  O
  C229     1.0000 0.57930  0.22670  0.72670  Biso   1.000  C
  H19      1.0000 0.59230  0.20940  0.70940  Biso   1.000  H
  C230     1.0000 0.53870  0.22620  0.72620  Biso   1.000  C
  O28      1.0000 0.66230  0.72800  0.22800  Biso   1.000  O
  C231     1.0000 0.57930  0.72670  0.22670  Biso   1.000  C
  H20      1.0000 0.59230  0.70940  0.20940  Biso   1.000  H
  C232     1.0000 0.53870  0.72620  0.22620  Biso   1.000  C
  O29      1.0000 0.16230  0.77200  0.77200  Biso   1.000  O
  C233     1.0000 0.07930  0.77330  0.77330  Biso   1.000  C
  H21      1.0000 0.09230  0.79060  0.79060  Biso   1.000  H
  C234     1.0000 0.03870  0.77380  0.77380  Biso   1.000  C
  O30      1.0000 0.16230  0.27200  0.27200  Biso   1.000  O
  C235     1.0000 0.07930  0.27330  0.27330  Biso   1.000  C
  H22      1.0000 0.09230  0.29060  0.29060  Biso   1.000  H
  C236     1.0000 0.03870  0.27380  0.27380  Biso   1.000  C
  O31      1.0000 0.66230  0.77200  0.27200  Biso   1.000  O
  C237     1.0000 0.57930  0.77330  0.27330  Biso   1.000  C
  H23      1.0000 0.59230  0.79060  0.29060  Biso   1.000  H
  C238     1.0000 0.53870  0.77380  0.27380  Biso   1.000  C
  O32      1.0000 0.66230  0.27200  0.77200  Biso   1.000  O
  C239     1.0000 0.57930  0.27330  0.77330  Biso   1.000  C
  H24      1.0000 0.59230  0.29060  0.79060  Biso   1.000  H
  C240     1.0000 0.53870  0.27380  0.77380  Biso   1.000  C
  O33      1.0000 0.83770  0.77200  0.22800  Biso   1.000  O
  C241     1.0000 0.92070  0.77330  0.22670  Biso   1.000  C
  H25      1.0000 0.90770  0.79060  0.20940  Biso   1.000  H
  C242     1.0000 0.96130  0.77380  0.22620  Biso   1.000  C
  O34      1.0000 0.83770  0.27200  0.72800  Biso   1.000  O
  C243     1.0000 0.92070  0.27330  0.72670  Biso   1.000  C
  H26      1.0000 0.90770  0.29060  0.70940  Biso   1.000  H
  C244     1.0000 0.96130  0.27380  0.72620  Biso   1.000  C
  O35      1.0000 0.33770  0.77200  0.72800  Biso   1.000  O
  C245     1.0000 0.42070  0.77330  0.72670  Biso   1.000  C
  H27      1.0000 0.40770  0.79060  0.70940  Biso   1.000  H
  C246     1.0000 0.46130  0.77380  0.72620  Biso   1.000  C
  O36      1.0000 0.33770  0.27200  0.22800  Biso   1.000  O
  C247     1.0000 0.42070  0.27330  0.22670  Biso   1.000  C
  H28      1.0000 0.40770  0.29060  0.20940  Biso   1.000  H
  C248     1.0000 0.46130  0.27380  0.22620  Biso   1.000  C
  O37      1.0000 0.83770  0.22800  0.77200  Biso   1.000  O
  C249     1.0000 0.92070  0.22670  0.77330  Biso   1.000  C
  H29      1.0000 0.90770  0.20940  0.79060  Biso   1.000  H
  C250     1.0000 0.96130  0.22620  0.77380  Biso   1.000  C
  O38      1.0000 0.83770  0.72800  0.27200  Biso   1.000  O
  C251     1.0000 0.92070  0.72670  0.27330  Biso   1.000  C
  H30      1.0000 0.90770  0.70940  0.29060  Biso   1.000  H
  C252     1.0000 0.96130  0.72620  0.27380  Biso   1.000  C
  O39      1.0000 0.33770  0.22800  0.27200  Biso   1.000  O
  C253     1.0000 0.42070  0.22670  0.27330  Biso   1.000  C
  H31      1.0000 0.40770  0.20940  0.29060  Biso   1.000  H
  C254     1.0000 0.46130  0.22620  0.27380  Biso   1.000  C
  O40      1.0000 0.33770  0.72800  0.77200  Biso   1.000  O
  C255     1.0000 0.42070  0.72670  0.77330  Biso   1.000  C
  H32      1.0000 0.40770  0.70940  0.79060  Biso   1.000  H
  C256     1.0000 0.46130  0.72620  0.77380  Biso   1.000  C
  O41      1.0000 0.22800  0.16230  0.22800  Biso   1.000  O
  C257     1.0000 0.22670  0.07930  0.22670  Biso   1.000  C
  H33      1.0000 0.20940  0.09230  0.20940  Biso   1.000  H
  C258     1.0000 0.22620  0.03870  0.22620  Biso   1.000  C
  O42      1.0000 0.22800  0.66230  0.72800  Biso   1.000  O
  C259     1.0000 0.22670  0.57930  0.72670  Biso   1.000  C
  H34      1.0000 0.20940  0.59230  0.70940  Biso   1.000  H
  C260     1.0000 0.22620  0.53870  0.72620  Biso   1.000  C
  O43      1.0000 0.72800  0.16230  0.72800  Biso   1.000  O
  C261     1.0000 0.72670  0.07930  0.72670  Biso   1.000  C
  H35      1.0000 0.70940  0.09230  0.70940  Biso   1.000  H
  C262     1.0000 0.72620  0.03870  0.72620  Biso   1.000  C
  O44      1.0000 0.72800  0.66230  0.22800  Biso   1.000  O
  C263     1.0000 0.72670  0.57930  0.22670  Biso   1.000  C
  H36      1.0000 0.70940  0.59230  0.20940  Biso   1.000  H
  C264     1.0000 0.72620  0.53870  0.22620  Biso   1.000  C
  O45      1.0000 0.77200  0.16230  0.77200  Biso   1.000  O
  C265     1.0000 0.77330  0.07930  0.77330  Biso   1.000  C
  H37      1.0000 0.79060  0.09230  0.79060  Biso   1.000  H
  C266     1.0000 0.77380  0.03870  0.77380  Biso   1.000  C
  O46      1.0000 0.77200  0.66230  0.27200  Biso   1.000  O
  C267     1.0000 0.77330  0.57930  0.27330  Biso   1.000  C
  H38      1.0000 0.79060  0.59230  0.29060  Biso   1.000  H
  C268     1.0000 0.77380  0.53870  0.27380  Biso   1.000  C
  O47      1.0000 0.27200  0.16230  0.27200  Biso   1.000  O
  C269     1.0000 0.27330  0.07930  0.27330  Biso   1.000  C
  H39      1.0000 0.29060  0.09230  0.29060  Biso   1.000  H
  C270     1.0000 0.27380  0.03870  0.27380  Biso   1.000  C
  O48      1.0000 0.27200  0.66230  0.77200  Biso   1.000  O
  C271     1.0000 0.27330  0.57930  0.77330  Biso   1.000  C
  H40      1.0000 0.29060  0.59230  0.79060  Biso   1.000  H
  C272     1.0000 0.27380  0.53870  0.77380  Biso   1.000  C
  O49      1.0000 0.22800  0.83770  0.77200  Biso   1.000  O
  C273     1.0000 0.22670  0.92070  0.77330  Biso   1.000  C
  H41      1.0000 0.20940  0.90770  0.79060  Biso   1.000  H
  C274     1.0000 0.22620  0.96130  0.77380  Biso   1.000  C
  O50      1.0000 0.22800  0.33770  0.27200  Biso   1.000  O
  C275     1.0000 0.22670  0.42070  0.27330  Biso   1.000  C
  H42      1.0000 0.20940  0.40770  0.29060  Biso   1.000  H
  C276     1.0000 0.22620  0.46130  0.27380  Biso   1.000  C
  O51      1.0000 0.72800  0.83770  0.27200  Biso   1.000  O
  C277     1.0000 0.72670  0.92070  0.27330  Biso   1.000  C
  H43      1.0000 0.70940  0.90770  0.29060  Biso   1.000  H
  C278     1.0000 0.72620  0.96130  0.27380  Biso   1.000  C
  O52      1.0000 0.72800  0.33770  0.77200  Biso   1.000  O
  C279     1.0000 0.72670  0.42070  0.77330  Biso   1.000  C
  H44      1.0000 0.70940  0.40770  0.79060  Biso   1.000  H
  C280     1.0000 0.72620  0.46130  0.77380  Biso   1.000  C
  O53      1.0000 0.77200  0.83770  0.22800  Biso   1.000  O
  C281     1.0000 0.77330  0.92070  0.22670  Biso   1.000  C
  H45      1.0000 0.79060  0.90770  0.20940  Biso   1.000  H
  C282     1.0000 0.77380  0.96130  0.22620  Biso   1.000  C
  O54      1.0000 0.77200  0.33770  0.72800  Biso   1.000  O
  C283     1.0000 0.77330  0.42070  0.72670  Biso   1.000  C
  H46      1.0000 0.79060  0.40770  0.70940  Biso   1.000  H
  C284     1.0000 0.77380  0.46130  0.72620  Biso   1.000  C
  O55      1.0000 0.27200  0.83770  0.72800  Biso   1.000  O
  C285     1.0000 0.27330  0.92070  0.72670  Biso   1.000  C
  H47      1.0000 0.29060  0.90770  0.70940  Biso   1.000  H
  C286     1.0000 0.27380  0.96130  0.72620  Biso   1.000  C
  O56      1.0000 0.27200  0.33770  0.22800  Biso   1.000  O
  C287     1.0000 0.27330  0.42070  0.22670  Biso   1.000  C
  H48      1.0000 0.29060  0.40770  0.20940  Biso   1.000  H
  C288     1.0000 0.27380  0.46130  0.22620  Biso   1.000  C
  O57      1.0000 0.22800  0.22800  0.83770  Biso   1.000  O
  C289     1.0000 0.22670  0.22670  0.92070  Biso   1.000  C
  H49      1.0000 0.20940  0.20940  0.90770  Biso   1.000  H
  C290     1.0000 0.22620  0.22620  0.96130  Biso   1.000  C
  O58      1.0000 0.22800  0.72800  0.33770  Biso   1.000  O
  C291     1.0000 0.22670  0.72670  0.42070  Biso   1.000  C
  H50      1.0000 0.20940  0.70940  0.40770  Biso   1.000  H
  C292     1.0000 0.22620  0.72620  0.46130  Biso   1.000  C
  O59      1.0000 0.72800  0.22800  0.33770  Biso   1.000  O
  C293     1.0000 0.72670  0.22670  0.42070  Biso   1.000  C
  H51      1.0000 0.70940  0.20940  0.40770  Biso   1.000  H
  C294     1.0000 0.72620  0.22620  0.46130  Biso   1.000  C
  O60      1.0000 0.72800  0.72800  0.83770  Biso   1.000  O
  C295     1.0000 0.72670  0.72670  0.92070  Biso   1.000  C
  H52      1.0000 0.70940  0.70940  0.90770  Biso   1.000  H
  C296     1.0000 0.72620  0.72620  0.96130  Biso   1.000  C
  O61      1.0000 0.77200  0.77200  0.83770  Biso   1.000  O
  C297     1.0000 0.77330  0.77330  0.92070  Biso   1.000  C
  H53      1.0000 0.79060  0.79060  0.90770  Biso   1.000  H
  C298     1.0000 0.77380  0.77380  0.96130  Biso   1.000  C
  O62      1.0000 0.77200  0.27200  0.33770  Biso   1.000  O
  C299     1.0000 0.77330  0.27330  0.42070  Biso   1.000  C
  H54      1.0000 0.79060  0.29060  0.40770  Biso   1.000  H
  C300     1.0000 0.77380  0.27380  0.46130  Biso   1.000  C
  O63      1.0000 0.27200  0.77200  0.33770  Biso   1.000  O
  C301     1.0000 0.27330  0.77330  0.42070  Biso   1.000  C
  H55      1.0000 0.29060  0.79060  0.40770  Biso   1.000  H
  C302     1.0000 0.27380  0.77380  0.46130  Biso   1.000  C
  O64      1.0000 0.27200  0.27200  0.83770  Biso   1.000  O
  C303     1.0000 0.27330  0.27330  0.92070  Biso   1.000  C
  H56      1.0000 0.29060  0.29060  0.90770  Biso   1.000  H
  C304     1.0000 0.27380  0.27380  0.96130  Biso   1.000  C
  O65      1.0000 0.22800  0.77200  0.16230  Biso   1.000  O
  C305     1.0000 0.22670  0.77330  0.07930  Biso   1.000  C
  H57      1.0000 0.20940  0.79060  0.09230  Biso   1.000  H
  C306     1.0000 0.22620  0.77380  0.03870  Biso   1.000  C
  O66      1.0000 0.22800  0.27200  0.66230  Biso   1.000  O
  C307     1.0000 0.22670  0.27330  0.57930  Biso   1.000  C
  H58      1.0000 0.20940  0.29060  0.59230  Biso   1.000  H
  C308     1.0000 0.22620  0.27380  0.53870  Biso   1.000  C
  O67      1.0000 0.72800  0.77200  0.66230  Biso   1.000  O
  C309     1.0000 0.72670  0.77330  0.57930  Biso   1.000  C
  H59      1.0000 0.70940  0.79060  0.59230  Biso   1.000  H
  C310     1.0000 0.72620  0.77380  0.53870  Biso   1.000  C
  O68      1.0000 0.72800  0.27200  0.16230  Biso   1.000  O
  C311     1.0000 0.72670  0.27330  0.07930  Biso   1.000  C
  H60      1.0000 0.70940  0.29060  0.09230  Biso   1.000  H
  C312     1.0000 0.72620  0.27380  0.03870  Biso   1.000  C
  O69      1.0000 0.77200  0.22800  0.16230  Biso   1.000  O
  C313     1.0000 0.77330  0.22670  0.07930  Biso   1.000  C
  H61      1.0000 0.79060  0.20940  0.09230  Biso   1.000  H
  C314     1.0000 0.77380  0.22620  0.03870  Biso   1.000  C
  O70      1.0000 0.77200  0.72800  0.66230  Biso   1.000  O
  C315     1.0000 0.77330  0.72670  0.57930  Biso   1.000  C
  H62      1.0000 0.79060  0.70940  0.59230  Biso   1.000  H
  C316     1.0000 0.77380  0.72620  0.53870  Biso   1.000  C
  O71      1.0000 0.27200  0.22800  0.66230  Biso   1.000  O
  C317     1.0000 0.27330  0.22670  0.57930  Biso   1.000  C
  H63      1.0000 0.29060  0.20940  0.59230  Biso   1.000  H
  C318     1.0000 0.27380  0.22620  0.53870  Biso   1.000  C
  O72      1.0000 0.27200  0.72800  0.16230  Biso   1.000  O
  C319     1.0000 0.27330  0.72670  0.07930  Biso   1.000  C
  H64      1.0000 0.29060  0.70940  0.09230  Biso   1.000  H
  C320     1.0000 0.27380  0.72620  0.03870  Biso   1.000  C
  O73      1.0000 0.22800  0.16230  0.77200  Biso   1.000  O
  C321     1.0000 0.22670  0.07930  0.77330  Biso   1.000  C
  H65      1.0000 0.20940  0.09230  0.79060  Biso   1.000  H
  C322     1.0000 0.22620  0.03870  0.77380  Biso   1.000  C
  O74      1.0000 0.22800  0.66230  0.27200  Biso   1.000  O
  C323     1.0000 0.22670  0.57930  0.27330  Biso   1.000  C
  H66      1.0000 0.20940  0.59230  0.29060  Biso   1.000  H
  C324     1.0000 0.22620  0.53870  0.27380  Biso   1.000  C
  O75      1.0000 0.72800  0.16230  0.27200  Biso   1.000  O
  C325     1.0000 0.72670  0.07930  0.27330  Biso   1.000  C
  H67      1.0000 0.70940  0.09230  0.29060  Biso   1.000  H
  C326     1.0000 0.72620  0.03870  0.27380  Biso   1.000  C
  O76      1.0000 0.72800  0.66230  0.77200  Biso   1.000  O
  C327     1.0000 0.72670  0.57930  0.77330  Biso   1.000  C
  H68      1.0000 0.70940  0.59230  0.79060  Biso   1.000  H
  C328     1.0000 0.72620  0.53870  0.77380  Biso   1.000  C
  O77      1.0000 0.77200  0.16230  0.22800  Biso   1.000  O
  C329     1.0000 0.77330  0.07930  0.22670  Biso   1.000  C
  H69      1.0000 0.79060  0.09230  0.20940  Biso   1.000  H
  C330     1.0000 0.77380  0.03870  0.22620  Biso   1.000  C
  O78      1.0000 0.77200  0.66230  0.72800  Biso   1.000  O
  C331     1.0000 0.77330  0.57930  0.72670  Biso   1.000  C
  H70      1.0000 0.79060  0.59230  0.70940  Biso   1.000  H
  C332     1.0000 0.77380  0.53870  0.72620  Biso   1.000  C
  O79      1.0000 0.27200  0.16230  0.72800  Biso   1.000  O
  C333     1.0000 0.27330  0.07930  0.72670  Biso   1.000  C
  H71      1.0000 0.29060  0.09230  0.70940  Biso   1.000  H
  C334     1.0000 0.27380  0.03870  0.72620  Biso   1.000  C
  O80      1.0000 0.27200  0.66230  0.22800  Biso   1.000  O
  C335     1.0000 0.27330  0.57930  0.22670  Biso   1.000  C
  H72      1.0000 0.29060  0.59230  0.20940  Biso   1.000  H
  C336     1.0000 0.27380  0.53870  0.22620  Biso   1.000  C
  O81      1.0000 0.77200  0.83770  0.77200  Biso   1.000  O
  C337     1.0000 0.77330  0.92070  0.77330  Biso   1.000  C
  H73      1.0000 0.79060  0.90770  0.79060  Biso   1.000  H
  C338     1.0000 0.77380  0.96130  0.77380  Biso   1.000  C
  O82      1.0000 0.77200  0.33770  0.27200  Biso   1.000  O
  C339     1.0000 0.77330  0.42070  0.27330  Biso   1.000  C
  H74      1.0000 0.79060  0.40770  0.29060  Biso   1.000  H
  C340     1.0000 0.77380  0.46130  0.27380  Biso   1.000  C
  O83      1.0000 0.27200  0.83770  0.27200  Biso   1.000  O
  C341     1.0000 0.27330  0.92070  0.27330  Biso   1.000  C
  H75      1.0000 0.29060  0.90770  0.29060  Biso   1.000  H
  C342     1.0000 0.27380  0.96130  0.27380  Biso   1.000  C
  O84      1.0000 0.27200  0.33770  0.77200  Biso   1.000  O
  C343     1.0000 0.27330  0.42070  0.77330  Biso   1.000  C
  H76      1.0000 0.29060  0.40770  0.79060  Biso   1.000  H
  C344     1.0000 0.27380  0.46130  0.77380  Biso   1.000  C
  O85      1.0000 0.22800  0.83770  0.22800  Biso   1.000  O
  C345     1.0000 0.22670  0.92070  0.22670  Biso   1.000  C
  H77      1.0000 0.20940  0.90770  0.20940  Biso   1.000  H
  C346     1.0000 0.22620  0.96130  0.22620  Biso   1.000  C
  O86      1.0000 0.22800  0.33770  0.72800  Biso   1.000  O
  C347     1.0000 0.22670  0.42070  0.72670  Biso   1.000  C
  H78      1.0000 0.20940  0.40770  0.70940  Biso   1.000  H
  C348     1.0000 0.22620  0.46130  0.72620  Biso   1.000  C
  O87      1.0000 0.72800  0.83770  0.72800  Biso   1.000  O
  C349     1.0000 0.72670  0.92070  0.72670  Biso   1.000  C
  H79      1.0000 0.70940  0.90770  0.70940  Biso   1.000  H
  C350     1.0000 0.72620  0.96130  0.72620  Biso   1.000  C
  O88      1.0000 0.72800  0.33770  0.22800  Biso   1.000  O
  C351     1.0000 0.72670  0.42070  0.22670  Biso   1.000  C
  H80      1.0000 0.70940  0.40770  0.20940  Biso   1.000  H
  C352     1.0000 0.72620  0.46130  0.22620  Biso   1.000  C
  O89      1.0000 0.16230  0.22800  0.77200  Biso   1.000  O
  C353     1.0000 0.07930  0.22670  0.77330  Biso   1.000  C
  H81      1.0000 0.09230  0.20940  0.79060  Biso   1.000  H
  C354     1.0000 0.03870  0.22620  0.77380  Biso   1.000  C
  O90      1.0000 0.16230  0.72800  0.27200  Biso   1.000  O
  C355     1.0000 0.07930  0.72670  0.27330  Biso   1.000  C
  H82      1.0000 0.09230  0.70940  0.29060  Biso   1.000  H
  C356     1.0000 0.03870  0.72620  0.27380  Biso   1.000  C
  O91      1.0000 0.66230  0.22800  0.27200  Biso   1.000  O
  C357     1.0000 0.57930  0.22670  0.27330  Biso   1.000  C
  H83      1.0000 0.59230  0.20940  0.29060  Biso   1.000  H
  C358     1.0000 0.53870  0.22620  0.27380  Biso   1.000  C
  O92      1.0000 0.66230  0.72800  0.77200  Biso   1.000  O
  C359     1.0000 0.57930  0.72670  0.77330  Biso   1.000  C
  H84      1.0000 0.59230  0.70940  0.79060  Biso   1.000  H
  C360     1.0000 0.53870  0.72620  0.77380  Biso   1.000  C
  O93      1.0000 0.16230  0.77200  0.22800  Biso   1.000  O
  C361     1.0000 0.07930  0.77330  0.22670  Biso   1.000  C
  H85      1.0000 0.09230  0.79060  0.20940  Biso   1.000  H
  C362     1.0000 0.03870  0.77380  0.22620  Biso   1.000  C
  O94      1.0000 0.16230  0.27200  0.72800  Biso   1.000  O
  C363     1.0000 0.07930  0.27330  0.72670  Biso   1.000  C
  H86      1.0000 0.09230  0.29060  0.70940  Biso   1.000  H
  C364     1.0000 0.03870  0.27380  0.72620  Biso   1.000  C
  O95      1.0000 0.66230  0.77200  0.72800  Biso   1.000  O
  C365     1.0000 0.57930  0.77330  0.72670  Biso   1.000  C
  H87      1.0000 0.59230  0.79060  0.70940  Biso   1.000  H
  C366     1.0000 0.53870  0.77380  0.72620  Biso   1.000  C
  O96      1.0000 0.66230  0.27200  0.22800  Biso   1.000  O
  C367     1.0000 0.57930  0.27330  0.22670  Biso   1.000  C
  H88      1.0000 0.59230  0.29060  0.20940  Biso   1.000  H
  C368     1.0000 0.53870  0.27380  0.22620  Biso   1.000  C
  O97      1.0000 0.83770  0.22800  0.22800  Biso   1.000  O
  C369     1.0000 0.92070  0.22670  0.22670  Biso   1.000  C
  H89      1.0000 0.90770  0.20940  0.20940  Biso   1.000  H
  C370     1.0000 0.96130  0.22620  0.22620  Biso   1.000  C
  O98      1.0000 0.83770  0.72800  0.72800  Biso   1.000  O
  C371     1.0000 0.92070  0.72670  0.72670  Biso   1.000  C
  H90      1.0000 0.90770  0.70940  0.70940  Biso   1.000  H
  C372     1.0000 0.96130  0.72620  0.72620  Biso   1.000  C
  O99      1.0000 0.33770  0.22800  0.72800  Biso   1.000  O
  C373     1.0000 0.42070  0.22670  0.72670  Biso   1.000  C
  H91      1.0000 0.40770  0.20940  0.70940  Biso   1.000  H
  C374     1.0000 0.46130  0.22620  0.72620  Biso   1.000  C
  O100     1.0000 0.33770  0.72800  0.22800  Biso   1.000  O
  C375     1.0000 0.42070  0.72670  0.22670  Biso   1.000  C
  H92      1.0000 0.40770  0.70940  0.20940  Biso   1.000  H
  C376     1.0000 0.46130  0.72620  0.22620  Biso   1.000  C
  O101     1.0000 0.83770  0.77200  0.77200  Biso   1.000  O
  C377     1.0000 0.92070  0.77330  0.77330  Biso   1.000  C
  H93      1.0000 0.90770  0.79060  0.79060  Biso   1.000  H
  C378     1.0000 0.96130  0.77380  0.77380  Biso   1.000  C
  O102     1.0000 0.83770  0.27200  0.27200  Biso   1.000  O
  C379     1.0000 0.92070  0.27330  0.27330  Biso   1.000  C
  H94      1.0000 0.90770  0.29060  0.29060  Biso   1.000  H
  C380     1.0000 0.96130  0.27380  0.27380  Biso   1.000  C
  O103     1.0000 0.33770  0.77200  0.27200  Biso   1.000  O
  C381     1.0000 0.42070  0.77330  0.27330  Biso   1.000  C
  H95      1.0000 0.40770  0.79060  0.29060  Biso   1.000  H
  C382     1.0000 0.46130  0.77380  0.27380  Biso   1.000  C
  O104     1.0000 0.33770  0.27200  0.77200  Biso   1.000  O
  C383     1.0000 0.42070  0.27330  0.77330  Biso   1.000  C
  H96      1.0000 0.40770  0.29060  0.79060  Biso   1.000  H
  C384     1.0000 0.46130  0.27380  0.77380  Biso   1.000  C
  C385     1.0000 0.25000  0.25000  0.14590  Biso   1.000  C
  C386     1.0000 0.25000  0.25000  0.10240  Biso   1.000  C
  C387     1.0000 0.25000  0.25000  0.02030  Biso   1.000  C
  C388     1.0000 0.25000  0.75000  0.64590  Biso   1.000  C
  C389     1.0000 0.25000  0.75000  0.60240  Biso   1.000  C
  C390     1.0000 0.25000  0.75000  0.52030  Biso   1.000  C
  C391     1.0000 0.75000  0.75000  0.14590  Biso   1.000  C
  C392     1.0000 0.75000  0.75000  0.10240  Biso   1.000  C
  C393     1.0000 0.75000  0.75000  0.02030  Biso   1.000  C
  C394     1.0000 0.75000  0.25000  0.64590  Biso   1.000  C
  C395     1.0000 0.75000  0.25000  0.60240  Biso   1.000  C
  C396     1.0000 0.75000  0.25000  0.52030  Biso   1.000  C
  C397     1.0000 0.75000  0.25000  0.85410  Biso   1.000  C
  C398     1.0000 0.75000  0.25000  0.89760  Biso   1.000  C
  C399     1.0000 0.75000  0.25000  0.97970  Biso   1.000  C
  C400     1.0000 0.75000  0.75000  0.35410  Biso   1.000  C
  C401     1.0000 0.75000  0.75000  0.39760  Biso   1.000  C
  C402     1.0000 0.75000  0.75000  0.47970  Biso   1.000  C
  C403     1.0000 0.25000  0.25000  0.35410  Biso   1.000  C
  C404     1.0000 0.25000  0.25000  0.39760  Biso   1.000  C
  C405     1.0000 0.25000  0.25000  0.47970  Biso   1.000  C
  C406     1.0000 0.25000  0.75000  0.85410  Biso   1.000  C
  C407     1.0000 0.25000  0.75000  0.89760  Biso   1.000  C
  C408     1.0000 0.25000  0.75000  0.97970  Biso   1.000  C
  C409     1.0000 0.14590  0.25000  0.25000  Biso   1.000  C
  C410     1.0000 0.10240  0.25000  0.25000  Biso   1.000  C
  C411     1.0000 0.02030  0.25000  0.25000  Biso   1.000  C
  C412     1.0000 0.64590  0.25000  0.75000  Biso   1.000  C
  C413     1.0000 0.60240  0.25000  0.75000  Biso   1.000  C
  C414     1.0000 0.52030  0.25000  0.75000  Biso   1.000  C
  C415     1.0000 0.14590  0.75000  0.75000  Biso   1.000  C
  C416     1.0000 0.10240  0.75000  0.75000  Biso   1.000  C
  C417     1.0000 0.02030  0.75000  0.75000  Biso   1.000  C
  C418     1.0000 0.64590  0.75000  0.25000  Biso   1.000  C
  C419     1.0000 0.60240  0.75000  0.25000  Biso   1.000  C
  C420     1.0000 0.52030  0.75000  0.25000  Biso   1.000  C
  C421     1.0000 0.85410  0.75000  0.25000  Biso   1.000  C
  C422     1.0000 0.89760  0.75000  0.25000  Biso   1.000  C
  C423     1.0000 0.97970  0.75000  0.25000  Biso   1.000  C
  C424     1.0000 0.35410  0.75000  0.75000  Biso   1.000  C
  C425     1.0000 0.39760  0.75000  0.75000  Biso   1.000  C
  C426     1.0000 0.47970  0.75000  0.75000  Biso   1.000  C
  C427     1.0000 0.35410  0.25000  0.25000  Biso   1.000  C
  C428     1.0000 0.39760  0.25000  0.25000  Biso   1.000  C
  C429     1.0000 0.47970  0.25000  0.25000  Biso   1.000  C
  C430     1.0000 0.85410  0.25000  0.75000  Biso   1.000  C
  C431     1.0000 0.89760  0.25000  0.75000  Biso   1.000  C
  C432     1.0000 0.97970  0.25000  0.75000  Biso   1.000  C
  C433     1.0000 0.25000  0.14590  0.25000  Biso   1.000  C
  C434     1.0000 0.25000  0.10240  0.25000  Biso   1.000  C
  C435     1.0000 0.25000  0.02030  0.25000  Biso   1.000  C
  C436     1.0000 0.25000  0.64590  0.75000  Biso   1.000  C
  C437     1.0000 0.25000  0.60240  0.75000  Biso   1.000  C
  C438     1.0000 0.25000  0.52030  0.75000  Biso   1.000  C
  C439     1.0000 0.75000  0.14590  0.75000  Biso   1.000  C
  C440     1.0000 0.75000  0.10240  0.75000  Biso   1.000  C
  C441     1.0000 0.75000  0.02030  0.75000  Biso   1.000  C
  C442     1.0000 0.75000  0.64590  0.25000  Biso   1.000  C
  C443     1.0000 0.75000  0.60240  0.25000  Biso   1.000  C
  C444     1.0000 0.75000  0.52030  0.25000  Biso   1.000  C
  C445     1.0000 0.25000  0.85410  0.75000  Biso   1.000  C
  C446     1.0000 0.25000  0.89760  0.75000  Biso   1.000  C
  C447     1.0000 0.25000  0.97970  0.75000  Biso   1.000  C
  C448     1.0000 0.25000  0.35410  0.25000  Biso   1.000  C
  C449     1.0000 0.25000  0.39760  0.25000  Biso   1.000  C
  C450     1.0000 0.25000  0.47970  0.25000  Biso   1.000  C
  C451     1.0000 0.75000  0.85410  0.25000  Biso   1.000  C
  C452     1.0000 0.75000  0.89760  0.25000  Biso   1.000  C
  C453     1.0000 0.75000  0.97970  0.25000  Biso   1.000  C
  C454     1.0000 0.75000  0.35410  0.75000  Biso   1.000  C
  C455     1.0000 0.75000  0.39760  0.75000  Biso   1.000  C
  C456     1.0000 0.75000  0.47970  0.75000  Biso   1.000  C
  C457     1.0000 0.25000  0.25000  0.85410  Biso   1.000  C
  C458     1.0000 0.25000  0.25000  0.89760  Biso   1.000  C
  C459     1.0000 0.25000  0.25000  0.97970  Biso   1.000  C
  C460     1.0000 0.25000  0.75000  0.35410  Biso   1.000  C
  C461     1.0000 0.25000  0.75000  0.39760  Biso   1.000  C
  C462     1.0000 0.25000  0.75000  0.47970  Biso   1.000  C
  C463     1.0000 0.75000  0.75000  0.85410  Biso   1.000  C
  C464     1.0000 0.75000  0.75000  0.89760  Biso   1.000  C
  C465     1.0000 0.75000  0.75000  0.97970  Biso   1.000  C
  C466     1.0000 0.75000  0.25000  0.35410  Biso   1.000  C
  C467     1.0000 0.75000  0.25000  0.39760  Biso   1.000  C
  C468     1.0000 0.75000  0.25000  0.47970  Biso   1.000  C
  C469     1.0000 0.25000  0.75000  0.14590  Biso   1.000  C
  C470     1.0000 0.25000  0.75000  0.10240  Biso   1.000  C
  C471     1.0000 0.25000  0.75000  0.02030  Biso   1.000  C
  C472     1.0000 0.25000  0.25000  0.64590  Biso   1.000  C
  C473     1.0000 0.25000  0.25000  0.60240  Biso   1.000  C
  C474     1.0000 0.25000  0.25000  0.52030  Biso   1.000  C
  C475     1.0000 0.75000  0.25000  0.14590  Biso   1.000  C
  C476     1.0000 0.75000  0.25000  0.10240  Biso   1.000  C
  C477     1.0000 0.75000  0.25000  0.02030  Biso   1.000  C
  C478     1.0000 0.75000  0.75000  0.64590  Biso   1.000  C
  C479     1.0000 0.75000  0.75000  0.60240  Biso   1.000  C
  C480     1.0000 0.75000  0.75000  0.52030  Biso   1.000  C
  C481     1.0000 0.25000  0.14590  0.75000  Biso   1.000  C
  C482     1.0000 0.25000  0.10240  0.75000  Biso   1.000  C
  C483     1.0000 0.25000  0.02030  0.75000  Biso   1.000  C
  C484     1.0000 0.25000  0.64590  0.25000  Biso   1.000  C
  C485     1.0000 0.25000  0.60240  0.25000  Biso   1.000  C
  C486     1.0000 0.25000  0.52030  0.25000  Biso   1.000  C
  C487     1.0000 0.75000  0.14590  0.25000  Biso   1.000  C
  C488     1.0000 0.75000  0.10240  0.25000  Biso   1.000  C
  C489     1.0000 0.75000  0.02030  0.25000  Biso   1.000  C
  C490     1.0000 0.75000  0.64590  0.75000  Biso   1.000  C
  C491     1.0000 0.75000  0.60240  0.75000  Biso   1.000  C
  C492     1.0000 0.75000  0.52030  0.75000  Biso   1.000  C
  C493     1.0000 0.75000  0.85410  0.75000  Biso   1.000  C
  C494     1.0000 0.75000  0.89760  0.75000  Biso   1.000  C
  C495     1.0000 0.75000  0.97970  0.75000  Biso   1.000  C
  C496     1.0000 0.75000  0.35410  0.25000  Biso   1.000  C
  C497     1.0000 0.75000  0.39760  0.25000  Biso   1.000  C
  C498     1.0000 0.75000  0.47970  0.25000  Biso   1.000  C
  C499     1.0000 0.25000  0.85410  0.25000  Biso   1.000  C
  C500     1.0000 0.25000  0.89760  0.25000  Biso   1.000  C
  C501     1.0000 0.25000  0.97970  0.25000  Biso   1.000  C
  C502     1.0000 0.25000  0.35410  0.75000  Biso   1.000  C
  C503     1.0000 0.25000  0.39760  0.75000  Biso   1.000  C
  C504     1.0000 0.25000  0.47970  0.75000  Biso   1.000  C
  C505     1.0000 0.14590  0.25000  0.75000  Biso   1.000  C
  C506     1.0000 0.10240  0.25000  0.75000  Biso   1.000  C
  C507     1.0000 0.02030  0.25000  0.75000  Biso   1.000  C
  C508     1.0000 0.64590  0.25000  0.25000  Biso   1.000  C
  C509     1.0000 0.60240  0.25000  0.25000  Biso   1.000  C
  C510     1.0000 0.52030  0.25000  0.25000  Biso   1.000  C
  C511     1.0000 0.14590  0.75000  0.25000  Biso   1.000  C
  C512     1.0000 0.10240  0.75000  0.25000  Biso   1.000  C
  C513     1.0000 0.02030  0.75000  0.25000  Biso   1.000  C
  C514     1.0000 0.64590  0.75000  0.75000  Biso   1.000  C
  C515     1.0000 0.60240  0.75000  0.75000  Biso   1.000  C
  C516     1.0000 0.52030  0.75000  0.75000  Biso   1.000  C
  C517     1.0000 0.85410  0.25000  0.25000  Biso   1.000  C
  C518     1.0000 0.89760  0.25000  0.25000  Biso   1.000  C
  C519     1.0000 0.97970  0.25000  0.25000  Biso   1.000  C
  C520     1.0000 0.35410  0.25000  0.75000  Biso   1.000  C
  C521     1.0000 0.39760  0.25000  0.75000  Biso   1.000  C
  C522     1.0000 0.47970  0.25000  0.75000  Biso   1.000  C
  C523     1.0000 0.85410  0.75000  0.75000  Biso   1.000  C
  C524     1.0000 0.89760  0.75000  0.75000  Biso   1.000  C
  C525     1.0000 0.97970  0.75000  0.75000  Biso   1.000  C
  C526     1.0000 0.35410  0.75000  0.25000  Biso   1.000  C
  C527     1.0000 0.39760  0.75000  0.25000  Biso   1.000  C
  C528     1.0000 0.47970  0.75000  0.25000  Biso   1.000  C
