data_image0
_cell_length_a       25.556
_cell_length_b       25.556
_cell_length_c       22.751
_cell_angle_alpha    90
_cell_angle_beta     90
_cell_angle_gamma    90

_symmetry_space_group_name_H-M    "P 1"
_symmetry_int_tables_number       1

loop_
  _symmetry_equiv_pos_as_xyz
  'x, y, z'

loop_
  _atom_site_label
  _atom_site_occupancy
  _atom_site_fract_x
  _atom_site_fract_y
  _atom_site_fract_z
  _atom_site_thermal_displace_type
  _atom_site_B_iso_or_equiv
  _atom_site_type_symbol
  C1       1.0000 0.38820  0.13130  0.63170  Biso   1.000  C
  C2       1.0000 0.37770  0.18160  0.65870  Biso   1.000  C
  C3       1.0000 0.32360  0.20290  0.65790  Biso   1.000  C
  H1       1.0000 0.29920  0.18270  0.63780  Biso   1.000  H
  C4       1.0000 0.30270  0.25190  0.68470  Biso   1.000  C
  H2       1.0000 0.26870  0.26430  0.68030  Biso   1.000  H
  C5       1.0000 0.38900  0.26340  0.71880  Biso   1.000  C
  H3       1.0000 0.41270  0.28490  0.73820  Biso   1.000  H
  C6       1.0000 0.40830  0.21470  0.69100  Biso   1.000  C
  H4       1.0000 0.44350  0.20610  0.69570  Biso   1.000  H
  C7       1.0000 0.25880  0.59180  0.63670  Biso   1.000  C
  H5       1.0000 0.22320  0.59690  0.65050  Biso   1.000  H
  H6       1.0000 0.25730  0.58860  0.59430  Biso   1.000  H
  C8       1.0000 0.29090  0.64240  0.65170  Biso   1.000  C
  H7       1.0000 0.27390  0.67360  0.63660  Biso   1.000  H
  H8       1.0000 0.32620  0.64050  0.63620  Biso   1.000  H
  C9       1.0000 0.27250  0.60160  0.92940  Biso   1.000  C
  H9       1.0000 0.27700  0.60120  0.97170  Biso   1.000  H
  H10      1.0000 0.23580  0.60650  0.92010  Biso   1.000  H
  C10      1.0000 0.26270  0.51050  0.92500  Biso   1.000  C
  H11      1.0000 0.26500  0.50960  0.96760  Biso   1.000  H
  H12      1.0000 0.22630  0.51460  0.91390  Biso   1.000  H
  C11      1.0000 0.32280  0.68220  0.80670  Biso   1.000  C
  C12      1.0000 0.31520  0.68730  0.74740  Biso   1.000  C
  C13      1.0000 0.36730  0.81670  0.70530  Biso   1.000  C
  C14      1.0000 0.32980  0.84620  0.67960  Biso   1.000  C
  H13      1.0000 0.29460  0.83820  0.68450  Biso   1.000  H
  C15      1.0000 0.34510  0.88950  0.64520  Biso   1.000  C
  H14      1.0000 0.31960  0.90950  0.62660  Biso   1.000  H
  C16      1.0000 0.39340  0.90180  0.63890  Biso   1.000  C
  C17      1.0000 0.43300  0.87430  0.66180  Biso   1.000  C
  H15      1.0000 0.46780  0.88320  0.65500  Biso   1.000  H
  C18      1.0000 0.41930  0.83170  0.69600  Biso   1.000  C
  H16      1.0000 0.44580  0.81220  0.71360  Biso   1.000  H
  C19      1.0000 0.40320  0.94770  0.61030  Biso   1.000  C
  C20      1.0000 0.49150  0.22970  0.53110  Biso   1.000  C
  O1       1.0000 0.45630  0.06560  0.54070  Biso   1.000  O
  O2       1.0000 0.35850  0.10820  0.60310  Biso   1.000  O
  O3       1.0000 0.43910  0.11940  0.64100  Biso   1.000  O
  O4       1.0000 0.41190  0.99130  0.91910  Biso   1.000  O
  O5       1.0000 0.47210  0.94640  0.96980  Biso   1.000  O
  O6       1.0000 0.36840  0.98080  0.58690  Biso   1.000  O
  O7       1.0000 0.45090  0.96570  0.59830  Biso   1.000  O
  S1       1.0000 0.51550  0.28010  0.54240  Biso   1.000  S
  K1       1.0000 0.28220  0.55128  0.78000  Biso   1.000  K
  C21      1.0000 0.34220  0.27640  0.71730  Biso   1.000  C
  C22      1.0000 0.32990  0.32490  0.75280  Biso   1.000  C
  C23      1.0000 0.30950  0.36610  0.72600  Biso   1.000  C
  H17      1.0000 0.30690  0.36450  0.68520  Biso   1.000  H
  C24      1.0000 0.29870  0.40990  0.81380  Biso   1.000  C
  C25      1.0000 0.31670  0.37060  0.84370  Biso   1.000  C
  H18      1.0000 0.31650  0.36970  0.88460  Biso   1.000  H
  C26      1.0000 0.33640  0.33000  0.80990  Biso   1.000  C
  C27      1.0000 0.35560  0.28450  0.84820  Biso   1.000  C
  C28      1.0000 0.32780  0.23670  0.84540  Biso   1.000  C
  H19      1.0000 0.29770  0.23330  0.82280  Biso   1.000  H
  C29      1.0000 0.34740  0.19520  0.87790  Biso   1.000  C
  H20      1.0000 0.33120  0.16290  0.87300  Biso   1.000  H
  C30      1.0000 0.38570  0.19730  0.91410  Biso   1.000  C
  C31      1.0000 0.41370  0.24340  0.91080  Biso   1.000  C
  H21      1.0000 0.44450  0.24600  0.93240  Biso   1.000  H
  C32      1.0000 0.39970  0.28330  0.87950  Biso   1.000  C
  H22      1.0000 0.42130  0.31250  0.87890  Biso   1.000  H
  C33      1.0000 0.40360  0.15050  0.95260  Biso   1.000  C
  C34      1.0000 0.26980  0.45640  0.66520  Biso   1.000  C
  H23      1.0000 0.25280  0.42510  0.65040  Biso   1.000  H
  H24      1.0000 0.30580  0.45600  0.65170  Biso   1.000  H
  C35      1.0000 0.24210  0.50470  0.63980  Biso   1.000  C
  H25      1.0000 0.23970  0.50260  0.59730  Biso   1.000  H
  H26      1.0000 0.20720  0.50840  0.65600  Biso   1.000  H
  C36      1.0000 0.30620  0.64270  0.90070  Biso   1.000  C
  H27      1.0000 0.29670  0.67670  0.91650  Biso   1.000  H
  H28      1.0000 0.34240  0.63620  0.91100  Biso   1.000  H
  C37      1.0000 0.28360  0.46420  0.90050  Biso   1.000  C
  H29      1.0000 0.32020  0.46190  0.91150  Biso   1.000  H
  H30      1.0000 0.26580  0.43460  0.91810  Biso   1.000  H
  C38      1.0000 0.33110  0.72990  0.71520  Biso   1.000  C
  H31      1.0000 0.32630  0.73060  0.67470  Biso   1.000  H
  C39      1.0000 0.35440  0.77160  0.74380  Biso   1.000  C
  C40      1.0000 0.36280  0.77270  0.80320  Biso   1.000  C
  C41      1.0000 0.34910  0.72470  0.83620  Biso   1.000  C
  H32      1.0000 0.35740  0.72190  0.87590  Biso   1.000  H
  C42      1.0000 0.38540  0.81650  0.83190  Biso   1.000  C
  C43      1.0000 0.42950  0.81150  0.86920  Biso   1.000  C
  H33      1.0000 0.44720  0.77980  0.87220  Biso   1.000  H
  C44      1.0000 0.44640  0.85640  0.90220  Biso   1.000  C
  H34      1.0000 0.47480  0.85360  0.92760  Biso   1.000  H
  C45      1.0000 0.41960  0.90540  0.89620  Biso   1.000  C
  C46      1.0000 0.37900  0.90900  0.85640  Biso   1.000  C
  H35      1.0000 0.36400  0.94140  0.84850  Biso   1.000  H
  C47      1.0000 0.36010  0.86420  0.82790  Biso   1.000  C
  H36      1.0000 0.32970  0.86660  0.80550  Biso   1.000  H
  C48      1.0000 0.43920  0.95140  0.93150  Biso   1.000  C
  C49      1.0000 0.29230  0.40990  0.75190  Biso   1.000  C
  N1       1.0000 0.48320  0.18360  0.50260  Biso   1.000  N
  O8       1.0000 0.28010  0.46010  0.84210  Biso   1.000  O
  O9       1.0000 0.29390  0.55320  0.90160  Biso   1.000  O
  O10      1.0000 0.30180  0.64440  0.83820  Biso   1.000  O
  O11      1.0000 0.29070  0.64140  0.72200  Biso   1.000  O
  O12      1.0000 0.27570  0.54780  0.65790  Biso   1.000  O
  O13      1.0000 0.26910  0.45540  0.72690  Biso   1.000  O
  O14      1.0000 0.37630  0.11090  0.94340  Biso   1.000  O
  O15      1.0000 0.43910  0.15740  0.98720  Biso   1.000  O
  Zn1      1.0000 0.46017  0.11686  0.47792  Biso   1.000  Zn
  Zn2      1.0000 0.38301  0.05009  0.55712  Biso   1.000  Zn
  C50      1.0000 0.28520  0.55040  0.78140  Biso   1.000  C
  C51      1.0000 0.61180  0.86870  0.63170  Biso   1.000  C
  C52      1.0000 0.62230  0.81840  0.65870  Biso   1.000  C
  C53      1.0000 0.67640  0.79710  0.65790  Biso   1.000  C
  H37      1.0000 0.70080  0.81730  0.63780  Biso   1.000  H
  C54      1.0000 0.69730  0.74810  0.68470  Biso   1.000  C
  H38      1.0000 0.73130  0.73570  0.68030  Biso   1.000  H
  C55      1.0000 0.61100  0.73660  0.71880  Biso   1.000  C
  H39      1.0000 0.58730  0.71510  0.73820  Biso   1.000  H
  C56      1.0000 0.59170  0.78530  0.69100  Biso   1.000  C
  H40      1.0000 0.55650  0.79390  0.69570  Biso   1.000  H
  C57      1.0000 0.74120  0.40820  0.63670  Biso   1.000  C
  H41      1.0000 0.77680  0.40310  0.65050  Biso   1.000  H
  H42      1.0000 0.74270  0.41140  0.59430  Biso   1.000  H
  C58      1.0000 0.70910  0.35760  0.65170  Biso   1.000  C
  H43      1.0000 0.72610  0.32640  0.63660  Biso   1.000  H
  H44      1.0000 0.67380  0.35950  0.63620  Biso   1.000  H
  C59      1.0000 0.72750  0.39840  0.92940  Biso   1.000  C
  H45      1.0000 0.72300  0.39880  0.97170  Biso   1.000  H
  H46      1.0000 0.76420  0.39350  0.92010  Biso   1.000  H
  C60      1.0000 0.73730  0.48950  0.92500  Biso   1.000  C
  H47      1.0000 0.73500  0.49040  0.96760  Biso   1.000  H
  H48      1.0000 0.77370  0.48540  0.91390  Biso   1.000  H
  C61      1.0000 0.67720  0.31780  0.80670  Biso   1.000  C
  C62      1.0000 0.68480  0.31270  0.74740  Biso   1.000  C
  C63      1.0000 0.63270  0.18330  0.70530  Biso   1.000  C
  C64      1.0000 0.67020  0.15380  0.67960  Biso   1.000  C
  H49      1.0000 0.70540  0.16180  0.68450  Biso   1.000  H
  C65      1.0000 0.65490  0.11050  0.64520  Biso   1.000  C
  H50      1.0000 0.68040  0.09050  0.62660  Biso   1.000  H
  C66      1.0000 0.60660  0.09820  0.63890  Biso   1.000  C
  C67      1.0000 0.56700  0.12570  0.66180  Biso   1.000  C
  H51      1.0000 0.53220  0.11680  0.65500  Biso   1.000  H
  C68      1.0000 0.58070  0.16830  0.69600  Biso   1.000  C
  H52      1.0000 0.55420  0.18780  0.71360  Biso   1.000  H
  C69      1.0000 0.59680  0.05230  0.61030  Biso   1.000  C
  C70      1.0000 0.50850  0.77030  0.53110  Biso   1.000  C
  O16      1.0000 0.54370  0.93440  0.54070  Biso   1.000  O
  O17      1.0000 0.64150  0.89180  0.60310  Biso   1.000  O
  O18      1.0000 0.56090  0.88060  0.64100  Biso   1.000  O
  O19      1.0000 0.58810  0.00870  0.91910  Biso   1.000  O
  O20      1.0000 0.52790  0.05360  0.96980  Biso   1.000  O
  O21      1.0000 0.63160  0.01920  0.58690  Biso   1.000  O
  O22      1.0000 0.54910  0.03430  0.59830  Biso   1.000  O
  S2       1.0000 0.48450  0.71990  0.54240  Biso   1.000  S
  K2       1.0000 0.71780  0.44872  0.78000  Biso   1.000  K
  C71      1.0000 0.65780  0.72360  0.71730  Biso   1.000  C
  C72      1.0000 0.67010  0.67510  0.75280  Biso   1.000  C
  C73      1.0000 0.69050  0.63390  0.72600  Biso   1.000  C
  H53      1.0000 0.69310  0.63550  0.68520  Biso   1.000  H
  C74      1.0000 0.70130  0.59010  0.81380  Biso   1.000  C
  C75      1.0000 0.68330  0.62940  0.84370  Biso   1.000  C
  H54      1.0000 0.68350  0.63030  0.88460  Biso   1.000  H
  C76      1.0000 0.66360  0.67000  0.80990  Biso   1.000  C
  C77      1.0000 0.64440  0.71550  0.84820  Biso   1.000  C
  C78      1.0000 0.67220  0.76330  0.84540  Biso   1.000  C
  H55      1.0000 0.70230  0.76670  0.82280  Biso   1.000  H
  C79      1.0000 0.65260  0.80480  0.87790  Biso   1.000  C
  H56      1.0000 0.66880  0.83710  0.87300  Biso   1.000  H
  C80      1.0000 0.61430  0.80270  0.91410  Biso   1.000  C
  C81      1.0000 0.58630  0.75660  0.91080  Biso   1.000  C
  H57      1.0000 0.55550  0.75400  0.93240  Biso   1.000  H
  C82      1.0000 0.60030  0.71670  0.87950  Biso   1.000  C
  H58      1.0000 0.57870  0.68750  0.87890  Biso   1.000  H
  C83      1.0000 0.59640  0.84950  0.95260  Biso   1.000  C
  C84      1.0000 0.73020  0.54360  0.66520  Biso   1.000  C
  H59      1.0000 0.74720  0.57490  0.65040  Biso   1.000  H
  H60      1.0000 0.69420  0.54400  0.65170  Biso   1.000  H
  C85      1.0000 0.75790  0.49530  0.63980  Biso   1.000  C
  H61      1.0000 0.76030  0.49740  0.59730  Biso   1.000  H
  H62      1.0000 0.79280  0.49160  0.65600  Biso   1.000  H
  C86      1.0000 0.69380  0.35730  0.90070  Biso   1.000  C
  H63      1.0000 0.70330  0.32330  0.91650  Biso   1.000  H
  H64      1.0000 0.65760  0.36380  0.91100  Biso   1.000  H
  C87      1.0000 0.71640  0.53580  0.90050  Biso   1.000  C
  H65      1.0000 0.67980  0.53810  0.91150  Biso   1.000  H
  H66      1.0000 0.73420  0.56540  0.91810  Biso   1.000  H
  C88      1.0000 0.66890  0.27010  0.71520  Biso   1.000  C
  H67      1.0000 0.67370  0.26940  0.67470  Biso   1.000  H
  C89      1.0000 0.64560  0.22840  0.74380  Biso   1.000  C
  C90      1.0000 0.63720  0.22730  0.80320  Biso   1.000  C
  C91      1.0000 0.65090  0.27530  0.83620  Biso   1.000  C
  H68      1.0000 0.64260  0.27810  0.87590  Biso   1.000  H
  C92      1.0000 0.61460  0.18350  0.83190  Biso   1.000  C
  C93      1.0000 0.57050  0.18850  0.86920  Biso   1.000  C
  H69      1.0000 0.55280  0.22020  0.87220  Biso   1.000  H
  C94      1.0000 0.55360  0.14360  0.90220  Biso   1.000  C
  H70      1.0000 0.52520  0.14640  0.92760  Biso   1.000  H
  C95      1.0000 0.58040  0.09460  0.89620  Biso   1.000  C
  C96      1.0000 0.62100  0.09100  0.85640  Biso   1.000  C
  H71      1.0000 0.63600  0.05860  0.84850  Biso   1.000  H
  C97      1.0000 0.63990  0.13580  0.82790  Biso   1.000  C
  H72      1.0000 0.67030  0.13340  0.80550  Biso   1.000  H
  C98      1.0000 0.56080  0.04860  0.93150  Biso   1.000  C
  C99      1.0000 0.70770  0.59010  0.75190  Biso   1.000  C
  N2       1.0000 0.51680  0.81640  0.50260  Biso   1.000  N
  O23      1.0000 0.71990  0.53990  0.84210  Biso   1.000  O
  O24      1.0000 0.70610  0.44680  0.90160  Biso   1.000  O
  O25      1.0000 0.69820  0.35560  0.83820  Biso   1.000  O
  O26      1.0000 0.70930  0.35860  0.72200  Biso   1.000  O
  O27      1.0000 0.72430  0.45220  0.65790  Biso   1.000  O
  O28      1.0000 0.73090  0.54460  0.72690  Biso   1.000  O
  O29      1.0000 0.62370  0.88910  0.94340  Biso   1.000  O
  O30      1.0000 0.56090  0.84260  0.98720  Biso   1.000  O
  Zn3      1.0000 0.53983  0.88314  0.47792  Biso   1.000  Zn
  Zn4      1.0000 0.61699  0.94991  0.55712  Biso   1.000  Zn
  C100     1.0000 0.71480  0.44960  0.78140  Biso   1.000  C
  C101     1.0000 0.36870  0.11180  0.13170  Biso   1.000  C
  C102     1.0000 0.31840  0.12230  0.15870  Biso   1.000  C
  C103     1.0000 0.29710  0.17640  0.15790  Biso   1.000  C
  H73      1.0000 0.31730  0.20080  0.13780  Biso   1.000  H
  C104     1.0000 0.24810  0.19730  0.18470  Biso   1.000  C
  H74      1.0000 0.23570  0.23130  0.18030  Biso   1.000  H
  C105     1.0000 0.23660  0.11100  0.21880  Biso   1.000  C
  H75      1.0000 0.21510  0.08730  0.23820  Biso   1.000  H
  C106     1.0000 0.28530  0.09170  0.19100  Biso   1.000  C
  H76      1.0000 0.29390  0.05650  0.19570  Biso   1.000  H
  C107     1.0000 0.90820  0.24120  0.13670  Biso   1.000  C
  H77      1.0000 0.90310  0.27680  0.15050  Biso   1.000  H
  H78      1.0000 0.91140  0.24270  0.09430  Biso   1.000  H
  C108     1.0000 0.85760  0.20910  0.15170  Biso   1.000  C
  H79      1.0000 0.82640  0.22610  0.13660  Biso   1.000  H
  H80      1.0000 0.85950  0.17380  0.13620  Biso   1.000  H
  C109     1.0000 0.89840  0.22750  0.42940  Biso   1.000  C
  H81      1.0000 0.89880  0.22300  0.47170  Biso   1.000  H
  H82      1.0000 0.89350  0.26420  0.42010  Biso   1.000  H
  C110     1.0000 0.98950  0.23730  0.42500  Biso   1.000  C
  H83      1.0000 0.99040  0.23500  0.46760  Biso   1.000  H
  H84      1.0000 0.98540  0.27370  0.41390  Biso   1.000  H
  C111     1.0000 0.81780  0.17720  0.30670  Biso   1.000  C
  C112     1.0000 0.81270  0.18480  0.24740  Biso   1.000  C
  C113     1.0000 0.68330  0.13270  0.20530  Biso   1.000  C
  C114     1.0000 0.65380  0.17020  0.17960  Biso   1.000  C
  H85      1.0000 0.66180  0.20540  0.18450  Biso   1.000  H
  C115     1.0000 0.61050  0.15490  0.14520  Biso   1.000  C
  H86      1.0000 0.59050  0.18040  0.12660  Biso   1.000  H
  C116     1.0000 0.59820  0.10660  0.13890  Biso   1.000  C
  C117     1.0000 0.62570  0.06700  0.16180  Biso   1.000  C
  H87      1.0000 0.61680  0.03220  0.15500  Biso   1.000  H
  C118     1.0000 0.66830  0.08070  0.19600  Biso   1.000  C
  H88      1.0000 0.68780  0.05420  0.21360  Biso   1.000  H
  C119     1.0000 0.55230  0.09680  0.11030  Biso   1.000  C
  C120     1.0000 0.27030  0.00850  0.03110  Biso   1.000  C
  O31      1.0000 0.43440  0.04370  0.04070  Biso   1.000  O
  O32      1.0000 0.39180  0.14150  0.10310  Biso   1.000  O
  O33      1.0000 0.38060  0.06090  0.14100  Biso   1.000  O
  O34      1.0000 0.50870  0.08810  0.41910  Biso   1.000  O
  O35      1.0000 0.55360  0.02790  0.46980  Biso   1.000  O
  O36      1.0000 0.51920  0.13160  0.08690  Biso   1.000  O
  O37      1.0000 0.53430  0.04910  0.09830  Biso   1.000  O
  S3       1.0000 0.21990  0.98450  0.04240  Biso   1.000  S
  K3       1.0000 0.94872  0.21780  0.28000  Biso   1.000  K
  C121     1.0000 0.22360  0.15780  0.21730  Biso   1.000  C
  C122     1.0000 0.17510  0.17010  0.25280  Biso   1.000  C
  C123     1.0000 0.13390  0.19050  0.22600  Biso   1.000  C
  H89      1.0000 0.13550  0.19310  0.18520  Biso   1.000  H
  C124     1.0000 0.09010  0.20130  0.31380  Biso   1.000  C
  C125     1.0000 0.12940  0.18330  0.34370  Biso   1.000  C
  H90      1.0000 0.13030  0.18350  0.38460  Biso   1.000  H
  C126     1.0000 0.17000  0.16360  0.30990  Biso   1.000  C
  C127     1.0000 0.21550  0.14440  0.34820  Biso   1.000  C
  C128     1.0000 0.26330  0.17220  0.34540  Biso   1.000  C
  H91      1.0000 0.26670  0.20230  0.32280  Biso   1.000  H
  C129     1.0000 0.30480  0.15260  0.37790  Biso   1.000  C
  H92      1.0000 0.33710  0.16880  0.37300  Biso   1.000  H
  C130     1.0000 0.30270  0.11430  0.41410  Biso   1.000  C
  C131     1.0000 0.25660  0.08630  0.41080  Biso   1.000  C
  H93      1.0000 0.25400  0.05550  0.43240  Biso   1.000  H
  C132     1.0000 0.21670  0.10030  0.37950  Biso   1.000  C
  H94      1.0000 0.18750  0.07870  0.37890  Biso   1.000  H
  C133     1.0000 0.34950  0.09640  0.45260  Biso   1.000  C
  C134     1.0000 0.04360  0.23020  0.16520  Biso   1.000  C
  H95      1.0000 0.07490  0.24720  0.15040  Biso   1.000  H
  H96      1.0000 0.04400  0.19420  0.15170  Biso   1.000  H
  C135     1.0000 0.99530  0.25790  0.13980  Biso   1.000  C
  H97      1.0000 0.99740  0.26030  0.09730  Biso   1.000  H
  H98      1.0000 0.99160  0.29280  0.15600  Biso   1.000  H
  C136     1.0000 0.85730  0.19380  0.40070  Biso   1.000  C
  H99      1.0000 0.82330  0.20330  0.41650  Biso   1.000  H
  H100     1.0000 0.86380  0.15760  0.41100  Biso   1.000  H
  C137     1.0000 0.03580  0.21640  0.40050  Biso   1.000  C
  H101     1.0000 0.03810  0.17980  0.41150  Biso   1.000  H
  H102     1.0000 0.06540  0.23420  0.41810  Biso   1.000  H
  C138     1.0000 0.77010  0.16890  0.21520  Biso   1.000  C
  H103     1.0000 0.76940  0.17370  0.17470  Biso   1.000  H
  C139     1.0000 0.72840  0.14560  0.24380  Biso   1.000  C
  C140     1.0000 0.72730  0.13720  0.30320  Biso   1.000  C
  C141     1.0000 0.77530  0.15090  0.33620  Biso   1.000  C
  H104     1.0000 0.77810  0.14260  0.37590  Biso   1.000  H
  C142     1.0000 0.68350  0.11460  0.33190  Biso   1.000  C
  C143     1.0000 0.68850  0.07050  0.36920  Biso   1.000  C
  H105     1.0000 0.72020  0.05280  0.37220  Biso   1.000  H
  C144     1.0000 0.64360  0.05360  0.40220  Biso   1.000  C
  H106     1.0000 0.64640  0.02520  0.42760  Biso   1.000  H
  C145     1.0000 0.59460  0.08040  0.39620  Biso   1.000  C
  C146     1.0000 0.59100  0.12100  0.35640  Biso   1.000  C
  H107     1.0000 0.55860  0.13600  0.34850  Biso   1.000  H
  C147     1.0000 0.63580  0.13990  0.32790  Biso   1.000  C
  H108     1.0000 0.63340  0.17030  0.30550  Biso   1.000  H
  C148     1.0000 0.54860  0.06080  0.43150  Biso   1.000  C
  C149     1.0000 0.09010  0.20770  0.25190  Biso   1.000  C
  N3       1.0000 0.31640  0.01680  0.00260  Biso   1.000  N
  O38      1.0000 0.03990  0.21990  0.34210  Biso   1.000  O
  O39      1.0000 0.94680  0.20610  0.40160  Biso   1.000  O
  O40      1.0000 0.85560  0.19820  0.33820  Biso   1.000  O
  O41      1.0000 0.85860  0.20930  0.22200  Biso   1.000  O
  O42      1.0000 0.95220  0.22430  0.15790  Biso   1.000  O
  O43      1.0000 0.04460  0.23090  0.22690  Biso   1.000  O
  O44      1.0000 0.38910  0.12370  0.44340  Biso   1.000  O
  O45      1.0000 0.34260  0.06090  0.48720  Biso   1.000  O
  Zn5      1.0000 0.38314  0.03983  0.97792  Biso   1.000  Zn
  Zn6      1.0000 0.44991  0.11699  0.05712  Biso   1.000  Zn
  C150     1.0000 0.94960  0.21480  0.28140  Biso   1.000  C
  C151     1.0000 0.63130  0.88820  0.13170  Biso   1.000  C
  C152     1.0000 0.68160  0.87770  0.15870  Biso   1.000  C
  C153     1.0000 0.70290  0.82360  0.15790  Biso   1.000  C
  H109     1.0000 0.68270  0.79920  0.13780  Biso   1.000  H
  C154     1.0000 0.75190  0.80270  0.18470  Biso   1.000  C
  H110     1.0000 0.76430  0.76870  0.18030  Biso   1.000  H
  C155     1.0000 0.76340  0.88900  0.21880  Biso   1.000  C
  H111     1.0000 0.78490  0.91270  0.23820  Biso   1.000  H
  C156     1.0000 0.71470  0.90830  0.19100  Biso   1.000  C
  H112     1.0000 0.70610  0.94350  0.19570  Biso   1.000  H
  C157     1.0000 0.09180  0.75880  0.13670  Biso   1.000  C
  H113     1.0000 0.09690  0.72320  0.15050  Biso   1.000  H
  H114     1.0000 0.08860  0.75730  0.09430  Biso   1.000  H
  C158     1.0000 0.14240  0.79090  0.15170  Biso   1.000  C
  H115     1.0000 0.17360  0.77390  0.13660  Biso   1.000  H
  H116     1.0000 0.14050  0.82620  0.13620  Biso   1.000  H
  C159     1.0000 0.10160  0.77250  0.42940  Biso   1.000  C
  H117     1.0000 0.10120  0.77700  0.47170  Biso   1.000  H
  H118     1.0000 0.10650  0.73580  0.42010  Biso   1.000  H
  C160     1.0000 0.01050  0.76270  0.42500  Biso   1.000  C
  H119     1.0000 0.00960  0.76500  0.46760  Biso   1.000  H
  H120     1.0000 0.01460  0.72630  0.41390  Biso   1.000  H
  C161     1.0000 0.18220  0.82280  0.30670  Biso   1.000  C
  C162     1.0000 0.18730  0.81520  0.24740  Biso   1.000  C
  C163     1.0000 0.31670  0.86730  0.20530  Biso   1.000  C
  C164     1.0000 0.34620  0.82980  0.17960  Biso   1.000  C
  H121     1.0000 0.33820  0.79460  0.18450  Biso   1.000  H
  C165     1.0000 0.38950  0.84510  0.14520  Biso   1.000  C
  H122     1.0000 0.40950  0.81960  0.12660  Biso   1.000  H
  C166     1.0000 0.40180  0.89340  0.13890  Biso   1.000  C
  C167     1.0000 0.37430  0.93300  0.16180  Biso   1.000  C
  H123     1.0000 0.38320  0.96780  0.15500  Biso   1.000  H
  C168     1.0000 0.33170  0.91930  0.19600  Biso   1.000  C
  H124     1.0000 0.31220  0.94580  0.21360  Biso   1.000  H
  C169     1.0000 0.44770  0.90320  0.11030  Biso   1.000  C
  C170     1.0000 0.72970  0.99150  0.03110  Biso   1.000  C
  O46      1.0000 0.56560  0.95630  0.04070  Biso   1.000  O
  O47      1.0000 0.60820  0.85850  0.10310  Biso   1.000  O
  O48      1.0000 0.61940  0.93910  0.14100  Biso   1.000  O
  O49      1.0000 0.49130  0.91190  0.41910  Biso   1.000  O
  O50      1.0000 0.44640  0.97210  0.46980  Biso   1.000  O
  O51      1.0000 0.48080  0.86840  0.08690  Biso   1.000  O
  O52      1.0000 0.46570  0.95090  0.09830  Biso   1.000  O
  S4       1.0000 0.78010  0.01550  0.04240  Biso   1.000  S
  K4       1.0000 0.05128  0.78220  0.28000  Biso   1.000  K
  C171     1.0000 0.77640  0.84220  0.21730  Biso   1.000  C
  C172     1.0000 0.82490  0.82990  0.25280  Biso   1.000  C
  C173     1.0000 0.86610  0.80950  0.22600  Biso   1.000  C
  H125     1.0000 0.86450  0.80690  0.18520  Biso   1.000  H
  C174     1.0000 0.90990  0.79870  0.31380  Biso   1.000  C
  C175     1.0000 0.87060  0.81670  0.34370  Biso   1.000  C
  H126     1.0000 0.86970  0.81650  0.38460  Biso   1.000  H
  C176     1.0000 0.83000  0.83640  0.30990  Biso   1.000  C
  C177     1.0000 0.78450  0.85560  0.34820  Biso   1.000  C
  C178     1.0000 0.73670  0.82780  0.34540  Biso   1.000  C
  H127     1.0000 0.73330  0.79770  0.32280  Biso   1.000  H
  C179     1.0000 0.69520  0.84740  0.37790  Biso   1.000  C
  H128     1.0000 0.66290  0.83120  0.37300  Biso   1.000  H
  C180     1.0000 0.69730  0.88570  0.41410  Biso   1.000  C
  C181     1.0000 0.74340  0.91370  0.41080  Biso   1.000  C
  H129     1.0000 0.74600  0.94450  0.43240  Biso   1.000  H
  C182     1.0000 0.78330  0.89970  0.37950  Biso   1.000  C
  H130     1.0000 0.81250  0.92130  0.37890  Biso   1.000  H
  C183     1.0000 0.65050  0.90360  0.45260  Biso   1.000  C
  C184     1.0000 0.95640  0.76980  0.16520  Biso   1.000  C
  H131     1.0000 0.92510  0.75280  0.15040  Biso   1.000  H
  H132     1.0000 0.95600  0.80580  0.15170  Biso   1.000  H
  C185     1.0000 0.00470  0.74210  0.13980  Biso   1.000  C
  H133     1.0000 0.00260  0.73970  0.09730  Biso   1.000  H
  H134     1.0000 0.00840  0.70720  0.15600  Biso   1.000  H
  C186     1.0000 0.14270  0.80620  0.40070  Biso   1.000  C
  H135     1.0000 0.17670  0.79670  0.41650  Biso   1.000  H
  H136     1.0000 0.13620  0.84240  0.41100  Biso   1.000  H
  C187     1.0000 0.96420  0.78360  0.40050  Biso   1.000  C
  H137     1.0000 0.96190  0.82020  0.41150  Biso   1.000  H
  H138     1.0000 0.93460  0.76580  0.41810  Biso   1.000  H
  C188     1.0000 0.22990  0.83110  0.21520  Biso   1.000  C
  H139     1.0000 0.23060  0.82630  0.17470  Biso   1.000  H
  C189     1.0000 0.27160  0.85440  0.24380  Biso   1.000  C
  C190     1.0000 0.27270  0.86280  0.30320  Biso   1.000  C
  C191     1.0000 0.22470  0.84910  0.33620  Biso   1.000  C
  H140     1.0000 0.22190  0.85740  0.37590  Biso   1.000  H
  C192     1.0000 0.31650  0.88540  0.33190  Biso   1.000  C
  C193     1.0000 0.31150  0.92950  0.36920  Biso   1.000  C
  H141     1.0000 0.27980  0.94720  0.37220  Biso   1.000  H
  C194     1.0000 0.35640  0.94640  0.40220  Biso   1.000  C
  H142     1.0000 0.35360  0.97480  0.42760  Biso   1.000  H
  C195     1.0000 0.40540  0.91960  0.39620  Biso   1.000  C
  C196     1.0000 0.40900  0.87900  0.35640  Biso   1.000  C
  H143     1.0000 0.44140  0.86400  0.34850  Biso   1.000  H
  C197     1.0000 0.36420  0.86010  0.32790  Biso   1.000  C
  H144     1.0000 0.36660  0.82970  0.30550  Biso   1.000  H
  C198     1.0000 0.45140  0.93920  0.43150  Biso   1.000  C
  C199     1.0000 0.90990  0.79230  0.25190  Biso   1.000  C
  N4       1.0000 0.68360  0.98320  0.00260  Biso   1.000  N
  O53      1.0000 0.96010  0.78010  0.34210  Biso   1.000  O
  O54      1.0000 0.05320  0.79390  0.40160  Biso   1.000  O
  O55      1.0000 0.14440  0.80180  0.33820  Biso   1.000  O
  O56      1.0000 0.14140  0.79070  0.22200  Biso   1.000  O
  O57      1.0000 0.04780  0.77570  0.15790  Biso   1.000  O
  O58      1.0000 0.95540  0.76910  0.22690  Biso   1.000  O
  O59      1.0000 0.61090  0.87630  0.44340  Biso   1.000  O
  O60      1.0000 0.65740  0.93910  0.48720  Biso   1.000  O
  Zn7      1.0000 0.61686  0.96017  0.97792  Biso   1.000  Zn
  Zn8      1.0000 0.55009  0.88301  0.05712  Biso   1.000  Zn
  C200     1.0000 0.05040  0.78520  0.28140  Biso   1.000  C
  Zn9      1.0000 0.50000  0.00000  0.53099  Biso   1.000  Zn
  Zn10     1.0000 0.50000  0.00000  0.03099  Biso   1.000  Zn
  C201     1.0000 0.13130  0.61180  0.36830  Biso   1.000  C
  C202     1.0000 0.18160  0.62230  0.34130  Biso   1.000  C
  C203     1.0000 0.20290  0.67640  0.34210  Biso   1.000  C
  H145     1.0000 0.18270  0.70080  0.36220  Biso   1.000  H
  C204     1.0000 0.25190  0.69730  0.31530  Biso   1.000  C
  H146     1.0000 0.26430  0.73130  0.31970  Biso   1.000  H
  C205     1.0000 0.26340  0.61100  0.28120  Biso   1.000  C
  H147     1.0000 0.28490  0.58730  0.26180  Biso   1.000  H
  C206     1.0000 0.21470  0.59170  0.30900  Biso   1.000  C
  H148     1.0000 0.20610  0.55650  0.30430  Biso   1.000  H
  C207     1.0000 0.59180  0.74120  0.36330  Biso   1.000  C
  H149     1.0000 0.59690  0.77680  0.34950  Biso   1.000  H
  H150     1.0000 0.58860  0.74270  0.40570  Biso   1.000  H
  C208     1.0000 0.64240  0.70910  0.34830  Biso   1.000  C
  H151     1.0000 0.67360  0.72610  0.36340  Biso   1.000  H
  H152     1.0000 0.64050  0.67380  0.36380  Biso   1.000  H
  C209     1.0000 0.60160  0.72750  0.07060  Biso   1.000  C
  H153     1.0000 0.60120  0.72300  0.02830  Biso   1.000  H
  H154     1.0000 0.60650  0.76420  0.07990  Biso   1.000  H
  C210     1.0000 0.51050  0.73730  0.07500  Biso   1.000  C
  H155     1.0000 0.50960  0.73500  0.03240  Biso   1.000  H
  H156     1.0000 0.51460  0.77370  0.08610  Biso   1.000  H
  C211     1.0000 0.68220  0.67720  0.19330  Biso   1.000  C
  C212     1.0000 0.68730  0.68480  0.25260  Biso   1.000  C
  C213     1.0000 0.81670  0.63270  0.29470  Biso   1.000  C
  C214     1.0000 0.84620  0.67020  0.32040  Biso   1.000  C
  H157     1.0000 0.83820  0.70540  0.31550  Biso   1.000  H
  C215     1.0000 0.88950  0.65490  0.35480  Biso   1.000  C
  H158     1.0000 0.90950  0.68040  0.37340  Biso   1.000  H
  C216     1.0000 0.90180  0.60660  0.36110  Biso   1.000  C
  C217     1.0000 0.87430  0.56700  0.33820  Biso   1.000  C
  H159     1.0000 0.88320  0.53220  0.34500  Biso   1.000  H
  C218     1.0000 0.83170  0.58070  0.30400  Biso   1.000  C
  H160     1.0000 0.81220  0.55420  0.28640  Biso   1.000  H
  C219     1.0000 0.94770  0.59680  0.38970  Biso   1.000  C
  C220     1.0000 0.22970  0.50850  0.46890  Biso   1.000  C
  O61      1.0000 0.06560  0.54370  0.45930  Biso   1.000  O
  O62      1.0000 0.10820  0.64150  0.39690  Biso   1.000  O
  O63      1.0000 0.11940  0.56090  0.35900  Biso   1.000  O
  O64      1.0000 0.99130  0.58810  0.08090  Biso   1.000  O
  O65      1.0000 0.94640  0.52790  0.03020  Biso   1.000  O
  O66      1.0000 0.98080  0.63160  0.41310  Biso   1.000  O
  O67      1.0000 0.96570  0.54910  0.40170  Biso   1.000  O
  S5       1.0000 0.28010  0.48450  0.45760  Biso   1.000  S
  K5       1.0000 0.55128  0.71780  0.22000  Biso   1.000  K
  C221     1.0000 0.27640  0.65780  0.28270  Biso   1.000  C
  C222     1.0000 0.32490  0.67010  0.24720  Biso   1.000  C
  C223     1.0000 0.36610  0.69050  0.27400  Biso   1.000  C
  H161     1.0000 0.36450  0.69310  0.31480  Biso   1.000  H
  C224     1.0000 0.40990  0.70130  0.18620  Biso   1.000  C
  C225     1.0000 0.37060  0.68330  0.15630  Biso   1.000  C
  H162     1.0000 0.36970  0.68350  0.11540  Biso   1.000  H
  C226     1.0000 0.33000  0.66360  0.19010  Biso   1.000  C
  C227     1.0000 0.28450  0.64440  0.15180  Biso   1.000  C
  C228     1.0000 0.23670  0.67220  0.15460  Biso   1.000  C
  H163     1.0000 0.23330  0.70230  0.17720  Biso   1.000  H
  C229     1.0000 0.19520  0.65260  0.12210  Biso   1.000  C
  H164     1.0000 0.16290  0.66880  0.12700  Biso   1.000  H
  C230     1.0000 0.19730  0.61430  0.08590  Biso   1.000  C
  C231     1.0000 0.24340  0.58630  0.08920  Biso   1.000  C
  H165     1.0000 0.24600  0.55550  0.06760  Biso   1.000  H
  C232     1.0000 0.28330  0.60030  0.12050  Biso   1.000  C
  H166     1.0000 0.31250  0.57870  0.12110  Biso   1.000  H
  C233     1.0000 0.15050  0.59640  0.04740  Biso   1.000  C
  C234     1.0000 0.45640  0.73020  0.33480  Biso   1.000  C
  H167     1.0000 0.42510  0.74720  0.34960  Biso   1.000  H
  H168     1.0000 0.45600  0.69420  0.34830  Biso   1.000  H
  C235     1.0000 0.50470  0.75790  0.36020  Biso   1.000  C
  H169     1.0000 0.50260  0.76030  0.40270  Biso   1.000  H
  H170     1.0000 0.50840  0.79280  0.34400  Biso   1.000  H
  C236     1.0000 0.64270  0.69380  0.09930  Biso   1.000  C
  H171     1.0000 0.67670  0.70330  0.08350  Biso   1.000  H
  H172     1.0000 0.63620  0.65760  0.08900  Biso   1.000  H
  C237     1.0000 0.46420  0.71640  0.09950  Biso   1.000  C
  H173     1.0000 0.46190  0.67980  0.08850  Biso   1.000  H
  H174     1.0000 0.43460  0.73420  0.08190  Biso   1.000  H
  C238     1.0000 0.72990  0.66890  0.28480  Biso   1.000  C
  H175     1.0000 0.73060  0.67370  0.32530  Biso   1.000  H
  C239     1.0000 0.77160  0.64560  0.25620  Biso   1.000  C
  C240     1.0000 0.77270  0.63720  0.19680  Biso   1.000  C
  C241     1.0000 0.72470  0.65090  0.16380  Biso   1.000  C
  H176     1.0000 0.72190  0.64260  0.12410  Biso   1.000  H
  C242     1.0000 0.81650  0.61460  0.16810  Biso   1.000  C
  C243     1.0000 0.81150  0.57050  0.13080  Biso   1.000  C
  H177     1.0000 0.77980  0.55280  0.12780  Biso   1.000  H
  C244     1.0000 0.85640  0.55360  0.09780  Biso   1.000  C
  H178     1.0000 0.85360  0.52520  0.07240  Biso   1.000  H
  C245     1.0000 0.90540  0.58040  0.10380  Biso   1.000  C
  C246     1.0000 0.90900  0.62100  0.14360  Biso   1.000  C
  H179     1.0000 0.94140  0.63600  0.15150  Biso   1.000  H
  C247     1.0000 0.86420  0.63990  0.17210  Biso   1.000  C
  H180     1.0000 0.86660  0.67030  0.19450  Biso   1.000  H
  C248     1.0000 0.95140  0.56080  0.06850  Biso   1.000  C
  C249     1.0000 0.40990  0.70770  0.24810  Biso   1.000  C
  N5       1.0000 0.18360  0.51680  0.49740  Biso   1.000  N
  O68      1.0000 0.46010  0.71990  0.15790  Biso   1.000  O
  O69      1.0000 0.55320  0.70610  0.09840  Biso   1.000  O
  O70      1.0000 0.64440  0.69820  0.16180  Biso   1.000  O
  O71      1.0000 0.64140  0.70930  0.27800  Biso   1.000  O
  O72      1.0000 0.54780  0.72430  0.34210  Biso   1.000  O
  O73      1.0000 0.45540  0.73090  0.27310  Biso   1.000  O
  O74      1.0000 0.11090  0.62370  0.05660  Biso   1.000  O
  O75      1.0000 0.15740  0.56090  0.01280  Biso   1.000  O
  Zn11     1.0000 0.11686  0.53983  0.52208  Biso   1.000  Zn
  Zn12     1.0000 0.05009  0.61699  0.44288  Biso   1.000  Zn
  C250     1.0000 0.55040  0.71480  0.21860  Biso   1.000  C
  C251     1.0000 0.86870  0.38820  0.36830  Biso   1.000  C
  C252     1.0000 0.81840  0.37770  0.34130  Biso   1.000  C
  C253     1.0000 0.79710  0.32360  0.34210  Biso   1.000  C
  H181     1.0000 0.81730  0.29920  0.36220  Biso   1.000  H
  C254     1.0000 0.74810  0.30270  0.31530  Biso   1.000  C
  H182     1.0000 0.73570  0.26870  0.31970  Biso   1.000  H
  C255     1.0000 0.73660  0.38900  0.28120  Biso   1.000  C
  H183     1.0000 0.71510  0.41270  0.26180  Biso   1.000  H
  C256     1.0000 0.78530  0.40830  0.30900  Biso   1.000  C
  H184     1.0000 0.79390  0.44350  0.30430  Biso   1.000  H
  C257     1.0000 0.40820  0.25880  0.36330  Biso   1.000  C
  H185     1.0000 0.40310  0.22320  0.34950  Biso   1.000  H
  H186     1.0000 0.41140  0.25730  0.40570  Biso   1.000  H
  C258     1.0000 0.35760  0.29090  0.34830  Biso   1.000  C
  H187     1.0000 0.32640  0.27390  0.36340  Biso   1.000  H
  H188     1.0000 0.35950  0.32620  0.36380  Biso   1.000  H
  C259     1.0000 0.39840  0.27250  0.07060  Biso   1.000  C
  H189     1.0000 0.39880  0.27700  0.02830  Biso   1.000  H
  H190     1.0000 0.39350  0.23580  0.07990  Biso   1.000  H
  C260     1.0000 0.48950  0.26270  0.07500  Biso   1.000  C
  H191     1.0000 0.49040  0.26500  0.03240  Biso   1.000  H
  H192     1.0000 0.48540  0.22630  0.08610  Biso   1.000  H
  C261     1.0000 0.31780  0.32280  0.19330  Biso   1.000  C
  C262     1.0000 0.31270  0.31520  0.25260  Biso   1.000  C
  C263     1.0000 0.18330  0.36730  0.29470  Biso   1.000  C
  C264     1.0000 0.15380  0.32980  0.32040  Biso   1.000  C
  H193     1.0000 0.16180  0.29460  0.31550  Biso   1.000  H
  C265     1.0000 0.11050  0.34510  0.35480  Biso   1.000  C
  H194     1.0000 0.09050  0.31960  0.37340  Biso   1.000  H
  C266     1.0000 0.09820  0.39340  0.36110  Biso   1.000  C
  C267     1.0000 0.12570  0.43300  0.33820  Biso   1.000  C
  H195     1.0000 0.11680  0.46780  0.34500  Biso   1.000  H
  C268     1.0000 0.16830  0.41930  0.30400  Biso   1.000  C
  H196     1.0000 0.18780  0.44580  0.28640  Biso   1.000  H
  C269     1.0000 0.05230  0.40320  0.38970  Biso   1.000  C
  C270     1.0000 0.77030  0.49150  0.46890  Biso   1.000  C
  O76      1.0000 0.93440  0.45630  0.45930  Biso   1.000  O
  O77      1.0000 0.89180  0.35850  0.39690  Biso   1.000  O
  O78      1.0000 0.88060  0.43910  0.35900  Biso   1.000  O
  O79      1.0000 0.00870  0.41190  0.08090  Biso   1.000  O
  O80      1.0000 0.05360  0.47210  0.03020  Biso   1.000  O
  O81      1.0000 0.01920  0.36840  0.41310  Biso   1.000  O
  O82      1.0000 0.03430  0.45090  0.40170  Biso   1.000  O
  S6       1.0000 0.71990  0.51550  0.45760  Biso   1.000  S
  K6       1.0000 0.44872  0.28220  0.22000  Biso   1.000  K
  C271     1.0000 0.72360  0.34220  0.28270  Biso   1.000  C
  C272     1.0000 0.67510  0.32990  0.24720  Biso   1.000  C
  C273     1.0000 0.63390  0.30950  0.27400  Biso   1.000  C
  H197     1.0000 0.63550  0.30690  0.31480  Biso   1.000  H
  C274     1.0000 0.59010  0.29870  0.18620  Biso   1.000  C
  C275     1.0000 0.62940  0.31670  0.15630  Biso   1.000  C
  H198     1.0000 0.63030  0.31650  0.11540  Biso   1.000  H
  C276     1.0000 0.67000  0.33640  0.19010  Biso   1.000  C
  C277     1.0000 0.71550  0.35560  0.15180  Biso   1.000  C
  C278     1.0000 0.76330  0.32780  0.15460  Biso   1.000  C
  H199     1.0000 0.76670  0.29770  0.17720  Biso   1.000  H
  C279     1.0000 0.80480  0.34740  0.12210  Biso   1.000  C
  H200     1.0000 0.83710  0.33120  0.12700  Biso   1.000  H
  C280     1.0000 0.80270  0.38570  0.08590  Biso   1.000  C
  C281     1.0000 0.75660  0.41370  0.08920  Biso   1.000  C
  H201     1.0000 0.75400  0.44450  0.06760  Biso   1.000  H
  C282     1.0000 0.71670  0.39970  0.12050  Biso   1.000  C
  H202     1.0000 0.68750  0.42130  0.12110  Biso   1.000  H
  C283     1.0000 0.84950  0.40360  0.04740  Biso   1.000  C
  C284     1.0000 0.54360  0.26980  0.33480  Biso   1.000  C
  H203     1.0000 0.57490  0.25280  0.34960  Biso   1.000  H
  H204     1.0000 0.54400  0.30580  0.34830  Biso   1.000  H
  C285     1.0000 0.49530  0.24210  0.36020  Biso   1.000  C
  H205     1.0000 0.49740  0.23970  0.40270  Biso   1.000  H
  H206     1.0000 0.49160  0.20720  0.34400  Biso   1.000  H
  C286     1.0000 0.35730  0.30620  0.09930  Biso   1.000  C
  H207     1.0000 0.32330  0.29670  0.08350  Biso   1.000  H
  H208     1.0000 0.36380  0.34240  0.08900  Biso   1.000  H
  C287     1.0000 0.53580  0.28360  0.09950  Biso   1.000  C
  H209     1.0000 0.53810  0.32020  0.08850  Biso   1.000  H
  H210     1.0000 0.56540  0.26580  0.08190  Biso   1.000  H
  C288     1.0000 0.27010  0.33110  0.28480  Biso   1.000  C
  H211     1.0000 0.26940  0.32630  0.32530  Biso   1.000  H
  C289     1.0000 0.22840  0.35440  0.25620  Biso   1.000  C
  C290     1.0000 0.22730  0.36280  0.19680  Biso   1.000  C
  C291     1.0000 0.27530  0.34910  0.16380  Biso   1.000  C
  H212     1.0000 0.27810  0.35740  0.12410  Biso   1.000  H
  C292     1.0000 0.18350  0.38540  0.16810  Biso   1.000  C
  C293     1.0000 0.18850  0.42950  0.13080  Biso   1.000  C
  H213     1.0000 0.22020  0.44720  0.12780  Biso   1.000  H
  C294     1.0000 0.14360  0.44640  0.09780  Biso   1.000  C
  H214     1.0000 0.14640  0.47480  0.07240  Biso   1.000  H
  C295     1.0000 0.09460  0.41960  0.10380  Biso   1.000  C
  C296     1.0000 0.09100  0.37900  0.14360  Biso   1.000  C
  H215     1.0000 0.05860  0.36400  0.15150  Biso   1.000  H
  C297     1.0000 0.13580  0.36010  0.17210  Biso   1.000  C
  H216     1.0000 0.13340  0.32970  0.19450  Biso   1.000  H
  C298     1.0000 0.04860  0.43920  0.06850  Biso   1.000  C
  C299     1.0000 0.59010  0.29230  0.24810  Biso   1.000  C
  N6       1.0000 0.81640  0.48320  0.49740  Biso   1.000  N
  O83      1.0000 0.53990  0.28010  0.15790  Biso   1.000  O
  O84      1.0000 0.44680  0.29390  0.09840  Biso   1.000  O
  O85      1.0000 0.35560  0.30180  0.16180  Biso   1.000  O
  O86      1.0000 0.35860  0.29070  0.27800  Biso   1.000  O
  O87      1.0000 0.45220  0.27570  0.34210  Biso   1.000  O
  O88      1.0000 0.54460  0.26910  0.27310  Biso   1.000  O
  O89      1.0000 0.88910  0.37630  0.05660  Biso   1.000  O
  O90      1.0000 0.84260  0.43910  0.01280  Biso   1.000  O
  Zn13     1.0000 0.88314  0.46017  0.52208  Biso   1.000  Zn
  Zn14     1.0000 0.94991  0.38301  0.44288  Biso   1.000  Zn
  C300     1.0000 0.44960  0.28520  0.21860  Biso   1.000  C
  C301     1.0000 0.11180  0.63130  0.86830  Biso   1.000  C
  C302     1.0000 0.12230  0.68160  0.84130  Biso   1.000  C
  C303     1.0000 0.17640  0.70290  0.84210  Biso   1.000  C
  H217     1.0000 0.20080  0.68270  0.86220  Biso   1.000  H
  C304     1.0000 0.19730  0.75190  0.81530  Biso   1.000  C
  H218     1.0000 0.23130  0.76430  0.81970  Biso   1.000  H
  C305     1.0000 0.11100  0.76340  0.78120  Biso   1.000  C
  H219     1.0000 0.08730  0.78490  0.76180  Biso   1.000  H
  C306     1.0000 0.09170  0.71470  0.80900  Biso   1.000  C
  H220     1.0000 0.05650  0.70610  0.80430  Biso   1.000  H
  C307     1.0000 0.24120  0.09180  0.86330  Biso   1.000  C
  H221     1.0000 0.27680  0.09690  0.84950  Biso   1.000  H
  H222     1.0000 0.24270  0.08860  0.90570  Biso   1.000  H
  C308     1.0000 0.20910  0.14240  0.84830  Biso   1.000  C
  H223     1.0000 0.22610  0.17360  0.86340  Biso   1.000  H
  H224     1.0000 0.17380  0.14050  0.86380  Biso   1.000  H
  C309     1.0000 0.22750  0.10160  0.57060  Biso   1.000  C
  H225     1.0000 0.22300  0.10120  0.52830  Biso   1.000  H
  H226     1.0000 0.26420  0.10650  0.57990  Biso   1.000  H
  C310     1.0000 0.23730  0.01050  0.57500  Biso   1.000  C
  H227     1.0000 0.23500  0.00960  0.53240  Biso   1.000  H
  H228     1.0000 0.27370  0.01460  0.58610  Biso   1.000  H
  C311     1.0000 0.17720  0.18220  0.69330  Biso   1.000  C
  C312     1.0000 0.18480  0.18730  0.75260  Biso   1.000  C
  C313     1.0000 0.13270  0.31670  0.79470  Biso   1.000  C
  C314     1.0000 0.17020  0.34620  0.82040  Biso   1.000  C
  H229     1.0000 0.20540  0.33820  0.81550  Biso   1.000  H
  C315     1.0000 0.15490  0.38950  0.85480  Biso   1.000  C
  H230     1.0000 0.18040  0.40950  0.87340  Biso   1.000  H
  C316     1.0000 0.10660  0.40180  0.86110  Biso   1.000  C
  C317     1.0000 0.06700  0.37430  0.83820  Biso   1.000  C
  H231     1.0000 0.03220  0.38320  0.84500  Biso   1.000  H
  C318     1.0000 0.08070  0.33170  0.80400  Biso   1.000  C
  H232     1.0000 0.05420  0.31220  0.78640  Biso   1.000  H
  C319     1.0000 0.09680  0.44770  0.88970  Biso   1.000  C
  C320     1.0000 0.00850  0.72970  0.96890  Biso   1.000  C
  O91      1.0000 0.04370  0.56560  0.95930  Biso   1.000  O
  O92      1.0000 0.14150  0.60820  0.89690  Biso   1.000  O
  O93      1.0000 0.06090  0.61940  0.85900  Biso   1.000  O
  O94      1.0000 0.08810  0.49130  0.58090  Biso   1.000  O
  O95      1.0000 0.02790  0.44640  0.53020  Biso   1.000  O
  O96      1.0000 0.13160  0.48080  0.91310  Biso   1.000  O
  O97      1.0000 0.04910  0.46570  0.90170  Biso   1.000  O
  S7       1.0000 0.98450  0.78010  0.95760  Biso   1.000  S
  K7       1.0000 0.21780  0.05128  0.72000  Biso   1.000  K
  C321     1.0000 0.15780  0.77640  0.78270  Biso   1.000  C
  C322     1.0000 0.17010  0.82490  0.74720  Biso   1.000  C
  C323     1.0000 0.19050  0.86610  0.77400  Biso   1.000  C
  H233     1.0000 0.19310  0.86450  0.81480  Biso   1.000  H
  C324     1.0000 0.20130  0.90990  0.68620  Biso   1.000  C
  C325     1.0000 0.18330  0.87060  0.65630  Biso   1.000  C
  H234     1.0000 0.18350  0.86970  0.61540  Biso   1.000  H
  C326     1.0000 0.16360  0.83000  0.69010  Biso   1.000  C
  C327     1.0000 0.14440  0.78450  0.65180  Biso   1.000  C
  C328     1.0000 0.17220  0.73670  0.65460  Biso   1.000  C
  H235     1.0000 0.20230  0.73330  0.67720  Biso   1.000  H
  C329     1.0000 0.15260  0.69520  0.62210  Biso   1.000  C
  H236     1.0000 0.16880  0.66290  0.62700  Biso   1.000  H
  C330     1.0000 0.11430  0.69730  0.58590  Biso   1.000  C
  C331     1.0000 0.08630  0.74340  0.58920  Biso   1.000  C
  H237     1.0000 0.05550  0.74600  0.56760  Biso   1.000  H
  C332     1.0000 0.10030  0.78330  0.62050  Biso   1.000  C
  H238     1.0000 0.07870  0.81250  0.62110  Biso   1.000  H
  C333     1.0000 0.09640  0.65050  0.54740  Biso   1.000  C
  C334     1.0000 0.23020  0.95640  0.83480  Biso   1.000  C
  H239     1.0000 0.24720  0.92510  0.84960  Biso   1.000  H
  H240     1.0000 0.19420  0.95600  0.84830  Biso   1.000  H
  C335     1.0000 0.25790  0.00470  0.86020  Biso   1.000  C
  H241     1.0000 0.26030  0.00260  0.90270  Biso   1.000  H
  H242     1.0000 0.29280  0.00840  0.84400  Biso   1.000  H
  C336     1.0000 0.19380  0.14270  0.59930  Biso   1.000  C
  H243     1.0000 0.20330  0.17670  0.58350  Biso   1.000  H
  H244     1.0000 0.15760  0.13620  0.58900  Biso   1.000  H
  C337     1.0000 0.21640  0.96420  0.59950  Biso   1.000  C
  H245     1.0000 0.17980  0.96190  0.58850  Biso   1.000  H
  H246     1.0000 0.23420  0.93460  0.58190  Biso   1.000  H
  C338     1.0000 0.16890  0.22990  0.78480  Biso   1.000  C
  H247     1.0000 0.17370  0.23060  0.82530  Biso   1.000  H
  C339     1.0000 0.14560  0.27160  0.75620  Biso   1.000  C
  C340     1.0000 0.13720  0.27270  0.69680  Biso   1.000  C
  C341     1.0000 0.15090  0.22470  0.66380  Biso   1.000  C
  H248     1.0000 0.14260  0.22190  0.62410  Biso   1.000  H
  C342     1.0000 0.11460  0.31650  0.66810  Biso   1.000  C
  C343     1.0000 0.07050  0.31150  0.63080  Biso   1.000  C
  H249     1.0000 0.05280  0.27980  0.62780  Biso   1.000  H
  C344     1.0000 0.05360  0.35640  0.59780  Biso   1.000  C
  H250     1.0000 0.02520  0.35360  0.57240  Biso   1.000  H
  C345     1.0000 0.08040  0.40540  0.60380  Biso   1.000  C
  C346     1.0000 0.12100  0.40900  0.64360  Biso   1.000  C
  H251     1.0000 0.13600  0.44140  0.65150  Biso   1.000  H
  C347     1.0000 0.13990  0.36420  0.67210  Biso   1.000  C
  H252     1.0000 0.17030  0.36660  0.69450  Biso   1.000  H
  C348     1.0000 0.06080  0.45140  0.56850  Biso   1.000  C
  C349     1.0000 0.20770  0.90990  0.74810  Biso   1.000  C
  N7       1.0000 0.01680  0.68360  0.99740  Biso   1.000  N
  O98      1.0000 0.21990  0.96010  0.65790  Biso   1.000  O
  O99      1.0000 0.20610  0.05320  0.59840  Biso   1.000  O
  O100     1.0000 0.19820  0.14440  0.66180  Biso   1.000  O
  O101     1.0000 0.20930  0.14140  0.77800  Biso   1.000  O
  O102     1.0000 0.22430  0.04780  0.84210  Biso   1.000  O
  O103     1.0000 0.23090  0.95540  0.77310  Biso   1.000  O
  O104     1.0000 0.12370  0.61090  0.55660  Biso   1.000  O
  O105     1.0000 0.06090  0.65740  0.51280  Biso   1.000  O
  Zn15     1.0000 0.03983  0.61686  0.02208  Biso   1.000  Zn
  Zn16     1.0000 0.11699  0.55009  0.94288  Biso   1.000  Zn
  C350     1.0000 0.21480  0.05040  0.71860  Biso   1.000  C
  C351     1.0000 0.88820  0.36870  0.86830  Biso   1.000  C
  C352     1.0000 0.87770  0.31840  0.84130  Biso   1.000  C
  C353     1.0000 0.82360  0.29710  0.84210  Biso   1.000  C
  H253     1.0000 0.79920  0.31730  0.86220  Biso   1.000  H
  C354     1.0000 0.80270  0.24810  0.81530  Biso   1.000  C
  H254     1.0000 0.76870  0.23570  0.81970  Biso   1.000  H
  C355     1.0000 0.88900  0.23660  0.78120  Biso   1.000  C
  H255     1.0000 0.91270  0.21510  0.76180  Biso   1.000  H
  C356     1.0000 0.90830  0.28530  0.80900  Biso   1.000  C
  H256     1.0000 0.94350  0.29390  0.80430  Biso   1.000  H
  C357     1.0000 0.75880  0.90820  0.86330  Biso   1.000  C
  H257     1.0000 0.72320  0.90310  0.84950  Biso   1.000  H
  H258     1.0000 0.75730  0.91140  0.90570  Biso   1.000  H
  C358     1.0000 0.79090  0.85760  0.84830  Biso   1.000  C
  H259     1.0000 0.77390  0.82640  0.86340  Biso   1.000  H
  H260     1.0000 0.82620  0.85950  0.86380  Biso   1.000  H
  C359     1.0000 0.77250  0.89840  0.57060  Biso   1.000  C
  H261     1.0000 0.77700  0.89880  0.52830  Biso   1.000  H
  H262     1.0000 0.73580  0.89350  0.57990  Biso   1.000  H
  C360     1.0000 0.76270  0.98950  0.57500  Biso   1.000  C
  H263     1.0000 0.76500  0.99040  0.53240  Biso   1.000  H
  H264     1.0000 0.72630  0.98540  0.58610  Biso   1.000  H
  C361     1.0000 0.82280  0.81780  0.69330  Biso   1.000  C
  C362     1.0000 0.81520  0.81270  0.75260  Biso   1.000  C
  C363     1.0000 0.86730  0.68330  0.79470  Biso   1.000  C
  C364     1.0000 0.82980  0.65380  0.82040  Biso   1.000  C
  H265     1.0000 0.79460  0.66180  0.81550  Biso   1.000  H
  C365     1.0000 0.84510  0.61050  0.85480  Biso   1.000  C
  H266     1.0000 0.81960  0.59050  0.87340  Biso   1.000  H
  C366     1.0000 0.89340  0.59820  0.86110  Biso   1.000  C
  C367     1.0000 0.93300  0.62570  0.83820  Biso   1.000  C
  H267     1.0000 0.96780  0.61680  0.84500  Biso   1.000  H
  C368     1.0000 0.91930  0.66830  0.80400  Biso   1.000  C
  H268     1.0000 0.94580  0.68780  0.78640  Biso   1.000  H
  C369     1.0000 0.90320  0.55230  0.88970  Biso   1.000  C
  C370     1.0000 0.99150  0.27030  0.96890  Biso   1.000  C
  O106     1.0000 0.95630  0.43440  0.95930  Biso   1.000  O
  O107     1.0000 0.85850  0.39180  0.89690  Biso   1.000  O
  O108     1.0000 0.93910  0.38060  0.85900  Biso   1.000  O
  O109     1.0000 0.91190  0.50870  0.58090  Biso   1.000  O
  O110     1.0000 0.97210  0.55360  0.53020  Biso   1.000  O
  O111     1.0000 0.86840  0.51920  0.91310  Biso   1.000  O
  O112     1.0000 0.95090  0.53430  0.90170  Biso   1.000  O
  S8       1.0000 0.01550  0.21990  0.95760  Biso   1.000  S
  K8       1.0000 0.78220  0.94872  0.72000  Biso   1.000  K
  C371     1.0000 0.84220  0.22360  0.78270  Biso   1.000  C
  C372     1.0000 0.82990  0.17510  0.74720  Biso   1.000  C
  C373     1.0000 0.80950  0.13390  0.77400  Biso   1.000  C
  H269     1.0000 0.80690  0.13550  0.81480  Biso   1.000  H
  C374     1.0000 0.79870  0.09010  0.68620  Biso   1.000  C
  C375     1.0000 0.81670  0.12940  0.65630  Biso   1.000  C
  H270     1.0000 0.81650  0.13030  0.61540  Biso   1.000  H
  C376     1.0000 0.83640  0.17000  0.69010  Biso   1.000  C
  C377     1.0000 0.85560  0.21550  0.65180  Biso   1.000  C
  C378     1.0000 0.82780  0.26330  0.65460  Biso   1.000  C
  H271     1.0000 0.79770  0.26670  0.67720  Biso   1.000  H
  C379     1.0000 0.84740  0.30480  0.62210  Biso   1.000  C
  H272     1.0000 0.83120  0.33710  0.62700  Biso   1.000  H
  C380     1.0000 0.88570  0.30270  0.58590  Biso   1.000  C
  C381     1.0000 0.91370  0.25660  0.58920  Biso   1.000  C
  H273     1.0000 0.94450  0.25400  0.56760  Biso   1.000  H
  C382     1.0000 0.89970  0.21670  0.62050  Biso   1.000  C
  H274     1.0000 0.92130  0.18750  0.62110  Biso   1.000  H
  C383     1.0000 0.90360  0.34950  0.54740  Biso   1.000  C
  C384     1.0000 0.76980  0.04360  0.83480  Biso   1.000  C
  H275     1.0000 0.75280  0.07490  0.84960  Biso   1.000  H
  H276     1.0000 0.80580  0.04400  0.84830  Biso   1.000  H
  C385     1.0000 0.74210  0.99530  0.86020  Biso   1.000  C
  H277     1.0000 0.73970  0.99740  0.90270  Biso   1.000  H
  H278     1.0000 0.70720  0.99160  0.84400  Biso   1.000  H
  C386     1.0000 0.80620  0.85730  0.59930  Biso   1.000  C
  H279     1.0000 0.79670  0.82330  0.58350  Biso   1.000  H
  H280     1.0000 0.84240  0.86380  0.58900  Biso   1.000  H
  C387     1.0000 0.78360  0.03580  0.59950  Biso   1.000  C
  H281     1.0000 0.82020  0.03810  0.58850  Biso   1.000  H
  H282     1.0000 0.76580  0.06540  0.58190  Biso   1.000  H
  C388     1.0000 0.83110  0.77010  0.78480  Biso   1.000  C
  H283     1.0000 0.82630  0.76940  0.82530  Biso   1.000  H
  C389     1.0000 0.85440  0.72840  0.75620  Biso   1.000  C
  C390     1.0000 0.86280  0.72730  0.69680  Biso   1.000  C
  C391     1.0000 0.84910  0.77530  0.66380  Biso   1.000  C
  H284     1.0000 0.85740  0.77810  0.62410  Biso   1.000  H
  C392     1.0000 0.88540  0.68350  0.66810  Biso   1.000  C
  C393     1.0000 0.92950  0.68850  0.63080  Biso   1.000  C
  H285     1.0000 0.94720  0.72020  0.62780  Biso   1.000  H
  C394     1.0000 0.94640  0.64360  0.59780  Biso   1.000  C
  H286     1.0000 0.97480  0.64640  0.57240  Biso   1.000  H
  C395     1.0000 0.91960  0.59460  0.60380  Biso   1.000  C
  C396     1.0000 0.87900  0.59100  0.64360  Biso   1.000  C
  H287     1.0000 0.86400  0.55860  0.65150  Biso   1.000  H
  C397     1.0000 0.86010  0.63580  0.67210  Biso   1.000  C
  H288     1.0000 0.82970  0.63340  0.69450  Biso   1.000  H
  C398     1.0000 0.93920  0.54860  0.56850  Biso   1.000  C
  C399     1.0000 0.79230  0.09010  0.74810  Biso   1.000  C
  N8       1.0000 0.98320  0.31640  0.99740  Biso   1.000  N
  O113     1.0000 0.78010  0.03990  0.65790  Biso   1.000  O
  O114     1.0000 0.79390  0.94680  0.59840  Biso   1.000  O
  O115     1.0000 0.80180  0.85560  0.66180  Biso   1.000  O
  O116     1.0000 0.79070  0.85860  0.77800  Biso   1.000  O
  O117     1.0000 0.77570  0.95220  0.84210  Biso   1.000  O
  O118     1.0000 0.76910  0.04460  0.77310  Biso   1.000  O
  O119     1.0000 0.87630  0.38910  0.55660  Biso   1.000  O
  O120     1.0000 0.93910  0.34260  0.51280  Biso   1.000  O
  Zn17     1.0000 0.96017  0.38314  0.02208  Biso   1.000  Zn
  Zn18     1.0000 0.88301  0.44991  0.94288  Biso   1.000  Zn
  C400     1.0000 0.78520  0.94960  0.71860  Biso   1.000  C
  Zn19     1.0000 0.00000  0.50000  0.46901  Biso   1.000  Zn
  Zn20     1.0000 0.00000  0.50000  0.96901  Biso   1.000  Zn
