data_image0
_cell_length_a       18.473
_cell_length_b       18.473
_cell_length_c       52.11
_cell_angle_alpha    90
_cell_angle_beta     90
_cell_angle_gamma    120

_symmetry_space_group_name_H-M    "P 1"
_symmetry_int_tables_number       1

loop_
  _symmetry_equiv_pos_as_xyz
  'x, y, z'

loop_
  _atom_site_label
  _atom_site_occupancy
  _atom_site_fract_x
  _atom_site_fract_y
  _atom_site_fract_z
  _atom_site_thermal_displace_type
  _atom_site_B_iso_or_equiv
  _atom_site_type_symbol
  Cu1      1.0000 0.47545  0.95077  0.02074  Biso   1.000  Cu
  O1       1.0000 0.11080  0.62720  0.00202  Biso   1.000  O
  O2       1.0000 0.02700  0.58700  0.96715  Biso   1.000  O
  O3       1.0000 0.37210  0.88900  0.00189  Biso   1.000  O
  O4       1.0000 0.41390  0.97260  0.96692  Biso   1.000  O
  C1       1.0000 0.35810  0.90760  0.97927  Biso   1.000  C
  C2       1.0000 0.28060  0.84970  0.96671  Biso   1.000  C
  C3       1.0000 0.21710  0.78320  0.97935  Biso   1.000  C
  H1       1.0000 0.21970  0.78110  0.99710  Biso   1.000  H
  C4       1.0000 0.26660  0.86220  0.94102  Biso   1.000  C
  H2       1.0000 0.30760  0.90790  0.93210  Biso   1.000  H
  C5       1.0000 0.19220  0.80720  0.92878  Biso   1.000  C
  C6       1.0000 0.18240  0.81620  0.90116  Biso   1.000  C
  C7       1.0000 0.10690  0.80640  0.89060  Biso   1.000  C
  C8       1.0000 0.10210  0.81440  0.86390  Biso   1.000  C
  H3       1.0000 0.05360  0.80940  0.85680  Biso   1.000  H
  C9       1.0000 0.16930  0.83000  0.84797  Biso   1.000  C
  C10      1.0000 0.24450  0.84300  0.85850  Biso   1.000  C
  C11      1.0000 0.24750  0.82790  0.88440  Biso   1.000  C
  H4       1.0000 0.29310  0.82540  0.89090  Biso   1.000  H
  C12      1.0000 0.03270  0.79440  0.90830  Biso   1.000  C
  H5       1.0000 0.04590  0.79050  0.92590  Biso   1.000  H
  H6       1.0000 0.98270  0.74410  0.90350  Biso   1.000  H
  H7       1.0000 0.02430  0.84140  0.90630  Biso   1.000  H
  C13      1.0000 0.32010  0.86810  0.84140  Biso   1.000  C
  H8       1.0000 0.30600  0.87240  0.82400  Biso   1.000  H
  H9       1.0000 0.33690  0.82670  0.84260  Biso   1.000  H
  H10      1.0000 0.36530  0.92120  0.84700  Biso   1.000  H
  C14      1.0000 0.09180  0.64140  0.97946  Biso   1.000  C
  C15      1.0000 0.14890  0.71890  0.96671  Biso   1.000  C
  C16      1.0000 0.13660  0.73400  0.94082  Biso   1.000  C
  H11      1.0000 0.09030  0.69390  0.93190  Biso   1.000  H
  C17      1.0000 0.21280  0.96830  0.90870  Biso   1.000  C
  H12      1.0000 0.21650  0.95380  0.92620  Biso   1.000  H
  H13      1.0000 0.16830  0.98070  0.90720  Biso   1.000  H
  H14      1.0000 0.26460  0.01640  0.90380  Biso   1.000  H
  C18      1.0000 0.19450  0.89260  0.89060  Biso   1.000  C
  H15      1.0000 0.12400  0.69650  0.82300  Biso   1.000  H
  H16      1.0000 0.07770  0.63390  0.84550  Biso   1.000  H
  H17      1.0000 0.17240  0.66530  0.84020  Biso   1.000  H
  C19      1.0000 0.15450  0.75460  0.85840  Biso   1.000  C
  C20      1.0000 0.16920  0.75070  0.88460  Biso   1.000  C
  H18      1.0000 0.17020  0.70430  0.89110  Biso   1.000  H
  C21      1.0000 0.18690  0.89830  0.86400  Biso   1.000  C
  H19      1.0000 0.19360  0.94750  0.85690  Biso   1.000  H
  C22      1.0000 0.12980  0.68060  0.84000  Biso   1.000  C
  Cu2      1.0000 0.14212  0.28410  0.35407  Biso   1.000  Cu
  O5       1.0000 0.77747  0.96053  0.33535  Biso   1.000  O
  O6       1.0000 0.69367  0.92033  0.30048  Biso   1.000  O
  O7       1.0000 0.03877  0.22233  0.33522  Biso   1.000  O
  O8       1.0000 0.08057  0.30593  0.30025  Biso   1.000  O
  C23      1.0000 0.02477  0.24093  0.31260  Biso   1.000  C
  C24      1.0000 0.94727  0.18303  0.30004  Biso   1.000  C
  C25      1.0000 0.88377  0.11653  0.31268  Biso   1.000  C
  H20      1.0000 0.88637  0.11443  0.33043  Biso   1.000  H
  C26      1.0000 0.93327  0.19553  0.27435  Biso   1.000  C
  H21      1.0000 0.97427  0.24123  0.26543  Biso   1.000  H
  C27      1.0000 0.85887  0.14053  0.26211  Biso   1.000  C
  C28      1.0000 0.84907  0.14953  0.23449  Biso   1.000  C
  C29      1.0000 0.77357  0.13973  0.22393  Biso   1.000  C
  C30      1.0000 0.76877  0.14773  0.19723  Biso   1.000  C
  H22      1.0000 0.72027  0.14273  0.19013  Biso   1.000  H
  C31      1.0000 0.83597  0.16333  0.18130  Biso   1.000  C
  C32      1.0000 0.91117  0.17633  0.19183  Biso   1.000  C
  C33      1.0000 0.91417  0.16123  0.21773  Biso   1.000  C
  H23      1.0000 0.95977  0.15873  0.22423  Biso   1.000  H
  C34      1.0000 0.69937  0.12773  0.24163  Biso   1.000  C
  H24      1.0000 0.71257  0.12383  0.25923  Biso   1.000  H
  H25      1.0000 0.64937  0.07743  0.23683  Biso   1.000  H
  H26      1.0000 0.69097  0.17473  0.23963  Biso   1.000  H
  C35      1.0000 0.98677  0.20143  0.17473  Biso   1.000  C
  H27      1.0000 0.97267  0.20573  0.15733  Biso   1.000  H
  H28      1.0000 0.00357  0.16003  0.17593  Biso   1.000  H
  H29      1.0000 0.03197  0.25453  0.18033  Biso   1.000  H
  C36      1.0000 0.75847  0.97473  0.31279  Biso   1.000  C
  C37      1.0000 0.81557  0.05223  0.30004  Biso   1.000  C
  C38      1.0000 0.80327  0.06733  0.27415  Biso   1.000  C
  H30      1.0000 0.75697  0.02723  0.26523  Biso   1.000  H
  C39      1.0000 0.87947  0.30163  0.24203  Biso   1.000  C
  H31      1.0000 0.88317  0.28713  0.25953  Biso   1.000  H
  H32      1.0000 0.83497  0.31403  0.24053  Biso   1.000  H
  H33      1.0000 0.93127  0.34973  0.23713  Biso   1.000  H
  C40      1.0000 0.86117  0.22593  0.22393  Biso   1.000  C
  H34      1.0000 0.79067  0.02983  0.15633  Biso   1.000  H
  H35      1.0000 0.74437  0.96723  0.17883  Biso   1.000  H
  H36      1.0000 0.83907  0.99863  0.17353  Biso   1.000  H
  C41      1.0000 0.82117  0.08793  0.19173  Biso   1.000  C
  C42      1.0000 0.83587  0.08403  0.21793  Biso   1.000  C
  H37      1.0000 0.83687  0.03763  0.22443  Biso   1.000  H
  C43      1.0000 0.85357  0.23163  0.19733  Biso   1.000  C
  H38      1.0000 0.86027  0.28083  0.19023  Biso   1.000  H
  C44      1.0000 0.79647  0.01393  0.17333  Biso   1.000  C
  Cu3      1.0000 0.80878  0.61744  0.68740  Biso   1.000  Cu
  O9       1.0000 0.44413  0.29387  0.66869  Biso   1.000  O
  O10      1.0000 0.36033  0.25367  0.63382  Biso   1.000  O
  O11      1.0000 0.70543  0.55567  0.66856  Biso   1.000  O
  O12      1.0000 0.74723  0.63927  0.63359  Biso   1.000  O
  C45      1.0000 0.69143  0.57427  0.64594  Biso   1.000  C
  C46      1.0000 0.61393  0.51637  0.63338  Biso   1.000  C
  C47      1.0000 0.55043  0.44987  0.64602  Biso   1.000  C
  H39      1.0000 0.55303  0.44777  0.66377  Biso   1.000  H
  C48      1.0000 0.59993  0.52887  0.60769  Biso   1.000  C
  H40      1.0000 0.64093  0.57457  0.59877  Biso   1.000  H
  C49      1.0000 0.52553  0.47387  0.59545  Biso   1.000  C
  C50      1.0000 0.51573  0.48287  0.56783  Biso   1.000  C
  C51      1.0000 0.44023  0.47307  0.55727  Biso   1.000  C
  C52      1.0000 0.43543  0.48107  0.53057  Biso   1.000  C
  H41      1.0000 0.38693  0.47607  0.52347  Biso   1.000  H
  C53      1.0000 0.50263  0.49667  0.51464  Biso   1.000  C
  C54      1.0000 0.57783  0.50967  0.52517  Biso   1.000  C
  C55      1.0000 0.58083  0.49457  0.55107  Biso   1.000  C
  H42      1.0000 0.62643  0.49207  0.55757  Biso   1.000  H
  C56      1.0000 0.36603  0.46107  0.57497  Biso   1.000  C
  H43      1.0000 0.37923  0.45717  0.59257  Biso   1.000  H
  H44      1.0000 0.31603  0.41077  0.57017  Biso   1.000  H
  H45      1.0000 0.35763  0.50807  0.57297  Biso   1.000  H
  C57      1.0000 0.65343  0.53477  0.50807  Biso   1.000  C
  H46      1.0000 0.63933  0.53907  0.49067  Biso   1.000  H
  H47      1.0000 0.67023  0.49337  0.50927  Biso   1.000  H
  H48      1.0000 0.69863  0.58787  0.51367  Biso   1.000  H
  C58      1.0000 0.42513  0.30807  0.64613  Biso   1.000  C
  C59      1.0000 0.48223  0.38557  0.63338  Biso   1.000  C
  C60      1.0000 0.46993  0.40067  0.60749  Biso   1.000  C
  H49      1.0000 0.42363  0.36057  0.59857  Biso   1.000  H
  C61      1.0000 0.54613  0.63497  0.57537  Biso   1.000  C
  H50      1.0000 0.54983  0.62047  0.59287  Biso   1.000  H
  H51      1.0000 0.50163  0.64737  0.57387  Biso   1.000  H
  H52      1.0000 0.59793  0.68307  0.57047  Biso   1.000  H
  C62      1.0000 0.52783  0.55927  0.55727  Biso   1.000  C
  H53      1.0000 0.45733  0.36317  0.48967  Biso   1.000  H
  H54      1.0000 0.41103  0.30057  0.51217  Biso   1.000  H
  H55      1.0000 0.50573  0.33197  0.50687  Biso   1.000  H
  C63      1.0000 0.48783  0.42127  0.52507  Biso   1.000  C
  C64      1.0000 0.50253  0.41737  0.55127  Biso   1.000  C
  H56      1.0000 0.50353  0.37097  0.55777  Biso   1.000  H
  C65      1.0000 0.52023  0.56497  0.53067  Biso   1.000  C
  H57      1.0000 0.52693  0.61417  0.52357  Biso   1.000  H
  C66      1.0000 0.46313  0.34727  0.50667  Biso   1.000  C
  Cu4      1.0000 0.04923  0.52468  0.02074  Biso   1.000  Cu
  O13      1.0000 0.37280  0.48360  0.00202  Biso   1.000  O
  O14      1.0000 0.41300  0.44000  0.96715  Biso   1.000  O
  O15      1.0000 0.11100  0.48310  0.00189  Biso   1.000  O
  O16      1.0000 0.02740  0.44130  0.96692  Biso   1.000  O
  C67      1.0000 0.09240  0.45050  0.97927  Biso   1.000  C
  C68      1.0000 0.15030  0.43090  0.96671  Biso   1.000  C
  C69      1.0000 0.21680  0.43390  0.97935  Biso   1.000  C
  H58      1.0000 0.21890  0.43860  0.99710  Biso   1.000  H
  C70      1.0000 0.13780  0.40440  0.94102  Biso   1.000  C
  H59      1.0000 0.09210  0.39970  0.93210  Biso   1.000  H
  C71      1.0000 0.19280  0.38500  0.92878  Biso   1.000  C
  C72      1.0000 0.18380  0.36620  0.90116  Biso   1.000  C
  C73      1.0000 0.19360  0.30050  0.89060  Biso   1.000  C
  C74      1.0000 0.18560  0.28770  0.86390  Biso   1.000  C
  H60      1.0000 0.19060  0.24420  0.85680  Biso   1.000  H
  C75      1.0000 0.17000  0.33930  0.84797  Biso   1.000  C
  C76      1.0000 0.15700  0.40150  0.85850  Biso   1.000  C
  C77      1.0000 0.17210  0.41960  0.88440  Biso   1.000  C
  H61      1.0000 0.17460  0.46770  0.89090  Biso   1.000  H
  C78      1.0000 0.20560  0.23830  0.90830  Biso   1.000  C
  H62      1.0000 0.20950  0.25540  0.92590  Biso   1.000  H
  H63      1.0000 0.25590  0.23860  0.90350  Biso   1.000  H
  H64      1.0000 0.15860  0.18290  0.90630  Biso   1.000  H
  C79      1.0000 0.13190  0.45200  0.84140  Biso   1.000  C
  H65      1.0000 0.12760  0.43360  0.82400  Biso   1.000  H
  H66      1.0000 0.17330  0.51020  0.84260  Biso   1.000  H
  H67      1.0000 0.07880  0.44410  0.84700  Biso   1.000  H
  C80      1.0000 0.35860  0.45040  0.97946  Biso   1.000  C
  C81      1.0000 0.28110  0.43000  0.96671  Biso   1.000  C
  C82      1.0000 0.26600  0.40260  0.94082  Biso   1.000  C
  H68      1.0000 0.30610  0.39640  0.93190  Biso   1.000  H
  C83      1.0000 0.03170  0.24450  0.90870  Biso   1.000  C
  H69      1.0000 0.04620  0.26270  0.92620  Biso   1.000  H
  H70      1.0000 0.01930  0.18760  0.90720  Biso   1.000  H
  H71      1.0000 0.98360  0.24820  0.90380  Biso   1.000  H
  C84      1.0000 0.10740  0.30190  0.89060  Biso   1.000  C
  H72      1.0000 0.30350  0.42750  0.82300  Biso   1.000  H
  H73      1.0000 0.36610  0.44380  0.84550  Biso   1.000  H
  H74      1.0000 0.33470  0.50710  0.84020  Biso   1.000  H
  C85      1.0000 0.24540  0.39990  0.85840  Biso   1.000  C
  C86      1.0000 0.24930  0.41850  0.88460  Biso   1.000  C
  H75      1.0000 0.29570  0.46590  0.89110  Biso   1.000  H
  C87      1.0000 0.10170  0.28860  0.86400  Biso   1.000  C
  H76      1.0000 0.05250  0.24610  0.85690  Biso   1.000  H
  C88      1.0000 0.31940  0.44920  0.84000  Biso   1.000  C
  Cu5      1.0000 0.71590  0.85801  0.35407  Biso   1.000  Cu
  O17      1.0000 0.03947  0.81693  0.33535  Biso   1.000  O
  O18      1.0000 0.07967  0.77333  0.30048  Biso   1.000  O
  O19      1.0000 0.77767  0.81643  0.33522  Biso   1.000  O
  O20      1.0000 0.69407  0.77463  0.30025  Biso   1.000  O
  C89      1.0000 0.75907  0.78383  0.31260  Biso   1.000  C
  C90      1.0000 0.81697  0.76423  0.30004  Biso   1.000  C
  C91      1.0000 0.88347  0.76723  0.31268  Biso   1.000  C
  H77      1.0000 0.88557  0.77193  0.33043  Biso   1.000  H
  C92      1.0000 0.80447  0.73773  0.27435  Biso   1.000  C
  H78      1.0000 0.75877  0.73303  0.26543  Biso   1.000  H
  C93      1.0000 0.85947  0.71833  0.26211  Biso   1.000  C
  C94      1.0000 0.85047  0.69953  0.23449  Biso   1.000  C
  C95      1.0000 0.86027  0.63383  0.22393  Biso   1.000  C
  C96      1.0000 0.85227  0.62103  0.19723  Biso   1.000  C
  H79      1.0000 0.85727  0.57753  0.19013  Biso   1.000  H
  C97      1.0000 0.83667  0.67263  0.18130  Biso   1.000  C
  C98      1.0000 0.82367  0.73483  0.19183  Biso   1.000  C
  C99      1.0000 0.83877  0.75293  0.21773  Biso   1.000  C
  H80      1.0000 0.84127  0.80103  0.22423  Biso   1.000  H
  C100     1.0000 0.87227  0.57163  0.24163  Biso   1.000  C
  H81      1.0000 0.87617  0.58873  0.25923  Biso   1.000  H
  H82      1.0000 0.92257  0.57193  0.23683  Biso   1.000  H
  H83      1.0000 0.82527  0.51623  0.23963  Biso   1.000  H
  C101     1.0000 0.79857  0.78533  0.17473  Biso   1.000  C
  H84      1.0000 0.79427  0.76693  0.15733  Biso   1.000  H
  H85      1.0000 0.83997  0.84353  0.17593  Biso   1.000  H
  H86      1.0000 0.74547  0.77743  0.18033  Biso   1.000  H
  C102     1.0000 0.02527  0.78373  0.31279  Biso   1.000  C
  C103     1.0000 0.94777  0.76333  0.30004  Biso   1.000  C
  C104     1.0000 0.93267  0.73593  0.27415  Biso   1.000  C
  H87      1.0000 0.97277  0.72973  0.26523  Biso   1.000  H
  C105     1.0000 0.69837  0.57783  0.24203  Biso   1.000  C
  H88      1.0000 0.71287  0.59603  0.25953  Biso   1.000  H
  H89      1.0000 0.68597  0.52093  0.24053  Biso   1.000  H
  H90      1.0000 0.65027  0.58153  0.23713  Biso   1.000  H
  C106     1.0000 0.77407  0.63523  0.22393  Biso   1.000  C
  H91      1.0000 0.97017  0.76083  0.15633  Biso   1.000  H
  H92      1.0000 0.03277  0.77713  0.17883  Biso   1.000  H
  H93      1.0000 0.00137  0.84043  0.17353  Biso   1.000  H
  C107     1.0000 0.91207  0.73323  0.19173  Biso   1.000  C
  C108     1.0000 0.91597  0.75183  0.21793  Biso   1.000  C
  H94      1.0000 0.96237  0.79923  0.22443  Biso   1.000  H
  C109     1.0000 0.76837  0.62193  0.19733  Biso   1.000  C
  H95      1.0000 0.71917  0.57943  0.19023  Biso   1.000  H
  C110     1.0000 0.98607  0.78253  0.17333  Biso   1.000  C
  Cu6      1.0000 0.38256  0.19135  0.68740  Biso   1.000  Cu
  O21      1.0000 0.70613  0.15027  0.66869  Biso   1.000  O
  O22      1.0000 0.74633  0.10667  0.63382  Biso   1.000  O
  O23      1.0000 0.44433  0.14977  0.66856  Biso   1.000  O
  O24      1.0000 0.36073  0.10797  0.63359  Biso   1.000  O
  C111     1.0000 0.42573  0.11717  0.64594  Biso   1.000  C
  C112     1.0000 0.48363  0.09757  0.63338  Biso   1.000  C
  C113     1.0000 0.55013  0.10057  0.64602  Biso   1.000  C
  H96      1.0000 0.55223  0.10527  0.66377  Biso   1.000  H
  C114     1.0000 0.47113  0.07107  0.60769  Biso   1.000  C
  H97      1.0000 0.42543  0.06637  0.59877  Biso   1.000  H
  C115     1.0000 0.52613  0.05167  0.59545  Biso   1.000  C
  C116     1.0000 0.51713  0.03287  0.56783  Biso   1.000  C
  C117     1.0000 0.52693  0.96717  0.55727  Biso   1.000  C
  C118     1.0000 0.51893  0.95437  0.53057  Biso   1.000  C
  H98      1.0000 0.52393  0.91087  0.52347  Biso   1.000  H
  C119     1.0000 0.50333  0.00597  0.51464  Biso   1.000  C
  C120     1.0000 0.49033  0.06817  0.52517  Biso   1.000  C
  C121     1.0000 0.50543  0.08627  0.55107  Biso   1.000  C
  H99      1.0000 0.50793  0.13437  0.55757  Biso   1.000  H
  C122     1.0000 0.53893  0.90497  0.57497  Biso   1.000  C
  H100     1.0000 0.54283  0.92207  0.59257  Biso   1.000  H
  H101     1.0000 0.58923  0.90527  0.57017  Biso   1.000  H
  H102     1.0000 0.49193  0.84957  0.57297  Biso   1.000  H
  C123     1.0000 0.46523  0.11867  0.50807  Biso   1.000  C
  H103     1.0000 0.46093  0.10027  0.49067  Biso   1.000  H
  H104     1.0000 0.50663  0.17687  0.50927  Biso   1.000  H
  H105     1.0000 0.41213  0.11077  0.51367  Biso   1.000  H
  C124     1.0000 0.69193  0.11707  0.64613  Biso   1.000  C
  C125     1.0000 0.61443  0.09667  0.63338  Biso   1.000  C
  C126     1.0000 0.59933  0.06927  0.60749  Biso   1.000  C
  H106     1.0000 0.63943  0.06307  0.59857  Biso   1.000  H
  C127     1.0000 0.36503  0.91117  0.57537  Biso   1.000  C
  H107     1.0000 0.37953  0.92937  0.59287  Biso   1.000  H
  H108     1.0000 0.35263  0.85427  0.57387  Biso   1.000  H
  H109     1.0000 0.31693  0.91487  0.57047  Biso   1.000  H
  C128     1.0000 0.44073  0.96857  0.55727  Biso   1.000  C
  H110     1.0000 0.63683  0.09417  0.48967  Biso   1.000  H
  H111     1.0000 0.69943  0.11047  0.51217  Biso   1.000  H
  H112     1.0000 0.66803  0.17377  0.50687  Biso   1.000  H
  C129     1.0000 0.57873  0.06657  0.52507  Biso   1.000  C
  C130     1.0000 0.58263  0.08517  0.55127  Biso   1.000  C
  H113     1.0000 0.62903  0.13257  0.55777  Biso   1.000  H
  C131     1.0000 0.43503  0.95527  0.53067  Biso   1.000  C
  H114     1.0000 0.38583  0.91277  0.52357  Biso   1.000  H
  C132     1.0000 0.65273  0.11587  0.50667  Biso   1.000  C
  Cu7      1.0000 0.47532  0.52455  0.02074  Biso   1.000  Cu
  O25      1.0000 0.51640  0.88920  0.00202  Biso   1.000  O
  O26      1.0000 0.56000  0.97300  0.96715  Biso   1.000  O
  O27      1.0000 0.51690  0.62790  0.00189  Biso   1.000  O
  O28      1.0000 0.55870  0.58610  0.96692  Biso   1.000  O
  C133     1.0000 0.54950  0.64190  0.97927  Biso   1.000  C
  C134     1.0000 0.56910  0.71940  0.96671  Biso   1.000  C
  C135     1.0000 0.56610  0.78290  0.97935  Biso   1.000  C
  H115     1.0000 0.56140  0.78030  0.99710  Biso   1.000  H
  C136     1.0000 0.59560  0.73340  0.94102  Biso   1.000  C
  H116     1.0000 0.60030  0.69240  0.93210  Biso   1.000  H
  C137     1.0000 0.61500  0.80780  0.92878  Biso   1.000  C
  C138     1.0000 0.63380  0.81760  0.90116  Biso   1.000  C
  C139     1.0000 0.69950  0.89310  0.89060  Biso   1.000  C
  C140     1.0000 0.71230  0.89790  0.86390  Biso   1.000  C
  H117     1.0000 0.75580  0.94640  0.85680  Biso   1.000  H
  C141     1.0000 0.66070  0.83070  0.84797  Biso   1.000  C
  C142     1.0000 0.59850  0.75550  0.85850  Biso   1.000  C
  C143     1.0000 0.58040  0.75250  0.88440  Biso   1.000  C
  H118     1.0000 0.53230  0.70690  0.89090  Biso   1.000  H
  C144     1.0000 0.76170  0.96730  0.90830  Biso   1.000  C
  H119     1.0000 0.74460  0.95410  0.92590  Biso   1.000  H
  H120     1.0000 0.76140  0.01730  0.90350  Biso   1.000  H
  H121     1.0000 0.81710  0.97570  0.90630  Biso   1.000  H
  C145     1.0000 0.54800  0.67990  0.84140  Biso   1.000  C
  H122     1.0000 0.56640  0.69400  0.82400  Biso   1.000  H
  H123     1.0000 0.48980  0.66310  0.84260  Biso   1.000  H
  H124     1.0000 0.55590  0.63470  0.84700  Biso   1.000  H
  C146     1.0000 0.54960  0.90820  0.97946  Biso   1.000  C
  C147     1.0000 0.57000  0.85110  0.96671  Biso   1.000  C
  C148     1.0000 0.59740  0.86340  0.94082  Biso   1.000  C
  H125     1.0000 0.60360  0.90970  0.93190  Biso   1.000  H
  C149     1.0000 0.75550  0.78720  0.90870  Biso   1.000  C
  H126     1.0000 0.73730  0.78350  0.92620  Biso   1.000  H
  H127     1.0000 0.81240  0.83170  0.90720  Biso   1.000  H
  H128     1.0000 0.75180  0.73540  0.90380  Biso   1.000  H
  C150     1.0000 0.69810  0.80550  0.89060  Biso   1.000  C
  H129     1.0000 0.57250  0.87600  0.82300  Biso   1.000  H
  H130     1.0000 0.55620  0.92230  0.84550  Biso   1.000  H
  H131     1.0000 0.49290  0.82760  0.84020  Biso   1.000  H
  C151     1.0000 0.60010  0.84550  0.85840  Biso   1.000  C
  C152     1.0000 0.58150  0.83080  0.88460  Biso   1.000  C
  H132     1.0000 0.53410  0.82980  0.89110  Biso   1.000  H
  C153     1.0000 0.71140  0.81310  0.86400  Biso   1.000  C
  H133     1.0000 0.75390  0.80640  0.85690  Biso   1.000  H
  C154     1.0000 0.55080  0.87020  0.84000  Biso   1.000  C
  Cu8      1.0000 0.14199  0.85788  0.35407  Biso   1.000  Cu
  O29      1.0000 0.18307  0.22253  0.33535  Biso   1.000  O
  O30      1.0000 0.22667  0.30633  0.30048  Biso   1.000  O
  O31      1.0000 0.18357  0.96123  0.33522  Biso   1.000  O
  O32      1.0000 0.22537  0.91943  0.30025  Biso   1.000  O
  C155     1.0000 0.21617  0.97523  0.31260  Biso   1.000  C
  C156     1.0000 0.23577  0.05273  0.30004  Biso   1.000  C
  C157     1.0000 0.23277  0.11623  0.31268  Biso   1.000  C
  H134     1.0000 0.22807  0.11363  0.33043  Biso   1.000  H
  C158     1.0000 0.26227  0.06673  0.27435  Biso   1.000  C
  H135     1.0000 0.26697  0.02573  0.26543  Biso   1.000  H
  C159     1.0000 0.28167  0.14113  0.26211  Biso   1.000  C
  C160     1.0000 0.30047  0.15093  0.23449  Biso   1.000  C
  C161     1.0000 0.36617  0.22643  0.22393  Biso   1.000  C
  C162     1.0000 0.37897  0.23123  0.19723  Biso   1.000  C
  H136     1.0000 0.42247  0.27973  0.19013  Biso   1.000  H
  C163     1.0000 0.32737  0.16403  0.18130  Biso   1.000  C
  C164     1.0000 0.26517  0.08883  0.19183  Biso   1.000  C
  C165     1.0000 0.24707  0.08583  0.21773  Biso   1.000  C
  H137     1.0000 0.19897  0.04023  0.22423  Biso   1.000  H
  C166     1.0000 0.42837  0.30063  0.24163  Biso   1.000  C
  H138     1.0000 0.41127  0.28743  0.25923  Biso   1.000  H
  H139     1.0000 0.42807  0.35063  0.23683  Biso   1.000  H
  H140     1.0000 0.48377  0.30903  0.23963  Biso   1.000  H
  C167     1.0000 0.21467  0.01323  0.17473  Biso   1.000  C
  H141     1.0000 0.23307  0.02733  0.15733  Biso   1.000  H
  H142     1.0000 0.15647  0.99643  0.17593  Biso   1.000  H
  H143     1.0000 0.22257  0.96803  0.18033  Biso   1.000  H
  C168     1.0000 0.21627  0.24153  0.31279  Biso   1.000  C
  C169     1.0000 0.23667  0.18443  0.30004  Biso   1.000  C
  C170     1.0000 0.26407  0.19673  0.27415  Biso   1.000  C
  H144     1.0000 0.27027  0.24303  0.26523  Biso   1.000  H
  C171     1.0000 0.42217  0.12053  0.24203  Biso   1.000  C
  H145     1.0000 0.40397  0.11683  0.25953  Biso   1.000  H
  H146     1.0000 0.47907  0.16503  0.24053  Biso   1.000  H
  H147     1.0000 0.41847  0.06873  0.23713  Biso   1.000  H
  C172     1.0000 0.36477  0.13883  0.22393  Biso   1.000  C
  H148     1.0000 0.23917  0.20933  0.15633  Biso   1.000  H
  H149     1.0000 0.22287  0.25563  0.17883  Biso   1.000  H
  H150     1.0000 0.15957  0.16093  0.17353  Biso   1.000  H
  C173     1.0000 0.26677  0.17883  0.19173  Biso   1.000  C
  C174     1.0000 0.24817  0.16413  0.21793  Biso   1.000  C
  H151     1.0000 0.20077  0.16313  0.22443  Biso   1.000  H
  C175     1.0000 0.37807  0.14643  0.19733  Biso   1.000  C
  H152     1.0000 0.42057  0.13973  0.19023  Biso   1.000  H
  C176     1.0000 0.21747  0.20353  0.17333  Biso   1.000  C
  Cu9      1.0000 0.80865  0.19122  0.68740  Biso   1.000  Cu
  O33      1.0000 0.84973  0.55587  0.66869  Biso   1.000  O
  O34      1.0000 0.89333  0.63967  0.63382  Biso   1.000  O
  O35      1.0000 0.85023  0.29457  0.66856  Biso   1.000  O
  O36      1.0000 0.89203  0.25277  0.63359  Biso   1.000  O
  C177     1.0000 0.88283  0.30857  0.64594  Biso   1.000  C
  C178     1.0000 0.90243  0.38607  0.63338  Biso   1.000  C
  C179     1.0000 0.89943  0.44957  0.64602  Biso   1.000  C
  H153     1.0000 0.89473  0.44697  0.66377  Biso   1.000  H
  C180     1.0000 0.92893  0.40007  0.60769  Biso   1.000  C
  H154     1.0000 0.93363  0.35907  0.59877  Biso   1.000  H
  C181     1.0000 0.94833  0.47447  0.59545  Biso   1.000  C
  C182     1.0000 0.96713  0.48427  0.56783  Biso   1.000  C
  C183     1.0000 0.03283  0.55977  0.55727  Biso   1.000  C
  C184     1.0000 0.04563  0.56457  0.53057  Biso   1.000  C
  H155     1.0000 0.08913  0.61307  0.52347  Biso   1.000  H
  C185     1.0000 0.99403  0.49737  0.51464  Biso   1.000  C
  C186     1.0000 0.93183  0.42217  0.52517  Biso   1.000  C
  C187     1.0000 0.91373  0.41917  0.55107  Biso   1.000  C
  H156     1.0000 0.86563  0.37357  0.55757  Biso   1.000  H
  C188     1.0000 0.09503  0.63397  0.57497  Biso   1.000  C
  H157     1.0000 0.07793  0.62077  0.59257  Biso   1.000  H
  H158     1.0000 0.09473  0.68397  0.57017  Biso   1.000  H
  H159     1.0000 0.15043  0.64237  0.57297  Biso   1.000  H
  C189     1.0000 0.88133  0.34657  0.50807  Biso   1.000  C
  H160     1.0000 0.89973  0.36067  0.49067  Biso   1.000  H
  H161     1.0000 0.82313  0.32977  0.50927  Biso   1.000  H
  H162     1.0000 0.88923  0.30137  0.51367  Biso   1.000  H
  C190     1.0000 0.88293  0.57487  0.64613  Biso   1.000  C
  C191     1.0000 0.90333  0.51777  0.63338  Biso   1.000  C
  C192     1.0000 0.93073  0.53007  0.60749  Biso   1.000  C
  H163     1.0000 0.93693  0.57637  0.59857  Biso   1.000  H
  C193     1.0000 0.08883  0.45387  0.57537  Biso   1.000  C
  H164     1.0000 0.07063  0.45017  0.59287  Biso   1.000  H
  H165     1.0000 0.14573  0.49837  0.57387  Biso   1.000  H
  H166     1.0000 0.08513  0.40207  0.57047  Biso   1.000  H
  C194     1.0000 0.03143  0.47217  0.55727  Biso   1.000  C
  H167     1.0000 0.90583  0.54267  0.48967  Biso   1.000  H
  H168     1.0000 0.88953  0.58897  0.51217  Biso   1.000  H
  H169     1.0000 0.82623  0.49427  0.50687  Biso   1.000  H
  C195     1.0000 0.93343  0.51217  0.52507  Biso   1.000  C
  C196     1.0000 0.91483  0.49747  0.55127  Biso   1.000  C
  H170     1.0000 0.86743  0.49647  0.55777  Biso   1.000  H
  C197     1.0000 0.04473  0.47977  0.53067  Biso   1.000  C
  H171     1.0000 0.08723  0.47307  0.52357  Biso   1.000  H
  C198     1.0000 0.88413  0.53687  0.50667  Biso   1.000  C
  Cu10     1.0000 0.52455  0.04923  0.97926  Biso   1.000  Cu
  O37      1.0000 0.88920  0.37280  0.99798  Biso   1.000  O
  O38      1.0000 0.97300  0.41300  0.03285  Biso   1.000  O
  O39      1.0000 0.62790  0.11100  0.99811  Biso   1.000  O
  O40      1.0000 0.58610  0.02740  0.03308  Biso   1.000  O
  C199     1.0000 0.64190  0.09240  0.02073  Biso   1.000  C
  C200     1.0000 0.71940  0.15030  0.03329  Biso   1.000  C
  C201     1.0000 0.78290  0.21680  0.02065  Biso   1.000  C
  H172     1.0000 0.78030  0.21890  0.00290  Biso   1.000  H
  C202     1.0000 0.73340  0.13780  0.05898  Biso   1.000  C
  H173     1.0000 0.69240  0.09210  0.06790  Biso   1.000  H
  C203     1.0000 0.80780  0.19280  0.07122  Biso   1.000  C
  C204     1.0000 0.81760  0.18380  0.09884  Biso   1.000  C
  C205     1.0000 0.89310  0.19360  0.10940  Biso   1.000  C
  C206     1.0000 0.89790  0.18560  0.13610  Biso   1.000  C
  H174     1.0000 0.94640  0.19060  0.14320  Biso   1.000  H
  C207     1.0000 0.83070  0.17000  0.15203  Biso   1.000  C
  C208     1.0000 0.75550  0.15700  0.14150  Biso   1.000  C
  C209     1.0000 0.75250  0.17210  0.11560  Biso   1.000  C
  H175     1.0000 0.70690  0.17460  0.10910  Biso   1.000  H
  C210     1.0000 0.96730  0.20560  0.09170  Biso   1.000  C
  H176     1.0000 0.95410  0.20950  0.07410  Biso   1.000  H
  H177     1.0000 0.01730  0.25590  0.09650  Biso   1.000  H
  H178     1.0000 0.97570  0.15860  0.09370  Biso   1.000  H
  C211     1.0000 0.67990  0.13190  0.15860  Biso   1.000  C
  H179     1.0000 0.69400  0.12760  0.17600  Biso   1.000  H
  H180     1.0000 0.66310  0.17330  0.15740  Biso   1.000  H
  H181     1.0000 0.63470  0.07880  0.15300  Biso   1.000  H
  C212     1.0000 0.90820  0.35860  0.02054  Biso   1.000  C
  C213     1.0000 0.85110  0.28110  0.03329  Biso   1.000  C
  C214     1.0000 0.86340  0.26600  0.05918  Biso   1.000  C
  H182     1.0000 0.90970  0.30610  0.06810  Biso   1.000  H
  C215     1.0000 0.78720  0.03170  0.09130  Biso   1.000  C
  H183     1.0000 0.78350  0.04620  0.07380  Biso   1.000  H
  H184     1.0000 0.83170  0.01930  0.09280  Biso   1.000  H
  H185     1.0000 0.73540  0.98360  0.09620  Biso   1.000  H
  C216     1.0000 0.80550  0.10740  0.10940  Biso   1.000  C
  H186     1.0000 0.87600  0.30350  0.17700  Biso   1.000  H
  H187     1.0000 0.92230  0.36610  0.15450  Biso   1.000  H
  H188     1.0000 0.82760  0.33470  0.15980  Biso   1.000  H
  C217     1.0000 0.84550  0.24540  0.14160  Biso   1.000  C
  C218     1.0000 0.83080  0.24930  0.11540  Biso   1.000  C
  H189     1.0000 0.82980  0.29570  0.10890  Biso   1.000  H
  C219     1.0000 0.81310  0.10170  0.13600  Biso   1.000  C
  H190     1.0000 0.80640  0.05250  0.14310  Biso   1.000  H
  C220     1.0000 0.87020  0.31940  0.16000  Biso   1.000  C
  Cu11     1.0000 0.19122  0.38256  0.31260  Biso   1.000  Cu
  O41      1.0000 0.55587  0.70613  0.33131  Biso   1.000  O
  O42      1.0000 0.63967  0.74633  0.36618  Biso   1.000  O
  O43      1.0000 0.29457  0.44433  0.33144  Biso   1.000  O
  O44      1.0000 0.25277  0.36073  0.36641  Biso   1.000  O
  C221     1.0000 0.30857  0.42573  0.35406  Biso   1.000  C
  C222     1.0000 0.38607  0.48363  0.36662  Biso   1.000  C
  C223     1.0000 0.44957  0.55013  0.35398  Biso   1.000  C
  H191     1.0000 0.44697  0.55223  0.33623  Biso   1.000  H
  C224     1.0000 0.40007  0.47113  0.39231  Biso   1.000  C
  H192     1.0000 0.35907  0.42543  0.40123  Biso   1.000  H
  C225     1.0000 0.47447  0.52613  0.40455  Biso   1.000  C
  C226     1.0000 0.48427  0.51713  0.43217  Biso   1.000  C
  C227     1.0000 0.55977  0.52693  0.44273  Biso   1.000  C
  C228     1.0000 0.56457  0.51893  0.46943  Biso   1.000  C
  H193     1.0000 0.61307  0.52393  0.47653  Biso   1.000  H
  C229     1.0000 0.49737  0.50333  0.48536  Biso   1.000  C
  C230     1.0000 0.42217  0.49033  0.47483  Biso   1.000  C
  C231     1.0000 0.41917  0.50543  0.44893  Biso   1.000  C
  H194     1.0000 0.37357  0.50793  0.44243  Biso   1.000  H
  C232     1.0000 0.63397  0.53893  0.42503  Biso   1.000  C
  H195     1.0000 0.62077  0.54283  0.40743  Biso   1.000  H
  H196     1.0000 0.68397  0.58923  0.42983  Biso   1.000  H
  H197     1.0000 0.64237  0.49193  0.42703  Biso   1.000  H
  C233     1.0000 0.34657  0.46523  0.49193  Biso   1.000  C
  H198     1.0000 0.36067  0.46093  0.50933  Biso   1.000  H
  H199     1.0000 0.32977  0.50663  0.49073  Biso   1.000  H
  H200     1.0000 0.30137  0.41213  0.48633  Biso   1.000  H
  C234     1.0000 0.57487  0.69193  0.35387  Biso   1.000  C
  C235     1.0000 0.51777  0.61443  0.36662  Biso   1.000  C
  C236     1.0000 0.53007  0.59933  0.39251  Biso   1.000  C
  H201     1.0000 0.57637  0.63943  0.40143  Biso   1.000  H
  C237     1.0000 0.45387  0.36503  0.42463  Biso   1.000  C
  H202     1.0000 0.45017  0.37953  0.40713  Biso   1.000  H
  H203     1.0000 0.49837  0.35263  0.42613  Biso   1.000  H
  H204     1.0000 0.40207  0.31693  0.42953  Biso   1.000  H
  C238     1.0000 0.47217  0.44073  0.44273  Biso   1.000  C
  H205     1.0000 0.54267  0.63683  0.51033  Biso   1.000  H
  H206     1.0000 0.58897  0.69943  0.48783  Biso   1.000  H
  H207     1.0000 0.49427  0.66803  0.49313  Biso   1.000  H
  C239     1.0000 0.51217  0.57873  0.47493  Biso   1.000  C
  C240     1.0000 0.49747  0.58263  0.44873  Biso   1.000  C
  H208     1.0000 0.49647  0.62903  0.44223  Biso   1.000  H
  C241     1.0000 0.47977  0.43503  0.46933  Biso   1.000  C
  H209     1.0000 0.47307  0.38583  0.47643  Biso   1.000  H
  C242     1.0000 0.53687  0.65273  0.49333  Biso   1.000  C
  Cu12     1.0000 0.85788  0.71590  0.64593  Biso   1.000  Cu
  O45      1.0000 0.22253  0.03947  0.66465  Biso   1.000  O
  O46      1.0000 0.30633  0.07967  0.69952  Biso   1.000  O
  O47      1.0000 0.96123  0.77767  0.66478  Biso   1.000  O
  O48      1.0000 0.91943  0.69407  0.69975  Biso   1.000  O
  C243     1.0000 0.97523  0.75907  0.68740  Biso   1.000  C
  C244     1.0000 0.05273  0.81697  0.69996  Biso   1.000  C
  C245     1.0000 0.11623  0.88347  0.68732  Biso   1.000  C
  H210     1.0000 0.11363  0.88557  0.66957  Biso   1.000  H
  C246     1.0000 0.06673  0.80447  0.72565  Biso   1.000  C
  H211     1.0000 0.02573  0.75877  0.73457  Biso   1.000  H
  C247     1.0000 0.14113  0.85947  0.73789  Biso   1.000  C
  C248     1.0000 0.15093  0.85047  0.76551  Biso   1.000  C
  C249     1.0000 0.22643  0.86027  0.77607  Biso   1.000  C
  C250     1.0000 0.23123  0.85227  0.80277  Biso   1.000  C
  H212     1.0000 0.27973  0.85727  0.80987  Biso   1.000  H
  C251     1.0000 0.16403  0.83667  0.81870  Biso   1.000  C
  C252     1.0000 0.08883  0.82367  0.80817  Biso   1.000  C
  C253     1.0000 0.08583  0.83877  0.78227  Biso   1.000  C
  H213     1.0000 0.04023  0.84127  0.77577  Biso   1.000  H
  C254     1.0000 0.30063  0.87227  0.75837  Biso   1.000  C
  H214     1.0000 0.28743  0.87617  0.74077  Biso   1.000  H
  H215     1.0000 0.35063  0.92257  0.76317  Biso   1.000  H
  H216     1.0000 0.30903  0.82527  0.76037  Biso   1.000  H
  C255     1.0000 0.01323  0.79857  0.82527  Biso   1.000  C
  H217     1.0000 0.02733  0.79427  0.84267  Biso   1.000  H
  H218     1.0000 0.99643  0.83997  0.82407  Biso   1.000  H
  H219     1.0000 0.96803  0.74547  0.81967  Biso   1.000  H
  C256     1.0000 0.24153  0.02527  0.68721  Biso   1.000  C
  C257     1.0000 0.18443  0.94777  0.69996  Biso   1.000  C
  C258     1.0000 0.19673  0.93267  0.72585  Biso   1.000  C
  H220     1.0000 0.24303  0.97277  0.73477  Biso   1.000  H
  C259     1.0000 0.12053  0.69837  0.75797  Biso   1.000  C
  H221     1.0000 0.11683  0.71287  0.74047  Biso   1.000  H
  H222     1.0000 0.16503  0.68597  0.75947  Biso   1.000  H
  H223     1.0000 0.06873  0.65027  0.76287  Biso   1.000  H
  C260     1.0000 0.13883  0.77407  0.77607  Biso   1.000  C
  H224     1.0000 0.20933  0.97017  0.84367  Biso   1.000  H
  H225     1.0000 0.25563  0.03277  0.82117  Biso   1.000  H
  H226     1.0000 0.16093  0.00137  0.82647  Biso   1.000  H
  C261     1.0000 0.17883  0.91207  0.80827  Biso   1.000  C
  C262     1.0000 0.16413  0.91597  0.78207  Biso   1.000  C
  H227     1.0000 0.16313  0.96237  0.77557  Biso   1.000  H
  C263     1.0000 0.14643  0.76837  0.80267  Biso   1.000  C
  H228     1.0000 0.13973  0.71917  0.80977  Biso   1.000  H
  C264     1.0000 0.20353  0.98607  0.82667  Biso   1.000  C
  Cu13     1.0000 0.95077  0.47532  0.97926  Biso   1.000  Cu
  O49      1.0000 0.62720  0.51640  0.99798  Biso   1.000  O
  O50      1.0000 0.58700  0.56000  0.03285  Biso   1.000  O
  O51      1.0000 0.88900  0.51690  0.99811  Biso   1.000  O
  O52      1.0000 0.97260  0.55870  0.03308  Biso   1.000  O
  C265     1.0000 0.90760  0.54950  0.02073  Biso   1.000  C
  C266     1.0000 0.84970  0.56910  0.03329  Biso   1.000  C
  C267     1.0000 0.78320  0.56610  0.02065  Biso   1.000  C
  H229     1.0000 0.78110  0.56140  0.00290  Biso   1.000  H
  C268     1.0000 0.86220  0.59560  0.05898  Biso   1.000  C
  H230     1.0000 0.90790  0.60030  0.06790  Biso   1.000  H
  C269     1.0000 0.80720  0.61500  0.07122  Biso   1.000  C
  C270     1.0000 0.81620  0.63380  0.09884  Biso   1.000  C
  C271     1.0000 0.80640  0.69950  0.10940  Biso   1.000  C
  C272     1.0000 0.81440  0.71230  0.13610  Biso   1.000  C
  H231     1.0000 0.80940  0.75580  0.14320  Biso   1.000  H
  C273     1.0000 0.83000  0.66070  0.15203  Biso   1.000  C
  C274     1.0000 0.84300  0.59850  0.14150  Biso   1.000  C
  C275     1.0000 0.82790  0.58040  0.11560  Biso   1.000  C
  H232     1.0000 0.82540  0.53230  0.10910  Biso   1.000  H
  C276     1.0000 0.79440  0.76170  0.09170  Biso   1.000  C
  H233     1.0000 0.79050  0.74460  0.07410  Biso   1.000  H
  H234     1.0000 0.74410  0.76140  0.09650  Biso   1.000  H
  H235     1.0000 0.84140  0.81710  0.09370  Biso   1.000  H
  C277     1.0000 0.86810  0.54800  0.15860  Biso   1.000  C
  H236     1.0000 0.87240  0.56640  0.17600  Biso   1.000  H
  H237     1.0000 0.82670  0.48980  0.15740  Biso   1.000  H
  H238     1.0000 0.92120  0.55590  0.15300  Biso   1.000  H
  C278     1.0000 0.64140  0.54960  0.02054  Biso   1.000  C
  C279     1.0000 0.71890  0.57000  0.03329  Biso   1.000  C
  C280     1.0000 0.73400  0.59740  0.05918  Biso   1.000  C
  H239     1.0000 0.69390  0.60360  0.06810  Biso   1.000  H
  C281     1.0000 0.96830  0.75550  0.09130  Biso   1.000  C
  H240     1.0000 0.95380  0.73730  0.07380  Biso   1.000  H
  H241     1.0000 0.98070  0.81240  0.09280  Biso   1.000  H
  H242     1.0000 0.01640  0.75180  0.09620  Biso   1.000  H
  C282     1.0000 0.89260  0.69810  0.10940  Biso   1.000  C
  H243     1.0000 0.69650  0.57250  0.17700  Biso   1.000  H
  H244     1.0000 0.63390  0.55620  0.15450  Biso   1.000  H
  H245     1.0000 0.66530  0.49290  0.15980  Biso   1.000  H
  C283     1.0000 0.75460  0.60010  0.14160  Biso   1.000  C
  C284     1.0000 0.75070  0.58150  0.11540  Biso   1.000  C
  H246     1.0000 0.70430  0.53410  0.10890  Biso   1.000  H
  C285     1.0000 0.89830  0.71140  0.13600  Biso   1.000  C
  H247     1.0000 0.94750  0.75390  0.14310  Biso   1.000  H
  C286     1.0000 0.68060  0.55080  0.16000  Biso   1.000  C
  Cu14     1.0000 0.61744  0.80865  0.31260  Biso   1.000  Cu
  O53      1.0000 0.29387  0.84973  0.33131  Biso   1.000  O
  O54      1.0000 0.25367  0.89333  0.36618  Biso   1.000  O
  O55      1.0000 0.55567  0.85023  0.33144  Biso   1.000  O
  O56      1.0000 0.63927  0.89203  0.36641  Biso   1.000  O
  C287     1.0000 0.57427  0.88283  0.35406  Biso   1.000  C
  C288     1.0000 0.51637  0.90243  0.36662  Biso   1.000  C
  C289     1.0000 0.44987  0.89943  0.35398  Biso   1.000  C
  H248     1.0000 0.44777  0.89473  0.33623  Biso   1.000  H
  C290     1.0000 0.52887  0.92893  0.39231  Biso   1.000  C
  H249     1.0000 0.57457  0.93363  0.40123  Biso   1.000  H
  C291     1.0000 0.47387  0.94833  0.40455  Biso   1.000  C
  C292     1.0000 0.48287  0.96713  0.43217  Biso   1.000  C
  C293     1.0000 0.47307  0.03283  0.44273  Biso   1.000  C
  C294     1.0000 0.48107  0.04563  0.46943  Biso   1.000  C
  H250     1.0000 0.47607  0.08913  0.47653  Biso   1.000  H
  C295     1.0000 0.49667  0.99403  0.48536  Biso   1.000  C
  C296     1.0000 0.50967  0.93183  0.47483  Biso   1.000  C
  C297     1.0000 0.49457  0.91373  0.44893  Biso   1.000  C
  H251     1.0000 0.49207  0.86563  0.44243  Biso   1.000  H
  C298     1.0000 0.46107  0.09503  0.42503  Biso   1.000  C
  H252     1.0000 0.45717  0.07793  0.40743  Biso   1.000  H
  H253     1.0000 0.41077  0.09473  0.42983  Biso   1.000  H
  H254     1.0000 0.50807  0.15043  0.42703  Biso   1.000  H
  C299     1.0000 0.53477  0.88133  0.49193  Biso   1.000  C
  H255     1.0000 0.53907  0.89973  0.50933  Biso   1.000  H
  H256     1.0000 0.49337  0.82313  0.49073  Biso   1.000  H
  H257     1.0000 0.58787  0.88923  0.48633  Biso   1.000  H
  C300     1.0000 0.30807  0.88293  0.35387  Biso   1.000  C
  C301     1.0000 0.38557  0.90333  0.36662  Biso   1.000  C
  C302     1.0000 0.40067  0.93073  0.39251  Biso   1.000  C
  H258     1.0000 0.36057  0.93693  0.40143  Biso   1.000  H
  C303     1.0000 0.63497  0.08883  0.42463  Biso   1.000  C
  H259     1.0000 0.62047  0.07063  0.40713  Biso   1.000  H
  H260     1.0000 0.64737  0.14573  0.42613  Biso   1.000  H
  H261     1.0000 0.68307  0.08513  0.42953  Biso   1.000  H
  C304     1.0000 0.55927  0.03143  0.44273  Biso   1.000  C
  H262     1.0000 0.36317  0.90583  0.51033  Biso   1.000  H
  H263     1.0000 0.30057  0.88953  0.48783  Biso   1.000  H
  H264     1.0000 0.33197  0.82623  0.49313  Biso   1.000  H
  C305     1.0000 0.42127  0.93343  0.47493  Biso   1.000  C
  C306     1.0000 0.41737  0.91483  0.44873  Biso   1.000  C
  H265     1.0000 0.37097  0.86743  0.44223  Biso   1.000  H
  C307     1.0000 0.56497  0.04473  0.46933  Biso   1.000  C
  H266     1.0000 0.61417  0.08723  0.47643  Biso   1.000  H
  C308     1.0000 0.34727  0.88413  0.49333  Biso   1.000  C
  Cu15     1.0000 0.28410  0.14199  0.64593  Biso   1.000  Cu
  O57      1.0000 0.96053  0.18307  0.66465  Biso   1.000  O
  O58      1.0000 0.92033  0.22667  0.69952  Biso   1.000  O
  O59      1.0000 0.22233  0.18357  0.66478  Biso   1.000  O
  O60      1.0000 0.30593  0.22537  0.69975  Biso   1.000  O
  C309     1.0000 0.24093  0.21617  0.68740  Biso   1.000  C
  C310     1.0000 0.18303  0.23577  0.69996  Biso   1.000  C
  C311     1.0000 0.11653  0.23277  0.68732  Biso   1.000  C
  H267     1.0000 0.11443  0.22807  0.66957  Biso   1.000  H
  C312     1.0000 0.19553  0.26227  0.72565  Biso   1.000  C
  H268     1.0000 0.24123  0.26697  0.73457  Biso   1.000  H
  C313     1.0000 0.14053  0.28167  0.73789  Biso   1.000  C
  C314     1.0000 0.14953  0.30047  0.76551  Biso   1.000  C
  C315     1.0000 0.13973  0.36617  0.77607  Biso   1.000  C
  C316     1.0000 0.14773  0.37897  0.80277  Biso   1.000  C
  H269     1.0000 0.14273  0.42247  0.80987  Biso   1.000  H
  C317     1.0000 0.16333  0.32737  0.81870  Biso   1.000  C
  C318     1.0000 0.17633  0.26517  0.80817  Biso   1.000  C
  C319     1.0000 0.16123  0.24707  0.78227  Biso   1.000  C
  H270     1.0000 0.15873  0.19897  0.77577  Biso   1.000  H
  C320     1.0000 0.12773  0.42837  0.75837  Biso   1.000  C
  H271     1.0000 0.12383  0.41127  0.74077  Biso   1.000  H
  H272     1.0000 0.07743  0.42807  0.76317  Biso   1.000  H
  H273     1.0000 0.17473  0.48377  0.76037  Biso   1.000  H
  C321     1.0000 0.20143  0.21467  0.82527  Biso   1.000  C
  H274     1.0000 0.20573  0.23307  0.84267  Biso   1.000  H
  H275     1.0000 0.16003  0.15647  0.82407  Biso   1.000  H
  H276     1.0000 0.25453  0.22257  0.81967  Biso   1.000  H
  C322     1.0000 0.97473  0.21627  0.68721  Biso   1.000  C
  C323     1.0000 0.05223  0.23667  0.69996  Biso   1.000  C
  C324     1.0000 0.06733  0.26407  0.72585  Biso   1.000  C
  H277     1.0000 0.02723  0.27027  0.73477  Biso   1.000  H
  C325     1.0000 0.30163  0.42217  0.75797  Biso   1.000  C
  H278     1.0000 0.28713  0.40397  0.74047  Biso   1.000  H
  H279     1.0000 0.31403  0.47907  0.75947  Biso   1.000  H
  H280     1.0000 0.34973  0.41847  0.76287  Biso   1.000  H
  C326     1.0000 0.22593  0.36477  0.77607  Biso   1.000  C
  H281     1.0000 0.02983  0.23917  0.84367  Biso   1.000  H
  H282     1.0000 0.96723  0.22287  0.82117  Biso   1.000  H
  H283     1.0000 0.99863  0.15957  0.82647  Biso   1.000  H
  C327     1.0000 0.08793  0.26677  0.80827  Biso   1.000  C
  C328     1.0000 0.08403  0.24817  0.78207  Biso   1.000  C
  H284     1.0000 0.03763  0.20077  0.77557  Biso   1.000  H
  C329     1.0000 0.23163  0.37807  0.80267  Biso   1.000  C
  H285     1.0000 0.28083  0.42057  0.80977  Biso   1.000  H
  C330     1.0000 0.01393  0.21747  0.82667  Biso   1.000  C
  Cu16     1.0000 0.52468  0.47545  0.97926  Biso   1.000  Cu
  O61      1.0000 0.48360  0.11080  0.99798  Biso   1.000  O
  O62      1.0000 0.44000  0.02700  0.03285  Biso   1.000  O
  O63      1.0000 0.48310  0.37210  0.99811  Biso   1.000  O
  O64      1.0000 0.44130  0.41390  0.03308  Biso   1.000  O
  C331     1.0000 0.45050  0.35810  0.02073  Biso   1.000  C
  C332     1.0000 0.43090  0.28060  0.03329  Biso   1.000  C
  C333     1.0000 0.43390  0.21710  0.02065  Biso   1.000  C
  H286     1.0000 0.43860  0.21970  0.00290  Biso   1.000  H
  C334     1.0000 0.40440  0.26660  0.05898  Biso   1.000  C
  H287     1.0000 0.39970  0.30760  0.06790  Biso   1.000  H
  C335     1.0000 0.38500  0.19220  0.07122  Biso   1.000  C
  C336     1.0000 0.36620  0.18240  0.09884  Biso   1.000  C
  C337     1.0000 0.30050  0.10690  0.10940  Biso   1.000  C
  C338     1.0000 0.28770  0.10210  0.13610  Biso   1.000  C
  H288     1.0000 0.24420  0.05360  0.14320  Biso   1.000  H
  C339     1.0000 0.33930  0.16930  0.15203  Biso   1.000  C
  C340     1.0000 0.40150  0.24450  0.14150  Biso   1.000  C
  C341     1.0000 0.41960  0.24750  0.11560  Biso   1.000  C
  H289     1.0000 0.46770  0.29310  0.10910  Biso   1.000  H
  C342     1.0000 0.23830  0.03270  0.09170  Biso   1.000  C
  H290     1.0000 0.25540  0.04590  0.07410  Biso   1.000  H
  H291     1.0000 0.23860  0.98270  0.09650  Biso   1.000  H
  H292     1.0000 0.18290  0.02430  0.09370  Biso   1.000  H
  C343     1.0000 0.45200  0.32010  0.15860  Biso   1.000  C
  H293     1.0000 0.43360  0.30600  0.17600  Biso   1.000  H
  H294     1.0000 0.51020  0.33690  0.15740  Biso   1.000  H
  H295     1.0000 0.44410  0.36530  0.15300  Biso   1.000  H
  C344     1.0000 0.45040  0.09180  0.02054  Biso   1.000  C
  C345     1.0000 0.43000  0.14890  0.03329  Biso   1.000  C
  C346     1.0000 0.40260  0.13660  0.05918  Biso   1.000  C
  H296     1.0000 0.39640  0.09030  0.06810  Biso   1.000  H
  C347     1.0000 0.24450  0.21280  0.09130  Biso   1.000  C
  H297     1.0000 0.26270  0.21650  0.07380  Biso   1.000  H
  H298     1.0000 0.18760  0.16830  0.09280  Biso   1.000  H
  H299     1.0000 0.24820  0.26460  0.09620  Biso   1.000  H
  C348     1.0000 0.30190  0.19450  0.10940  Biso   1.000  C
  H300     1.0000 0.42750  0.12400  0.17700  Biso   1.000  H
  H301     1.0000 0.44380  0.07770  0.15450  Biso   1.000  H
  H302     1.0000 0.50710  0.17240  0.15980  Biso   1.000  H
  C349     1.0000 0.39990  0.15450  0.14160  Biso   1.000  C
  C350     1.0000 0.41850  0.16920  0.11540  Biso   1.000  C
  H303     1.0000 0.46590  0.17020  0.10890  Biso   1.000  H
  C351     1.0000 0.28860  0.18690  0.13600  Biso   1.000  C
  H304     1.0000 0.24610  0.19360  0.14310  Biso   1.000  H
  C352     1.0000 0.44920  0.12980  0.16000  Biso   1.000  C
  Cu17     1.0000 0.19135  0.80878  0.31260  Biso   1.000  Cu
  O65      1.0000 0.15027  0.44413  0.33131  Biso   1.000  O
  O66      1.0000 0.10667  0.36033  0.36618  Biso   1.000  O
  O67      1.0000 0.14977  0.70543  0.33144  Biso   1.000  O
  O68      1.0000 0.10797  0.74723  0.36641  Biso   1.000  O
  C353     1.0000 0.11717  0.69143  0.35406  Biso   1.000  C
  C354     1.0000 0.09757  0.61393  0.36662  Biso   1.000  C
  C355     1.0000 0.10057  0.55043  0.35398  Biso   1.000  C
  H305     1.0000 0.10527  0.55303  0.33623  Biso   1.000  H
  C356     1.0000 0.07107  0.59993  0.39231  Biso   1.000  C
  H306     1.0000 0.06637  0.64093  0.40123  Biso   1.000  H
  C357     1.0000 0.05167  0.52553  0.40455  Biso   1.000  C
  C358     1.0000 0.03287  0.51573  0.43217  Biso   1.000  C
  C359     1.0000 0.96717  0.44023  0.44273  Biso   1.000  C
  C360     1.0000 0.95437  0.43543  0.46943  Biso   1.000  C
  H307     1.0000 0.91087  0.38693  0.47653  Biso   1.000  H
  C361     1.0000 0.00597  0.50263  0.48536  Biso   1.000  C
  C362     1.0000 0.06817  0.57783  0.47483  Biso   1.000  C
  C363     1.0000 0.08627  0.58083  0.44893  Biso   1.000  C
  H308     1.0000 0.13437  0.62643  0.44243  Biso   1.000  H
  C364     1.0000 0.90497  0.36603  0.42503  Biso   1.000  C
  H309     1.0000 0.92207  0.37923  0.40743  Biso   1.000  H
  H310     1.0000 0.90527  0.31603  0.42983  Biso   1.000  H
  H311     1.0000 0.84957  0.35763  0.42703  Biso   1.000  H
  C365     1.0000 0.11867  0.65343  0.49193  Biso   1.000  C
  H312     1.0000 0.10027  0.63933  0.50933  Biso   1.000  H
  H313     1.0000 0.17687  0.67023  0.49073  Biso   1.000  H
  H314     1.0000 0.11077  0.69863  0.48633  Biso   1.000  H
  C366     1.0000 0.11707  0.42513  0.35387  Biso   1.000  C
  C367     1.0000 0.09667  0.48223  0.36662  Biso   1.000  C
  C368     1.0000 0.06927  0.46993  0.39251  Biso   1.000  C
  H315     1.0000 0.06307  0.42363  0.40143  Biso   1.000  H
  C369     1.0000 0.91117  0.54613  0.42463  Biso   1.000  C
  H316     1.0000 0.92937  0.54983  0.40713  Biso   1.000  H
  H317     1.0000 0.85427  0.50163  0.42613  Biso   1.000  H
  H318     1.0000 0.91487  0.59793  0.42953  Biso   1.000  H
  C370     1.0000 0.96857  0.52783  0.44273  Biso   1.000  C
  H319     1.0000 0.09417  0.45733  0.51033  Biso   1.000  H
  H320     1.0000 0.11047  0.41103  0.48783  Biso   1.000  H
  H321     1.0000 0.17377  0.50573  0.49313  Biso   1.000  H
  C371     1.0000 0.06657  0.48783  0.47493  Biso   1.000  C
  C372     1.0000 0.08517  0.50253  0.44873  Biso   1.000  C
  H322     1.0000 0.13257  0.50353  0.44223  Biso   1.000  H
  C373     1.0000 0.95527  0.52023  0.46933  Biso   1.000  C
  H323     1.0000 0.91277  0.52693  0.47643  Biso   1.000  H
  C374     1.0000 0.11587  0.46313  0.49333  Biso   1.000  C
  Cu18     1.0000 0.85801  0.14212  0.64593  Biso   1.000  Cu
  O69      1.0000 0.81693  0.77747  0.66465  Biso   1.000  O
  O70      1.0000 0.77333  0.69367  0.69952  Biso   1.000  O
  O71      1.0000 0.81643  0.03877  0.66478  Biso   1.000  O
  O72      1.0000 0.77463  0.08057  0.69975  Biso   1.000  O
  C375     1.0000 0.78383  0.02477  0.68740  Biso   1.000  C
  C376     1.0000 0.76423  0.94727  0.69996  Biso   1.000  C
  C377     1.0000 0.76723  0.88377  0.68732  Biso   1.000  C
  H324     1.0000 0.77193  0.88637  0.66957  Biso   1.000  H
  C378     1.0000 0.73773  0.93327  0.72565  Biso   1.000  C
  H325     1.0000 0.73303  0.97427  0.73457  Biso   1.000  H
  C379     1.0000 0.71833  0.85887  0.73789  Biso   1.000  C
  C380     1.0000 0.69953  0.84907  0.76551  Biso   1.000  C
  C381     1.0000 0.63383  0.77357  0.77607  Biso   1.000  C
  C382     1.0000 0.62103  0.76877  0.80277  Biso   1.000  C
  H326     1.0000 0.57753  0.72027  0.80987  Biso   1.000  H
  C383     1.0000 0.67263  0.83597  0.81870  Biso   1.000  C
  C384     1.0000 0.73483  0.91117  0.80817  Biso   1.000  C
  C385     1.0000 0.75293  0.91417  0.78227  Biso   1.000  C
  H327     1.0000 0.80103  0.95977  0.77577  Biso   1.000  H
  C386     1.0000 0.57163  0.69937  0.75837  Biso   1.000  C
  H328     1.0000 0.58873  0.71257  0.74077  Biso   1.000  H
  H329     1.0000 0.57193  0.64937  0.76317  Biso   1.000  H
  H330     1.0000 0.51623  0.69097  0.76037  Biso   1.000  H
  C387     1.0000 0.78533  0.98677  0.82527  Biso   1.000  C
  H331     1.0000 0.76693  0.97267  0.84267  Biso   1.000  H
  H332     1.0000 0.84353  0.00357  0.82407  Biso   1.000  H
  H333     1.0000 0.77743  0.03197  0.81967  Biso   1.000  H
  C388     1.0000 0.78373  0.75847  0.68721  Biso   1.000  C
  C389     1.0000 0.76333  0.81557  0.69996  Biso   1.000  C
  C390     1.0000 0.73593  0.80327  0.72585  Biso   1.000  C
  H334     1.0000 0.72973  0.75697  0.73477  Biso   1.000  H
  C391     1.0000 0.57783  0.87947  0.75797  Biso   1.000  C
  H335     1.0000 0.59603  0.88317  0.74047  Biso   1.000  H
  H336     1.0000 0.52093  0.83497  0.75947  Biso   1.000  H
  H337     1.0000 0.58153  0.93127  0.76287  Biso   1.000  H
  C392     1.0000 0.63523  0.86117  0.77607  Biso   1.000  C
  H338     1.0000 0.76083  0.79067  0.84367  Biso   1.000  H
  H339     1.0000 0.77713  0.74437  0.82117  Biso   1.000  H
  H340     1.0000 0.84043  0.83907  0.82647  Biso   1.000  H
  C393     1.0000 0.73323  0.82117  0.80827  Biso   1.000  C
  C394     1.0000 0.75183  0.83587  0.78207  Biso   1.000  C
  H341     1.0000 0.79923  0.83687  0.77557  Biso   1.000  H
  C395     1.0000 0.62193  0.85357  0.80267  Biso   1.000  C
  H342     1.0000 0.57943  0.86027  0.80977  Biso   1.000  H
  C396     1.0000 0.78253  0.79647  0.82667  Biso   1.000  C
