data_image0
_cell_length_a       18.3194
_cell_length_b       18.3194
_cell_length_c       65.6209
_cell_angle_alpha    90
_cell_angle_beta     90
_cell_angle_gamma    120

_symmetry_space_group_name_H-M    "P 1"
_symmetry_int_tables_number       1

loop_
  _symmetry_equiv_pos_as_xyz
  'x, y, z'

loop_
  _atom_site_label
  _atom_site_occupancy
  _atom_site_fract_x
  _atom_site_fract_y
  _atom_site_fract_z
  _atom_site_thermal_displace_type
  _atom_site_B_iso_or_equiv
  _atom_site_type_symbol
  Cu1      1.0000 0.94951  0.47484  0.48369  Biso   1.000  Cu
  O1       1.0000 0.02490  0.58800  0.47313  Biso   1.000  O
  O2       1.0000 0.88860  0.51860  0.49959  Biso   1.000  O
  O3       1.0000 0.02630  0.43840  0.47315  Biso   1.000  O
  O4       1.0000 0.88820  0.36930  0.49962  Biso   1.000  O
  C1       1.0000 0.09030  0.44900  0.48230  Biso   1.000  C
  C2       1.0000 0.14780  0.42940  0.47270  Biso   1.000  C
  C3       1.0000 0.21160  0.42550  0.48230  Biso   1.000  C
  C4       1.0000 0.13730  0.40280  0.45290  Biso   1.000  C
  C5       1.0000 0.28290  0.42780  0.47240  Biso   1.000  C
  H1       1.0000 0.20910  0.42120  0.49650  Biso   1.000  H
  H2       1.0000 0.09240  0.39920  0.44550  Biso   1.000  H
  C6       1.0000 0.19120  0.38120  0.44360  Biso   1.000  C
  C7       1.0000 0.26800  0.40370  0.45180  Biso   1.000  C
  C8       1.0000 0.35970  0.44870  0.48220  Biso   1.000  C
  C9       1.0000 0.18280  0.35940  0.42080  Biso   1.000  C
  H3       1.0000 0.30990  0.40320  0.44390  Biso   1.000  H
  C10      1.0000 0.18500  0.29100  0.41250  Biso   1.000  C
  C11      1.0000 0.17530  0.41690  0.40820  Biso   1.000  C
  C12      1.0000 0.19300  0.22900  0.42590  Biso   1.000  C
  C13      1.0000 0.17960  0.27920  0.39130  Biso   1.000  C
  C14      1.0000 0.17010  0.40520  0.38710  Biso   1.000  C
  H4       1.0000 0.17370  0.46260  0.41390  Biso   1.000  H
  H5       1.0000 0.24200  0.22610  0.42200  Biso   1.000  H
  H6       1.0000 0.14380  0.17470  0.42460  Biso   1.000  H
  H7       1.0000 0.19920  0.24770  0.43980  Biso   1.000  H
  C15      1.0000 0.17310  0.33690  0.37870  Biso   1.000  C
  H8       1.0000 0.18050  0.23310  0.38570  Biso   1.000  H
  C16      1.0000 0.16200  0.46700  0.37360  Biso   1.000  C
  C17      1.0000 0.17700  0.34400  0.35510  Biso   1.000  C
  H9       1.0000 0.11090  0.46680  0.37690  Biso   1.000  H
  H10      1.0000 0.15990  0.45010  0.35960  Biso   1.000  H
  H11      1.0000 0.20930  0.52200  0.37560  Biso   1.000  H
  C18      1.0000 0.14180  0.38570  0.34420  Biso   1.000  C
  C19      1.0000 0.20320  0.28970  0.34460  Biso   1.000  C
  H12      1.0000 0.12590  0.41960  0.35120  Biso   1.000  H
  C20      1.0000 0.24040  0.24610  0.35650  Biso   1.000  C
  H13      1.0000 0.29790  0.26750  0.35250  Biso   1.000  H
  H14      1.0000 0.23830  0.25620  0.37080  Biso   1.000  H
  H15      1.0000 0.20860  0.18650  0.35390  Biso   1.000  H
  C21      1.0000 0.16500  0.75020  0.40850  Biso   1.000  C
  H16      1.0000 0.16160  0.70230  0.41430  Biso   1.000  H
  C22      1.0000 0.15840  0.75510  0.38740  Biso   1.000  C
  C23      1.0000 0.17520  0.89390  0.39100  Biso   1.000  C
  H17      1.0000 0.17860  0.94180  0.38520  Biso   1.000  H
  C24      1.0000 0.18140  0.88870  0.41220  Biso   1.000  C
  C25      1.0000 0.19400  0.96140  0.42520  Biso   1.000  C
  H18      1.0000 0.18820  0.94530  0.43930  Biso   1.000  H
  H19      1.0000 0.15270  0.97690  0.42180  Biso   1.000  H
  H20      1.0000 0.24950  0.00850  0.42290  Biso   1.000  H
  C26      1.0000 0.14570  0.68310  0.37420  Biso   1.000  C
  H21      1.0000 0.14430  0.69710  0.36010  Biso   1.000  H
  H22      1.0000 0.09340  0.63370  0.37760  Biso   1.000  H
  H23      1.0000 0.19130  0.67220  0.37620  Biso   1.000  H
  Cu2      1.0000 0.61618  0.80817  0.81702  Biso   1.000  Cu
  O5       1.0000 0.69157  0.92133  0.80646  Biso   1.000  O
  O6       1.0000 0.55527  0.85193  0.83292  Biso   1.000  O
  O7       1.0000 0.69297  0.77173  0.80648  Biso   1.000  O
  O8       1.0000 0.55487  0.70263  0.83295  Biso   1.000  O
  C27      1.0000 0.75697  0.78233  0.81563  Biso   1.000  C
  C28      1.0000 0.81447  0.76273  0.80603  Biso   1.000  C
  C29      1.0000 0.87827  0.75883  0.81563  Biso   1.000  C
  C30      1.0000 0.80397  0.73613  0.78623  Biso   1.000  C
  C31      1.0000 0.94957  0.76113  0.80573  Biso   1.000  C
  H24      1.0000 0.87577  0.75453  0.82983  Biso   1.000  H
  H25      1.0000 0.75907  0.73253  0.77883  Biso   1.000  H
  C32      1.0000 0.85787  0.71453  0.77693  Biso   1.000  C
  C33      1.0000 0.93467  0.73703  0.78513  Biso   1.000  C
  C34      1.0000 0.02637  0.78203  0.81553  Biso   1.000  C
  C35      1.0000 0.84947  0.69273  0.75413  Biso   1.000  C
  H26      1.0000 0.97657  0.73653  0.77723  Biso   1.000  H
  C36      1.0000 0.85167  0.62433  0.74583  Biso   1.000  C
  C37      1.0000 0.84197  0.75023  0.74153  Biso   1.000  C
  C38      1.0000 0.85967  0.56233  0.75923  Biso   1.000  C
  C39      1.0000 0.84627  0.61253  0.72463  Biso   1.000  C
  C40      1.0000 0.83677  0.73853  0.72043  Biso   1.000  C
  H27      1.0000 0.84037  0.79593  0.74723  Biso   1.000  H
  H28      1.0000 0.90867  0.55943  0.75533  Biso   1.000  H
  H29      1.0000 0.81047  0.50803  0.75793  Biso   1.000  H
  H30      1.0000 0.86587  0.58103  0.77313  Biso   1.000  H
  C41      1.0000 0.83977  0.67023  0.71203  Biso   1.000  C
  H31      1.0000 0.84717  0.56643  0.71903  Biso   1.000  H
  C42      1.0000 0.82867  0.80033  0.70693  Biso   1.000  C
  C43      1.0000 0.84367  0.67733  0.68843  Biso   1.000  C
  H32      1.0000 0.77757  0.80013  0.71023  Biso   1.000  H
  H33      1.0000 0.82657  0.78343  0.69293  Biso   1.000  H
  H34      1.0000 0.87597  0.85533  0.70893  Biso   1.000  H
  C44      1.0000 0.80847  0.71903  0.67753  Biso   1.000  C
  C45      1.0000 0.86987  0.62303  0.67793  Biso   1.000  C
  H35      1.0000 0.79257  0.75293  0.68453  Biso   1.000  H
  C46      1.0000 0.90707  0.57943  0.68983  Biso   1.000  C
  H36      1.0000 0.96457  0.60083  0.68583  Biso   1.000  H
  H37      1.0000 0.90497  0.58953  0.70413  Biso   1.000  H
  H38      1.0000 0.87527  0.51983  0.68723  Biso   1.000  H
  C47      1.0000 0.83167  0.08353  0.74183  Biso   1.000  C
  H39      1.0000 0.82827  0.03563  0.74763  Biso   1.000  H
  C48      1.0000 0.82507  0.08843  0.72073  Biso   1.000  C
  C49      1.0000 0.84187  0.22723  0.72433  Biso   1.000  C
  H40      1.0000 0.84527  0.27513  0.71853  Biso   1.000  H
  C50      1.0000 0.84807  0.22203  0.74553  Biso   1.000  C
  C51      1.0000 0.86067  0.29473  0.75853  Biso   1.000  C
  H41      1.0000 0.85487  0.27863  0.77263  Biso   1.000  H
  H42      1.0000 0.81937  0.31023  0.75513  Biso   1.000  H
  H43      1.0000 0.91617  0.34183  0.75623  Biso   1.000  H
  C52      1.0000 0.81237  0.01643  0.70753  Biso   1.000  C
  H44      1.0000 0.81097  0.03043  0.69343  Biso   1.000  H
  H45      1.0000 0.76007  0.96703  0.71093  Biso   1.000  H
  H46      1.0000 0.85797  0.00553  0.70953  Biso   1.000  H
  Cu3      1.0000 0.28284  0.14151  0.15036  Biso   1.000  Cu
  O9       1.0000 0.35823  0.25467  0.13980  Biso   1.000  O
  O10      1.0000 0.22193  0.18527  0.16626  Biso   1.000  O
  O11      1.0000 0.35963  0.10507  0.13982  Biso   1.000  O
  O12      1.0000 0.22153  0.03597  0.16629  Biso   1.000  O
  C53      1.0000 0.42363  0.11567  0.14897  Biso   1.000  C
  C54      1.0000 0.48113  0.09607  0.13937  Biso   1.000  C
  C55      1.0000 0.54493  0.09217  0.14897  Biso   1.000  C
  C56      1.0000 0.47063  0.06947  0.11957  Biso   1.000  C
  C57      1.0000 0.61623  0.09447  0.13907  Biso   1.000  C
  H47      1.0000 0.54243  0.08787  0.16317  Biso   1.000  H
  H48      1.0000 0.42573  0.06587  0.11217  Biso   1.000  H
  C58      1.0000 0.52453  0.04787  0.11027  Biso   1.000  C
  C59      1.0000 0.60133  0.07037  0.11847  Biso   1.000  C
  C60      1.0000 0.69303  0.11537  0.14887  Biso   1.000  C
  C61      1.0000 0.51613  0.02607  0.08747  Biso   1.000  C
  H49      1.0000 0.64323  0.06987  0.11057  Biso   1.000  H
  C62      1.0000 0.51833  0.95767  0.07917  Biso   1.000  C
  C63      1.0000 0.50863  0.08357  0.07487  Biso   1.000  C
  C64      1.0000 0.52633  0.89567  0.09257  Biso   1.000  C
  C65      1.0000 0.51293  0.94587  0.05797  Biso   1.000  C
  C66      1.0000 0.50343  0.07187  0.05377  Biso   1.000  C
  H50      1.0000 0.50703  0.12927  0.08057  Biso   1.000  H
  H51      1.0000 0.57533  0.89277  0.08867  Biso   1.000  H
  H52      1.0000 0.47713  0.84137  0.09127  Biso   1.000  H
  H53      1.0000 0.53253  0.91437  0.10647  Biso   1.000  H
  C67      1.0000 0.50643  0.00357  0.04537  Biso   1.000  C
  H54      1.0000 0.51383  0.89977  0.05237  Biso   1.000  H
  C68      1.0000 0.49533  0.13367  0.04027  Biso   1.000  C
  C69      1.0000 0.51033  0.01067  0.02177  Biso   1.000  C
  H55      1.0000 0.44423  0.13347  0.04357  Biso   1.000  H
  H56      1.0000 0.49323  0.11677  0.02627  Biso   1.000  H
  H57      1.0000 0.54263  0.18867  0.04227  Biso   1.000  H
  C70      1.0000 0.47513  0.05237  0.01087  Biso   1.000  C
  C71      1.0000 0.53653  0.95637  0.01127  Biso   1.000  C
  H58      1.0000 0.45923  0.08627  0.01787  Biso   1.000  H
  C72      1.0000 0.57373  0.91277  0.02317  Biso   1.000  C
  H59      1.0000 0.63123  0.93417  0.01917  Biso   1.000  H
  H60      1.0000 0.57163  0.92287  0.03747  Biso   1.000  H
  H61      1.0000 0.54193  0.85317  0.02057  Biso   1.000  H
  C73      1.0000 0.49833  0.41687  0.07517  Biso   1.000  C
  H62      1.0000 0.49493  0.36897  0.08097  Biso   1.000  H
  C74      1.0000 0.49173  0.42177  0.05407  Biso   1.000  C
  C75      1.0000 0.50853  0.56057  0.05767  Biso   1.000  C
  H63      1.0000 0.51193  0.60847  0.05187  Biso   1.000  H
  C76      1.0000 0.51473  0.55537  0.07887  Biso   1.000  C
  C77      1.0000 0.52733  0.62807  0.09187  Biso   1.000  C
  H64      1.0000 0.52153  0.61197  0.10597  Biso   1.000  H
  H65      1.0000 0.48603  0.64357  0.08847  Biso   1.000  H
  H66      1.0000 0.58283  0.67517  0.08957  Biso   1.000  H
  C78      1.0000 0.47903  0.34977  0.04087  Biso   1.000  C
  H67      1.0000 0.47763  0.36377  0.02677  Biso   1.000  H
  H68      1.0000 0.42673  0.30037  0.04427  Biso   1.000  H
  H69      1.0000 0.52463  0.33887  0.04287  Biso   1.000  H
  Cu4      1.0000 0.52516  0.47467  0.48369  Biso   1.000  Cu
  O13      1.0000 0.41200  0.43690  0.47313  Biso   1.000  O
  O14      1.0000 0.48140  0.37000  0.49959  Biso   1.000  O
  O15      1.0000 0.56160  0.58790  0.47315  Biso   1.000  O
  O16      1.0000 0.63070  0.51890  0.49962  Biso   1.000  O
  C79      1.0000 0.55100  0.64130  0.48230  Biso   1.000  C
  C80      1.0000 0.57060  0.71840  0.47270  Biso   1.000  C
  C81      1.0000 0.57450  0.78610  0.48230  Biso   1.000  C
  C82      1.0000 0.59720  0.73450  0.45290  Biso   1.000  C
  C83      1.0000 0.57220  0.85510  0.47240  Biso   1.000  C
  H70      1.0000 0.57880  0.78790  0.49650  Biso   1.000  H
  H71      1.0000 0.60080  0.69320  0.44550  Biso   1.000  H
  C84      1.0000 0.61880  0.81000  0.44360  Biso   1.000  C
  C85      1.0000 0.59630  0.86430  0.45180  Biso   1.000  C
  C86      1.0000 0.55130  0.91100  0.48220  Biso   1.000  C
  C87      1.0000 0.64060  0.82340  0.42080  Biso   1.000  C
  H72      1.0000 0.59680  0.90670  0.44390  Biso   1.000  H
  C88      1.0000 0.70900  0.89400  0.41250  Biso   1.000  C
  C89      1.0000 0.58310  0.75840  0.40820  Biso   1.000  C
  C90      1.0000 0.77100  0.96400  0.42590  Biso   1.000  C
  C91      1.0000 0.72080  0.90040  0.39130  Biso   1.000  C
  C92      1.0000 0.59480  0.76490  0.38710  Biso   1.000  C
  H73      1.0000 0.53740  0.71110  0.41390  Biso   1.000  H
  H74      1.0000 0.77390  0.01590  0.42200  Biso   1.000  H
  H75      1.0000 0.82530  0.96910  0.42460  Biso   1.000  H
  H76      1.0000 0.75230  0.95150  0.43980  Biso   1.000  H
  C93      1.0000 0.66310  0.83620  0.37870  Biso   1.000  C
  H77      1.0000 0.76690  0.94740  0.38570  Biso   1.000  H
  C94      1.0000 0.53300  0.69500  0.37360  Biso   1.000  C
  C95      1.0000 0.65600  0.83300  0.35510  Biso   1.000  C
  H78      1.0000 0.53320  0.64410  0.37690  Biso   1.000  H
  H79      1.0000 0.54990  0.70980  0.35960  Biso   1.000  H
  H80      1.0000 0.47800  0.68730  0.37560  Biso   1.000  H
  C96      1.0000 0.61430  0.75610  0.34420  Biso   1.000  C
  C97      1.0000 0.71030  0.91350  0.34460  Biso   1.000  C
  H81      1.0000 0.58040  0.70630  0.35120  Biso   1.000  H
  C98      1.0000 0.75390  0.99430  0.35650  Biso   1.000  C
  H82      1.0000 0.73250  0.03040  0.35250  Biso   1.000  H
  H83      1.0000 0.74380  0.98210  0.37080  Biso   1.000  H
  H84      1.0000 0.81350  0.02210  0.35390  Biso   1.000  H
  C99      1.0000 0.24980  0.41480  0.40850  Biso   1.000  C
  H85      1.0000 0.29770  0.45930  0.41430  Biso   1.000  H
  C100     1.0000 0.24490  0.40330  0.38740  Biso   1.000  C
  C101     1.0000 0.10610  0.28130  0.39100  Biso   1.000  C
  H86      1.0000 0.05820  0.23680  0.38520  Biso   1.000  H
  C102     1.0000 0.11130  0.29270  0.41220  Biso   1.000  C
  C103     1.0000 0.03860  0.23260  0.42520  Biso   1.000  C
  H87      1.0000 0.05470  0.24290  0.43930  Biso   1.000  H
  H88      1.0000 0.02310  0.17580  0.42180  Biso   1.000  H
  H89      1.0000 0.99150  0.24100  0.42290  Biso   1.000  H
  C104     1.0000 0.31690  0.46260  0.37420  Biso   1.000  C
  H90      1.0000 0.30290  0.44720  0.36010  Biso   1.000  H
  H91      1.0000 0.36630  0.45970  0.37760  Biso   1.000  H
  H92      1.0000 0.32780  0.51910  0.37620  Biso   1.000  H
  Cu5      1.0000 0.19183  0.80800  0.81702  Biso   1.000  Cu
  O17      1.0000 0.07867  0.77023  0.80646  Biso   1.000  O
  O18      1.0000 0.14807  0.70333  0.83292  Biso   1.000  O
  O19      1.0000 0.22827  0.92123  0.80648  Biso   1.000  O
  O20      1.0000 0.29737  0.85223  0.83295  Biso   1.000  O
  C105     1.0000 0.21767  0.97463  0.81563  Biso   1.000  C
  C106     1.0000 0.23727  0.05173  0.80603  Biso   1.000  C
  C107     1.0000 0.24117  0.11943  0.81563  Biso   1.000  C
  C108     1.0000 0.26387  0.06783  0.78623  Biso   1.000  C
  C109     1.0000 0.23887  0.18843  0.80573  Biso   1.000  C
  H93      1.0000 0.24547  0.12123  0.82983  Biso   1.000  H
  H94      1.0000 0.26747  0.02653  0.77883  Biso   1.000  H
  C110     1.0000 0.28547  0.14333  0.77693  Biso   1.000  C
  C111     1.0000 0.26297  0.19763  0.78513  Biso   1.000  C
  C112     1.0000 0.21797  0.24433  0.81553  Biso   1.000  C
  C113     1.0000 0.30727  0.15673  0.75413  Biso   1.000  C
  H95      1.0000 0.26347  0.24003  0.77723  Biso   1.000  H
  C114     1.0000 0.37567  0.22733  0.74583  Biso   1.000  C
  C115     1.0000 0.24977  0.09173  0.74153  Biso   1.000  C
  C116     1.0000 0.43767  0.29733  0.75923  Biso   1.000  C
  C117     1.0000 0.38747  0.23373  0.72463  Biso   1.000  C
  C118     1.0000 0.26147  0.09823  0.72043  Biso   1.000  C
  H96      1.0000 0.20407  0.04443  0.74723  Biso   1.000  H
  H97      1.0000 0.44057  0.34923  0.75533  Biso   1.000  H
  H98      1.0000 0.49197  0.30243  0.75793  Biso   1.000  H
  H99      1.0000 0.41897  0.28483  0.77313  Biso   1.000  H
  C119     1.0000 0.32977  0.16953  0.71203  Biso   1.000  C
  H100     1.0000 0.43357  0.28073  0.71903  Biso   1.000  H
  C120     1.0000 0.19967  0.02833  0.70693  Biso   1.000  C
  C121     1.0000 0.32267  0.16633  0.68843  Biso   1.000  C
  H101     1.0000 0.19987  0.97743  0.71023  Biso   1.000  H
  H102     1.0000 0.21657  0.04313  0.69293  Biso   1.000  H
  H103     1.0000 0.14467  0.02063  0.70893  Biso   1.000  H
  C122     1.0000 0.28097  0.08943  0.67753  Biso   1.000  C
  C123     1.0000 0.37697  0.24683  0.67793  Biso   1.000  C
  H104     1.0000 0.24707  0.03963  0.68453  Biso   1.000  H
  C124     1.0000 0.42057  0.32763  0.68983  Biso   1.000  C
  H105     1.0000 0.39917  0.36373  0.68583  Biso   1.000  H
  H106     1.0000 0.41047  0.31543  0.70413  Biso   1.000  H
  H107     1.0000 0.48017  0.35543  0.68723  Biso   1.000  H
  C125     1.0000 0.91647  0.74813  0.74183  Biso   1.000  C
  H108     1.0000 0.96437  0.79263  0.74763  Biso   1.000  H
  C126     1.0000 0.91157  0.73663  0.72073  Biso   1.000  C
  C127     1.0000 0.77277  0.61463  0.72433  Biso   1.000  C
  H109     1.0000 0.72487  0.57013  0.71853  Biso   1.000  H
  C128     1.0000 0.77797  0.62603  0.74553  Biso   1.000  C
  C129     1.0000 0.70527  0.56593  0.75853  Biso   1.000  C
  H110     1.0000 0.72137  0.57623  0.77263  Biso   1.000  H
  H111     1.0000 0.68977  0.50913  0.75513  Biso   1.000  H
  H112     1.0000 0.65817  0.57433  0.75623  Biso   1.000  H
  C130     1.0000 0.98357  0.79593  0.70753  Biso   1.000  C
  H113     1.0000 0.96957  0.78053  0.69343  Biso   1.000  H
  H114     1.0000 0.03297  0.79303  0.71093  Biso   1.000  H
  H115     1.0000 0.99447  0.85243  0.70953  Biso   1.000  H
  Cu6      1.0000 0.85849  0.14134  0.15036  Biso   1.000  Cu
  O21      1.0000 0.74533  0.10357  0.13980  Biso   1.000  O
  O22      1.0000 0.81473  0.03667  0.16626  Biso   1.000  O
  O23      1.0000 0.89493  0.25457  0.13982  Biso   1.000  O
  O24      1.0000 0.96403  0.18557  0.16629  Biso   1.000  O
  C131     1.0000 0.88433  0.30797  0.14897  Biso   1.000  C
  C132     1.0000 0.90393  0.38507  0.13937  Biso   1.000  C
  C133     1.0000 0.90783  0.45277  0.14897  Biso   1.000  C
  C134     1.0000 0.93053  0.40117  0.11957  Biso   1.000  C
  C135     1.0000 0.90553  0.52177  0.13907  Biso   1.000  C
  H116     1.0000 0.91213  0.45457  0.16317  Biso   1.000  H
  H117     1.0000 0.93413  0.35987  0.11217  Biso   1.000  H
  C136     1.0000 0.95213  0.47667  0.11027  Biso   1.000  C
  C137     1.0000 0.92963  0.53097  0.11847  Biso   1.000  C
  C138     1.0000 0.88463  0.57767  0.14887  Biso   1.000  C
  C139     1.0000 0.97393  0.49007  0.08747  Biso   1.000  C
  H118     1.0000 0.93013  0.57337  0.11057  Biso   1.000  H
  C140     1.0000 0.04233  0.56067  0.07917  Biso   1.000  C
  C141     1.0000 0.91643  0.42507  0.07487  Biso   1.000  C
  C142     1.0000 0.10433  0.63067  0.09257  Biso   1.000  C
  C143     1.0000 0.05413  0.56707  0.05797  Biso   1.000  C
  C144     1.0000 0.92813  0.43157  0.05377  Biso   1.000  C
  H119     1.0000 0.87073  0.37777  0.08057  Biso   1.000  H
  H120     1.0000 0.10723  0.68257  0.08867  Biso   1.000  H
  H121     1.0000 0.15863  0.63577  0.09127  Biso   1.000  H
  H122     1.0000 0.08563  0.61817  0.10647  Biso   1.000  H
  C145     1.0000 0.99643  0.50287  0.04537  Biso   1.000  C
  H123     1.0000 0.10023  0.61407  0.05237  Biso   1.000  H
  C146     1.0000 0.86633  0.36167  0.04027  Biso   1.000  C
  C147     1.0000 0.98933  0.49967  0.02177  Biso   1.000  C
  H124     1.0000 0.86653  0.31077  0.04357  Biso   1.000  H
  H125     1.0000 0.88323  0.37647  0.02627  Biso   1.000  H
  H126     1.0000 0.81133  0.35397  0.04227  Biso   1.000  H
  C148     1.0000 0.94763  0.42277  0.01087  Biso   1.000  C
  C149     1.0000 0.04363  0.58017  0.01127  Biso   1.000  C
  H127     1.0000 0.91373  0.37297  0.01787  Biso   1.000  H
  C150     1.0000 0.08723  0.66097  0.02317  Biso   1.000  C
  H128     1.0000 0.06583  0.69707  0.01917  Biso   1.000  H
  H129     1.0000 0.07713  0.64877  0.03747  Biso   1.000  H
  H130     1.0000 0.14683  0.68877  0.02057  Biso   1.000  H
  C151     1.0000 0.58313  0.08147  0.07517  Biso   1.000  C
  H131     1.0000 0.63103  0.12597  0.08097  Biso   1.000  H
  C152     1.0000 0.57823  0.06997  0.05407  Biso   1.000  C
  C153     1.0000 0.43943  0.94797  0.05767  Biso   1.000  C
  H132     1.0000 0.39153  0.90347  0.05187  Biso   1.000  H
  C154     1.0000 0.44463  0.95937  0.07887  Biso   1.000  C
  C155     1.0000 0.37193  0.89927  0.09187  Biso   1.000  C
  H133     1.0000 0.38803  0.90957  0.10597  Biso   1.000  H
  H134     1.0000 0.35643  0.84247  0.08847  Biso   1.000  H
  H135     1.0000 0.32483  0.90767  0.08957  Biso   1.000  H
  C156     1.0000 0.65023  0.12927  0.04087  Biso   1.000  C
  H136     1.0000 0.63623  0.11387  0.02677  Biso   1.000  H
  H137     1.0000 0.69963  0.12637  0.04427  Biso   1.000  H
  H138     1.0000 0.66113  0.18577  0.04287  Biso   1.000  H
  Cu7      1.0000 0.52533  0.05049  0.48369  Biso   1.000  Cu
  O25      1.0000 0.56310  0.97510  0.47313  Biso   1.000  O
  O26      1.0000 0.63000  0.11140  0.49959  Biso   1.000  O
  O27      1.0000 0.41210  0.97370  0.47315  Biso   1.000  O
  O28      1.0000 0.48110  0.11180  0.49962  Biso   1.000  O
  C157     1.0000 0.35870  0.90970  0.48230  Biso   1.000  C
  C158     1.0000 0.28160  0.85220  0.47270  Biso   1.000  C
  C159     1.0000 0.21390  0.78840  0.48230  Biso   1.000  C
  C160     1.0000 0.26550  0.86270  0.45290  Biso   1.000  C
  C161     1.0000 0.14490  0.71710  0.47240  Biso   1.000  C
  H139     1.0000 0.21210  0.79090  0.49650  Biso   1.000  H
  H140     1.0000 0.30680  0.90760  0.44550  Biso   1.000  H
  C162     1.0000 0.19000  0.80880  0.44360  Biso   1.000  C
  C163     1.0000 0.13570  0.73200  0.45180  Biso   1.000  C
  C164     1.0000 0.08900  0.64030  0.48220  Biso   1.000  C
  C165     1.0000 0.17660  0.81720  0.42080  Biso   1.000  C
  H141     1.0000 0.09330  0.69010  0.44390  Biso   1.000  H
  C166     1.0000 0.10600  0.81500  0.41250  Biso   1.000  C
  C167     1.0000 0.24160  0.82470  0.40820  Biso   1.000  C
  C168     1.0000 0.03600  0.80700  0.42590  Biso   1.000  C
  C169     1.0000 0.09960  0.82040  0.39130  Biso   1.000  C
  C170     1.0000 0.23510  0.82990  0.38710  Biso   1.000  C
  H142     1.0000 0.28890  0.82630  0.41390  Biso   1.000  H
  H143     1.0000 0.98410  0.75800  0.42200  Biso   1.000  H
  H144     1.0000 0.03090  0.85620  0.42460  Biso   1.000  H
  H145     1.0000 0.04850  0.80080  0.43980  Biso   1.000  H
  C171     1.0000 0.16380  0.82690  0.37870  Biso   1.000  C
  H146     1.0000 0.05260  0.81950  0.38570  Biso   1.000  H
  C172     1.0000 0.30500  0.83800  0.37360  Biso   1.000  C
  C173     1.0000 0.16700  0.82300  0.35510  Biso   1.000  C
  H147     1.0000 0.35590  0.88910  0.37690  Biso   1.000  H
  H148     1.0000 0.29020  0.84010  0.35960  Biso   1.000  H
  H149     1.0000 0.31270  0.79070  0.37560  Biso   1.000  H
  C174     1.0000 0.24390  0.85820  0.34420  Biso   1.000  C
  C175     1.0000 0.08650  0.79680  0.34460  Biso   1.000  C
  H150     1.0000 0.29370  0.87410  0.35120  Biso   1.000  H
  C176     1.0000 0.00570  0.75960  0.35650  Biso   1.000  C
  H151     1.0000 0.96960  0.70210  0.35250  Biso   1.000  H
  H152     1.0000 0.01790  0.76170  0.37080  Biso   1.000  H
  H153     1.0000 0.97790  0.79140  0.35390  Biso   1.000  H
  C177     1.0000 0.58520  0.83500  0.40850  Biso   1.000  C
  H154     1.0000 0.54070  0.83840  0.41430  Biso   1.000  H
  C178     1.0000 0.59670  0.84160  0.38740  Biso   1.000  C
  C179     1.0000 0.71870  0.82480  0.39100  Biso   1.000  C
  H155     1.0000 0.76320  0.82140  0.38520  Biso   1.000  H
  C180     1.0000 0.70730  0.81860  0.41220  Biso   1.000  C
  C181     1.0000 0.76740  0.80600  0.42520  Biso   1.000  C
  H156     1.0000 0.75710  0.81180  0.43930  Biso   1.000  H
  H157     1.0000 0.82420  0.84730  0.42180  Biso   1.000  H
  H158     1.0000 0.75900  0.75050  0.42290  Biso   1.000  H
  C182     1.0000 0.53740  0.85430  0.37420  Biso   1.000  C
  H159     1.0000 0.55280  0.85570  0.36010  Biso   1.000  H
  H160     1.0000 0.54030  0.90660  0.37760  Biso   1.000  H
  H161     1.0000 0.48090  0.80870  0.37620  Biso   1.000  H
  Cu8      1.0000 0.19200  0.38382  0.81702  Biso   1.000  Cu
  O29      1.0000 0.22977  0.30843  0.80646  Biso   1.000  O
  O30      1.0000 0.29667  0.44473  0.83292  Biso   1.000  O
  O31      1.0000 0.07877  0.30703  0.80648  Biso   1.000  O
  O32      1.0000 0.14777  0.44513  0.83295  Biso   1.000  O
  C183     1.0000 0.02537  0.24303  0.81563  Biso   1.000  C
  C184     1.0000 0.94827  0.18553  0.80603  Biso   1.000  C
  C185     1.0000 0.88057  0.12173  0.81563  Biso   1.000  C
  C186     1.0000 0.93217  0.19603  0.78623  Biso   1.000  C
  C187     1.0000 0.81157  0.05043  0.80573  Biso   1.000  C
  H162     1.0000 0.87877  0.12423  0.82983  Biso   1.000  H
  H163     1.0000 0.97347  0.24093  0.77883  Biso   1.000  H
  C188     1.0000 0.85667  0.14213  0.77693  Biso   1.000  C
  C189     1.0000 0.80237  0.06533  0.78513  Biso   1.000  C
  C190     1.0000 0.75567  0.97363  0.81553  Biso   1.000  C
  C191     1.0000 0.84327  0.15053  0.75413  Biso   1.000  C
  H164     1.0000 0.75997  0.02343  0.77723  Biso   1.000  H
  C192     1.0000 0.77267  0.14833  0.74583  Biso   1.000  C
  C193     1.0000 0.90827  0.15803  0.74153  Biso   1.000  C
  C194     1.0000 0.70267  0.14033  0.75923  Biso   1.000  C
  C195     1.0000 0.76627  0.15373  0.72463  Biso   1.000  C
  C196     1.0000 0.90177  0.16323  0.72043  Biso   1.000  C
  H165     1.0000 0.95557  0.15963  0.74723  Biso   1.000  H
  H166     1.0000 0.65077  0.09133  0.75533  Biso   1.000  H
  H167     1.0000 0.69757  0.18953  0.75793  Biso   1.000  H
  H168     1.0000 0.71517  0.13413  0.77313  Biso   1.000  H
  C197     1.0000 0.83047  0.16023  0.71203  Biso   1.000  C
  H169     1.0000 0.71927  0.15283  0.71903  Biso   1.000  H
  C198     1.0000 0.97167  0.17133  0.70693  Biso   1.000  C
  C199     1.0000 0.83367  0.15633  0.68843  Biso   1.000  C
  H170     1.0000 0.02257  0.22243  0.71023  Biso   1.000  H
  H171     1.0000 0.95687  0.17343  0.69293  Biso   1.000  H
  H172     1.0000 0.97937  0.12403  0.70893  Biso   1.000  H
  C200     1.0000 0.91057  0.19153  0.67753  Biso   1.000  C
  C201     1.0000 0.75317  0.13013  0.67793  Biso   1.000  C
  H173     1.0000 0.96037  0.20743  0.68453  Biso   1.000  H
  C202     1.0000 0.67237  0.09293  0.68983  Biso   1.000  C
  H174     1.0000 0.63627  0.03543  0.68583  Biso   1.000  H
  H175     1.0000 0.68457  0.09503  0.70413  Biso   1.000  H
  H176     1.0000 0.64457  0.12473  0.68723  Biso   1.000  H
  C203     1.0000 0.25187  0.16833  0.74183  Biso   1.000  C
  H177     1.0000 0.20737  0.17173  0.74763  Biso   1.000  H
  C204     1.0000 0.26337  0.17493  0.72073  Biso   1.000  C
  C205     1.0000 0.38537  0.15813  0.72433  Biso   1.000  C
  H178     1.0000 0.42987  0.15473  0.71853  Biso   1.000  H
  C206     1.0000 0.37397  0.15193  0.74553  Biso   1.000  C
  C207     1.0000 0.43407  0.13933  0.75853  Biso   1.000  C
  H179     1.0000 0.42377  0.14513  0.77263  Biso   1.000  H
  H180     1.0000 0.49087  0.18063  0.75513  Biso   1.000  H
  H181     1.0000 0.42567  0.08383  0.75623  Biso   1.000  H
  C208     1.0000 0.20407  0.18763  0.70753  Biso   1.000  C
  H182     1.0000 0.21947  0.18903  0.69343  Biso   1.000  H
  H183     1.0000 0.20697  0.23993  0.71093  Biso   1.000  H
  H184     1.0000 0.14757  0.14203  0.70953  Biso   1.000  H
  Cu9      1.0000 0.85866  0.71716  0.15036  Biso   1.000  Cu
  O33      1.0000 0.89643  0.64177  0.13980  Biso   1.000  O
  O34      1.0000 0.96333  0.77807  0.16626  Biso   1.000  O
  O35      1.0000 0.74543  0.64037  0.13982  Biso   1.000  O
  O36      1.0000 0.81443  0.77847  0.16629  Biso   1.000  O
  C209     1.0000 0.69203  0.57637  0.14897  Biso   1.000  C
  C210     1.0000 0.61493  0.51887  0.13937  Biso   1.000  C
  C211     1.0000 0.54723  0.45507  0.14897  Biso   1.000  C
  C212     1.0000 0.59883  0.52937  0.11957  Biso   1.000  C
  C213     1.0000 0.47823  0.38377  0.13907  Biso   1.000  C
  H185     1.0000 0.54543  0.45757  0.16317  Biso   1.000  H
  H186     1.0000 0.64013  0.57427  0.11217  Biso   1.000  H
  C214     1.0000 0.52333  0.47547  0.11027  Biso   1.000  C
  C215     1.0000 0.46903  0.39867  0.11847  Biso   1.000  C
  C216     1.0000 0.42233  0.30697  0.14887  Biso   1.000  C
  C217     1.0000 0.50993  0.48387  0.08747  Biso   1.000  C
  H187     1.0000 0.42663  0.35677  0.11057  Biso   1.000  H
  C218     1.0000 0.43933  0.48167  0.07917  Biso   1.000  C
  C219     1.0000 0.57493  0.49137  0.07487  Biso   1.000  C
  C220     1.0000 0.36933  0.47367  0.09257  Biso   1.000  C
  C221     1.0000 0.43293  0.48707  0.05797  Biso   1.000  C
  C222     1.0000 0.56843  0.49657  0.05377  Biso   1.000  C
  H188     1.0000 0.62223  0.49297  0.08057  Biso   1.000  H
  H189     1.0000 0.31743  0.42467  0.08867  Biso   1.000  H
  H190     1.0000 0.36423  0.52287  0.09127  Biso   1.000  H
  H191     1.0000 0.38183  0.46747  0.10647  Biso   1.000  H
  C223     1.0000 0.49713  0.49357  0.04537  Biso   1.000  C
  H192     1.0000 0.38593  0.48617  0.05237  Biso   1.000  H
  C224     1.0000 0.63833  0.50467  0.04027  Biso   1.000  C
  C225     1.0000 0.50033  0.48967  0.02177  Biso   1.000  C
  H193     1.0000 0.68923  0.55577  0.04357  Biso   1.000  H
  H194     1.0000 0.62353  0.50677  0.02627  Biso   1.000  H
  H195     1.0000 0.64603  0.45737  0.04227  Biso   1.000  H
  C226     1.0000 0.57723  0.52487  0.01087  Biso   1.000  C
  C227     1.0000 0.41983  0.46347  0.01127  Biso   1.000  C
  H196     1.0000 0.62703  0.54077  0.01787  Biso   1.000  H
  C228     1.0000 0.33903  0.42627  0.02317  Biso   1.000  C
  H197     1.0000 0.30293  0.36877  0.01917  Biso   1.000  H
  H198     1.0000 0.35123  0.42837  0.03747  Biso   1.000  H
  H199     1.0000 0.31123  0.45807  0.02057  Biso   1.000  H
  C229     1.0000 0.91853  0.50167  0.07517  Biso   1.000  C
  H200     1.0000 0.87403  0.50507  0.08097  Biso   1.000  H
  C230     1.0000 0.93003  0.50827  0.05407  Biso   1.000  C
  C231     1.0000 0.05203  0.49147  0.05767  Biso   1.000  C
  H201     1.0000 0.09653  0.48807  0.05187  Biso   1.000  H
  C232     1.0000 0.04063  0.48527  0.07887  Biso   1.000  C
  C233     1.0000 0.10073  0.47267  0.09187  Biso   1.000  C
  H202     1.0000 0.09043  0.47847  0.10597  Biso   1.000  H
  H203     1.0000 0.15753  0.51397  0.08847  Biso   1.000  H
  H204     1.0000 0.09233  0.41717  0.08957  Biso   1.000  H
  C234     1.0000 0.87073  0.52097  0.04087  Biso   1.000  C
  H205     1.0000 0.88613  0.52237  0.02677  Biso   1.000  H
  H206     1.0000 0.87363  0.57327  0.04427  Biso   1.000  H
  H207     1.0000 0.81423  0.47537  0.04287  Biso   1.000  H
  Cu10     1.0000 0.05049  0.52516  0.51631  Biso   1.000  Cu
  O37      1.0000 0.97510  0.41200  0.52687  Biso   1.000  O
  O38      1.0000 0.11140  0.48140  0.50041  Biso   1.000  O
  O39      1.0000 0.97370  0.56160  0.52685  Biso   1.000  O
  O40      1.0000 0.11180  0.63070  0.50038  Biso   1.000  O
  C235     1.0000 0.90970  0.55100  0.51770  Biso   1.000  C
  C236     1.0000 0.85220  0.57060  0.52730  Biso   1.000  C
  C237     1.0000 0.78840  0.57450  0.51770  Biso   1.000  C
  C238     1.0000 0.86270  0.59720  0.54710  Biso   1.000  C
  C239     1.0000 0.71710  0.57220  0.52760  Biso   1.000  C
  H208     1.0000 0.79090  0.57880  0.50350  Biso   1.000  H
  H209     1.0000 0.90760  0.60080  0.55450  Biso   1.000  H
  C240     1.0000 0.80880  0.61880  0.55640  Biso   1.000  C
  C241     1.0000 0.73200  0.59630  0.54820  Biso   1.000  C
  C242     1.0000 0.64030  0.55130  0.51780  Biso   1.000  C
  C243     1.0000 0.81720  0.64060  0.57920  Biso   1.000  C
  H210     1.0000 0.69010  0.59680  0.55610  Biso   1.000  H
  C244     1.0000 0.81500  0.70900  0.58750  Biso   1.000  C
  C245     1.0000 0.82470  0.58310  0.59180  Biso   1.000  C
  C246     1.0000 0.80700  0.77100  0.57410  Biso   1.000  C
  C247     1.0000 0.82040  0.72080  0.60870  Biso   1.000  C
  C248     1.0000 0.82990  0.59480  0.61290  Biso   1.000  C
  H211     1.0000 0.82630  0.53740  0.58610  Biso   1.000  H
  H212     1.0000 0.75800  0.77390  0.57800  Biso   1.000  H
  H213     1.0000 0.85620  0.82530  0.57540  Biso   1.000  H
  H214     1.0000 0.80080  0.75230  0.56020  Biso   1.000  H
  C249     1.0000 0.82690  0.66310  0.62130  Biso   1.000  C
  H215     1.0000 0.81950  0.76690  0.61430  Biso   1.000  H
  C250     1.0000 0.83800  0.53300  0.62640  Biso   1.000  C
  C251     1.0000 0.82300  0.65600  0.64490  Biso   1.000  C
  H216     1.0000 0.88910  0.53320  0.62310  Biso   1.000  H
  H217     1.0000 0.84010  0.54990  0.64040  Biso   1.000  H
  H218     1.0000 0.79070  0.47800  0.62440  Biso   1.000  H
  C252     1.0000 0.85820  0.61430  0.65580  Biso   1.000  C
  C253     1.0000 0.79680  0.71030  0.65540  Biso   1.000  C
  H219     1.0000 0.87410  0.58040  0.64880  Biso   1.000  H
  C254     1.0000 0.75960  0.75390  0.64350  Biso   1.000  C
  H220     1.0000 0.70210  0.73250  0.64750  Biso   1.000  H
  H221     1.0000 0.76170  0.74380  0.62920  Biso   1.000  H
  H222     1.0000 0.79140  0.81350  0.64610  Biso   1.000  H
  C255     1.0000 0.83500  0.24980  0.59150  Biso   1.000  C
  H223     1.0000 0.83840  0.29770  0.58570  Biso   1.000  H
  C256     1.0000 0.84160  0.24490  0.61260  Biso   1.000  C
  C257     1.0000 0.82480  0.10610  0.60900  Biso   1.000  C
  H224     1.0000 0.82140  0.05820  0.61480  Biso   1.000  H
  C258     1.0000 0.81860  0.11130  0.58780  Biso   1.000  C
  C259     1.0000 0.80600  0.03860  0.57480  Biso   1.000  C
  H225     1.0000 0.81180  0.05470  0.56070  Biso   1.000  H
  H226     1.0000 0.84730  0.02310  0.57820  Biso   1.000  H
  H227     1.0000 0.75050  0.99150  0.57710  Biso   1.000  H
  C260     1.0000 0.85430  0.31690  0.62580  Biso   1.000  C
  H228     1.0000 0.85570  0.30290  0.63990  Biso   1.000  H
  H229     1.0000 0.90660  0.36630  0.62240  Biso   1.000  H
  H230     1.0000 0.80870  0.32780  0.62380  Biso   1.000  H
  Cu11     1.0000 0.71716  0.85849  0.84964  Biso   1.000  Cu
  O41      1.0000 0.64177  0.74533  0.86020  Biso   1.000  O
  O42      1.0000 0.77807  0.81473  0.83374  Biso   1.000  O
  O43      1.0000 0.64037  0.89493  0.86018  Biso   1.000  O
  O44      1.0000 0.77847  0.96403  0.83371  Biso   1.000  O
  C261     1.0000 0.57637  0.88433  0.85103  Biso   1.000  C
  C262     1.0000 0.51887  0.90393  0.86063  Biso   1.000  C
  C263     1.0000 0.45507  0.90783  0.85103  Biso   1.000  C
  C264     1.0000 0.52937  0.93053  0.88043  Biso   1.000  C
  C265     1.0000 0.38377  0.90553  0.86093  Biso   1.000  C
  H231     1.0000 0.45757  0.91213  0.83683  Biso   1.000  H
  H232     1.0000 0.57427  0.93413  0.88783  Biso   1.000  H
  C266     1.0000 0.47547  0.95213  0.88973  Biso   1.000  C
  C267     1.0000 0.39867  0.92963  0.88153  Biso   1.000  C
  C268     1.0000 0.30697  0.88463  0.85113  Biso   1.000  C
  C269     1.0000 0.48387  0.97393  0.91253  Biso   1.000  C
  H233     1.0000 0.35677  0.93013  0.88943  Biso   1.000  H
  C270     1.0000 0.48167  0.04233  0.92083  Biso   1.000  C
  C271     1.0000 0.49137  0.91643  0.92513  Biso   1.000  C
  C272     1.0000 0.47367  0.10433  0.90743  Biso   1.000  C
  C273     1.0000 0.48707  0.05413  0.94203  Biso   1.000  C
  C274     1.0000 0.49657  0.92813  0.94623  Biso   1.000  C
  H234     1.0000 0.49297  0.87073  0.91943  Biso   1.000  H
  H235     1.0000 0.42467  0.10723  0.91133  Biso   1.000  H
  H236     1.0000 0.52287  0.15863  0.90873  Biso   1.000  H
  H237     1.0000 0.46747  0.08563  0.89353  Biso   1.000  H
  C275     1.0000 0.49357  0.99643  0.95463  Biso   1.000  C
  H238     1.0000 0.48617  0.10023  0.94763  Biso   1.000  H
  C276     1.0000 0.50467  0.86633  0.95973  Biso   1.000  C
  C277     1.0000 0.48967  0.98933  0.97823  Biso   1.000  C
  H239     1.0000 0.55577  0.86653  0.95643  Biso   1.000  H
  H240     1.0000 0.50677  0.88323  0.97373  Biso   1.000  H
  H241     1.0000 0.45737  0.81133  0.95773  Biso   1.000  H
  C278     1.0000 0.52487  0.94763  0.98913  Biso   1.000  C
  C279     1.0000 0.46347  0.04363  0.98873  Biso   1.000  C
  H242     1.0000 0.54077  0.91373  0.98213  Biso   1.000  H
  C280     1.0000 0.42627  0.08723  0.97683  Biso   1.000  C
  H243     1.0000 0.36877  0.06583  0.98083  Biso   1.000  H
  H244     1.0000 0.42837  0.07713  0.96253  Biso   1.000  H
  H245     1.0000 0.45807  0.14683  0.97943  Biso   1.000  H
  C281     1.0000 0.50167  0.58313  0.92483  Biso   1.000  C
  H246     1.0000 0.50507  0.63103  0.91903  Biso   1.000  H
  C282     1.0000 0.50827  0.57823  0.94593  Biso   1.000  C
  C283     1.0000 0.49147  0.43943  0.94233  Biso   1.000  C
  H247     1.0000 0.48807  0.39153  0.94813  Biso   1.000  H
  C284     1.0000 0.48527  0.44463  0.92113  Biso   1.000  C
  C285     1.0000 0.47267  0.37193  0.90813  Biso   1.000  C
  H248     1.0000 0.47847  0.38803  0.89403  Biso   1.000  H
  H249     1.0000 0.51397  0.35643  0.91153  Biso   1.000  H
  H250     1.0000 0.41717  0.32483  0.91043  Biso   1.000  H
  C286     1.0000 0.52097  0.65023  0.95913  Biso   1.000  C
  H251     1.0000 0.52237  0.63623  0.97323  Biso   1.000  H
  H252     1.0000 0.57327  0.69963  0.95573  Biso   1.000  H
  H253     1.0000 0.47537  0.66113  0.95713  Biso   1.000  H
  Cu12     1.0000 0.38382  0.19183  0.18298  Biso   1.000  Cu
  O45      1.0000 0.30843  0.07867  0.19354  Biso   1.000  O
  O46      1.0000 0.44473  0.14807  0.16708  Biso   1.000  O
  O47      1.0000 0.30703  0.22827  0.19352  Biso   1.000  O
  O48      1.0000 0.44513  0.29737  0.16705  Biso   1.000  O
  C287     1.0000 0.24303  0.21767  0.18437  Biso   1.000  C
  C288     1.0000 0.18553  0.23727  0.19397  Biso   1.000  C
  C289     1.0000 0.12173  0.24117  0.18437  Biso   1.000  C
  C290     1.0000 0.19603  0.26387  0.21377  Biso   1.000  C
  C291     1.0000 0.05043  0.23887  0.19427  Biso   1.000  C
  H254     1.0000 0.12423  0.24547  0.17017  Biso   1.000  H
  H255     1.0000 0.24093  0.26747  0.22117  Biso   1.000  H
  C292     1.0000 0.14213  0.28547  0.22307  Biso   1.000  C
  C293     1.0000 0.06533  0.26297  0.21487  Biso   1.000  C
  C294     1.0000 0.97363  0.21797  0.18447  Biso   1.000  C
  C295     1.0000 0.15053  0.30727  0.24587  Biso   1.000  C
  H256     1.0000 0.02343  0.26347  0.22277  Biso   1.000  H
  C296     1.0000 0.14833  0.37567  0.25417  Biso   1.000  C
  C297     1.0000 0.15803  0.24977  0.25847  Biso   1.000  C
  C298     1.0000 0.14033  0.43767  0.24077  Biso   1.000  C
  C299     1.0000 0.15373  0.38747  0.27537  Biso   1.000  C
  C300     1.0000 0.16323  0.26147  0.27957  Biso   1.000  C
  H257     1.0000 0.15963  0.20407  0.25277  Biso   1.000  H
  H258     1.0000 0.09133  0.44057  0.24467  Biso   1.000  H
  H259     1.0000 0.18953  0.49197  0.24207  Biso   1.000  H
  H260     1.0000 0.13413  0.41897  0.22687  Biso   1.000  H
  C301     1.0000 0.16023  0.32977  0.28797  Biso   1.000  C
  H261     1.0000 0.15283  0.43357  0.28097  Biso   1.000  H
  C302     1.0000 0.17133  0.19967  0.29307  Biso   1.000  C
  C303     1.0000 0.15633  0.32267  0.31157  Biso   1.000  C
  H262     1.0000 0.22243  0.19987  0.28977  Biso   1.000  H
  H263     1.0000 0.17343  0.21657  0.30707  Biso   1.000  H
  H264     1.0000 0.12403  0.14467  0.29107  Biso   1.000  H
  C304     1.0000 0.19153  0.28097  0.32247  Biso   1.000  C
  C305     1.0000 0.13013  0.37697  0.32207  Biso   1.000  C
  H265     1.0000 0.20743  0.24707  0.31547  Biso   1.000  H
  C306     1.0000 0.09293  0.42057  0.31017  Biso   1.000  C
  H266     1.0000 0.03543  0.39917  0.31417  Biso   1.000  H
  H267     1.0000 0.09503  0.41047  0.29587  Biso   1.000  H
  H268     1.0000 0.12473  0.48017  0.31277  Biso   1.000  H
  C307     1.0000 0.16833  0.91647  0.25817  Biso   1.000  C
  H269     1.0000 0.17173  0.96437  0.25237  Biso   1.000  H
  C308     1.0000 0.17493  0.91157  0.27927  Biso   1.000  C
  C309     1.0000 0.15813  0.77277  0.27567  Biso   1.000  C
  H270     1.0000 0.15473  0.72487  0.28147  Biso   1.000  H
  C310     1.0000 0.15193  0.77797  0.25447  Biso   1.000  C
  C311     1.0000 0.13933  0.70527  0.24147  Biso   1.000  C
  H271     1.0000 0.14513  0.72137  0.22737  Biso   1.000  H
  H272     1.0000 0.18063  0.68977  0.24487  Biso   1.000  H
  H273     1.0000 0.08383  0.65817  0.24377  Biso   1.000  H
  C312     1.0000 0.18763  0.98357  0.29247  Biso   1.000  C
  H274     1.0000 0.18903  0.96957  0.30657  Biso   1.000  H
  H275     1.0000 0.23993  0.03297  0.28907  Biso   1.000  H
  H276     1.0000 0.14203  0.99447  0.29047  Biso   1.000  H
  Cu13     1.0000 0.47484  0.52533  0.51631  Biso   1.000  Cu
  O49      1.0000 0.58800  0.56310  0.52687  Biso   1.000  O
  O50      1.0000 0.51860  0.63000  0.50041  Biso   1.000  O
  O51      1.0000 0.43840  0.41210  0.52685  Biso   1.000  O
  O52      1.0000 0.36930  0.48110  0.50038  Biso   1.000  O
  C313     1.0000 0.44900  0.35870  0.51770  Biso   1.000  C
  C314     1.0000 0.42940  0.28160  0.52730  Biso   1.000  C
  C315     1.0000 0.42550  0.21390  0.51770  Biso   1.000  C
  C316     1.0000 0.40280  0.26550  0.54710  Biso   1.000  C
  C317     1.0000 0.42780  0.14490  0.52760  Biso   1.000  C
  H277     1.0000 0.42120  0.21210  0.50350  Biso   1.000  H
  H278     1.0000 0.39920  0.30680  0.55450  Biso   1.000  H
  C318     1.0000 0.38120  0.19000  0.55640  Biso   1.000  C
  C319     1.0000 0.40370  0.13570  0.54820  Biso   1.000  C
  C320     1.0000 0.44870  0.08900  0.51780  Biso   1.000  C
  C321     1.0000 0.35940  0.17660  0.57920  Biso   1.000  C
  H279     1.0000 0.40320  0.09330  0.55610  Biso   1.000  H
  C322     1.0000 0.29100  0.10600  0.58750  Biso   1.000  C
  C323     1.0000 0.41690  0.24160  0.59180  Biso   1.000  C
  C324     1.0000 0.22900  0.03600  0.57410  Biso   1.000  C
  C325     1.0000 0.27920  0.09960  0.60870  Biso   1.000  C
  C326     1.0000 0.40520  0.23510  0.61290  Biso   1.000  C
  H280     1.0000 0.46260  0.28890  0.58610  Biso   1.000  H
  H281     1.0000 0.22610  0.98410  0.57800  Biso   1.000  H
  H282     1.0000 0.17470  0.03090  0.57540  Biso   1.000  H
  H283     1.0000 0.24770  0.04850  0.56020  Biso   1.000  H
  C327     1.0000 0.33690  0.16380  0.62130  Biso   1.000  C
  H284     1.0000 0.23310  0.05260  0.61430  Biso   1.000  H
  C328     1.0000 0.46700  0.30500  0.62640  Biso   1.000  C
  C329     1.0000 0.34400  0.16700  0.64490  Biso   1.000  C
  H285     1.0000 0.46680  0.35590  0.62310  Biso   1.000  H
  H286     1.0000 0.45010  0.29020  0.64040  Biso   1.000  H
  H287     1.0000 0.52200  0.31270  0.62440  Biso   1.000  H
  C330     1.0000 0.38570  0.24390  0.65580  Biso   1.000  C
  C331     1.0000 0.28970  0.08650  0.65540  Biso   1.000  C
  H288     1.0000 0.41960  0.29370  0.64880  Biso   1.000  H
  C332     1.0000 0.24610  0.00570  0.64350  Biso   1.000  C
  H289     1.0000 0.26750  0.96960  0.64750  Biso   1.000  H
  H290     1.0000 0.25620  0.01790  0.62920  Biso   1.000  H
  H291     1.0000 0.18650  0.97790  0.64610  Biso   1.000  H
  C333     1.0000 0.75020  0.58520  0.59150  Biso   1.000  C
  H292     1.0000 0.70230  0.54070  0.58570  Biso   1.000  H
  C334     1.0000 0.75510  0.59670  0.61260  Biso   1.000  C
  C335     1.0000 0.89390  0.71870  0.60900  Biso   1.000  C
  H293     1.0000 0.94180  0.76320  0.61480  Biso   1.000  H
  C336     1.0000 0.88870  0.70730  0.58780  Biso   1.000  C
  C337     1.0000 0.96140  0.76740  0.57480  Biso   1.000  C
  H294     1.0000 0.94530  0.75710  0.56070  Biso   1.000  H
  H295     1.0000 0.97690  0.82420  0.57820  Biso   1.000  H
  H296     1.0000 0.00850  0.75900  0.57710  Biso   1.000  H
  C338     1.0000 0.68310  0.53740  0.62580  Biso   1.000  C
  H297     1.0000 0.69710  0.55280  0.63990  Biso   1.000  H
  H298     1.0000 0.63370  0.54030  0.62240  Biso   1.000  H
  H299     1.0000 0.67220  0.48090  0.62380  Biso   1.000  H
  Cu14     1.0000 0.14151  0.85866  0.84964  Biso   1.000  Cu
  O53      1.0000 0.25467  0.89643  0.86020  Biso   1.000  O
  O54      1.0000 0.18527  0.96333  0.83374  Biso   1.000  O
  O55      1.0000 0.10507  0.74543  0.86018  Biso   1.000  O
  O56      1.0000 0.03597  0.81443  0.83371  Biso   1.000  O
  C339     1.0000 0.11567  0.69203  0.85103  Biso   1.000  C
  C340     1.0000 0.09607  0.61493  0.86063  Biso   1.000  C
  C341     1.0000 0.09217  0.54723  0.85103  Biso   1.000  C
  C342     1.0000 0.06947  0.59883  0.88043  Biso   1.000  C
  C343     1.0000 0.09447  0.47823  0.86093  Biso   1.000  C
  H300     1.0000 0.08787  0.54543  0.83683  Biso   1.000  H
  H301     1.0000 0.06587  0.64013  0.88783  Biso   1.000  H
  C344     1.0000 0.04787  0.52333  0.88973  Biso   1.000  C
  C345     1.0000 0.07037  0.46903  0.88153  Biso   1.000  C
  C346     1.0000 0.11537  0.42233  0.85113  Biso   1.000  C
  C347     1.0000 0.02607  0.50993  0.91253  Biso   1.000  C
  H302     1.0000 0.06987  0.42663  0.88943  Biso   1.000  H
  C348     1.0000 0.95767  0.43933  0.92083  Biso   1.000  C
  C349     1.0000 0.08357  0.57493  0.92513  Biso   1.000  C
  C350     1.0000 0.89567  0.36933  0.90743  Biso   1.000  C
  C351     1.0000 0.94587  0.43293  0.94203  Biso   1.000  C
  C352     1.0000 0.07187  0.56843  0.94623  Biso   1.000  C
  H303     1.0000 0.12927  0.62223  0.91943  Biso   1.000  H
  H304     1.0000 0.89277  0.31743  0.91133  Biso   1.000  H
  H305     1.0000 0.84137  0.36423  0.90873  Biso   1.000  H
  H306     1.0000 0.91437  0.38183  0.89353  Biso   1.000  H
  C353     1.0000 0.00357  0.49713  0.95463  Biso   1.000  C
  H307     1.0000 0.89977  0.38593  0.94763  Biso   1.000  H
  C354     1.0000 0.13367  0.63833  0.95973  Biso   1.000  C
  C355     1.0000 0.01067  0.50033  0.97823  Biso   1.000  C
  H308     1.0000 0.13347  0.68923  0.95643  Biso   1.000  H
  H309     1.0000 0.11677  0.62353  0.97373  Biso   1.000  H
  H310     1.0000 0.18867  0.64603  0.95773  Biso   1.000  H
  C356     1.0000 0.05237  0.57723  0.98913  Biso   1.000  C
  C357     1.0000 0.95637  0.41983  0.98873  Biso   1.000  C
  H311     1.0000 0.08627  0.62703  0.98213  Biso   1.000  H
  C358     1.0000 0.91277  0.33903  0.97683  Biso   1.000  C
  H312     1.0000 0.93417  0.30293  0.98083  Biso   1.000  H
  H313     1.0000 0.92287  0.35123  0.96253  Biso   1.000  H
  H314     1.0000 0.85317  0.31123  0.97943  Biso   1.000  H
  C359     1.0000 0.41687  0.91853  0.92483  Biso   1.000  C
  H315     1.0000 0.36897  0.87403  0.91903  Biso   1.000  H
  C360     1.0000 0.42177  0.93003  0.94593  Biso   1.000  C
  C361     1.0000 0.56057  0.05203  0.94233  Biso   1.000  C
  H316     1.0000 0.60847  0.09653  0.94813  Biso   1.000  H
  C362     1.0000 0.55537  0.04063  0.92113  Biso   1.000  C
  C363     1.0000 0.62807  0.10073  0.90813  Biso   1.000  C
  H317     1.0000 0.61197  0.09043  0.89403  Biso   1.000  H
  H318     1.0000 0.64357  0.15753  0.91153  Biso   1.000  H
  H319     1.0000 0.67517  0.09233  0.91043  Biso   1.000  H
  C364     1.0000 0.34977  0.87073  0.95913  Biso   1.000  C
  H320     1.0000 0.36377  0.88613  0.97323  Biso   1.000  H
  H321     1.0000 0.30037  0.87363  0.95573  Biso   1.000  H
  H322     1.0000 0.33887  0.81423  0.95713  Biso   1.000  H
  Cu15     1.0000 0.80817  0.19200  0.18298  Biso   1.000  Cu
  O57      1.0000 0.92133  0.22977  0.19354  Biso   1.000  O
  O58      1.0000 0.85193  0.29667  0.16708  Biso   1.000  O
  O59      1.0000 0.77173  0.07877  0.19352  Biso   1.000  O
  O60      1.0000 0.70263  0.14777  0.16705  Biso   1.000  O
  C365     1.0000 0.78233  0.02537  0.18437  Biso   1.000  C
  C366     1.0000 0.76273  0.94827  0.19397  Biso   1.000  C
  C367     1.0000 0.75883  0.88057  0.18437  Biso   1.000  C
  C368     1.0000 0.73613  0.93217  0.21377  Biso   1.000  C
  C369     1.0000 0.76113  0.81157  0.19427  Biso   1.000  C
  H323     1.0000 0.75453  0.87877  0.17017  Biso   1.000  H
  H324     1.0000 0.73253  0.97347  0.22117  Biso   1.000  H
  C370     1.0000 0.71453  0.85667  0.22307  Biso   1.000  C
  C371     1.0000 0.73703  0.80237  0.21487  Biso   1.000  C
  C372     1.0000 0.78203  0.75567  0.18447  Biso   1.000  C
  C373     1.0000 0.69273  0.84327  0.24587  Biso   1.000  C
  H325     1.0000 0.73653  0.75997  0.22277  Biso   1.000  H
  C374     1.0000 0.62433  0.77267  0.25417  Biso   1.000  C
  C375     1.0000 0.75023  0.90827  0.25847  Biso   1.000  C
  C376     1.0000 0.56233  0.70267  0.24077  Biso   1.000  C
  C377     1.0000 0.61253  0.76627  0.27537  Biso   1.000  C
  C378     1.0000 0.73853  0.90177  0.27957  Biso   1.000  C
  H326     1.0000 0.79593  0.95557  0.25277  Biso   1.000  H
  H327     1.0000 0.55943  0.65077  0.24467  Biso   1.000  H
  H328     1.0000 0.50803  0.69757  0.24207  Biso   1.000  H
  H329     1.0000 0.58103  0.71517  0.22687  Biso   1.000  H
  C379     1.0000 0.67023  0.83047  0.28797  Biso   1.000  C
  H330     1.0000 0.56643  0.71927  0.28097  Biso   1.000  H
  C380     1.0000 0.80033  0.97167  0.29307  Biso   1.000  C
  C381     1.0000 0.67733  0.83367  0.31157  Biso   1.000  C
  H331     1.0000 0.80013  0.02257  0.28977  Biso   1.000  H
  H332     1.0000 0.78343  0.95687  0.30707  Biso   1.000  H
  H333     1.0000 0.85533  0.97937  0.29107  Biso   1.000  H
  C382     1.0000 0.71903  0.91057  0.32247  Biso   1.000  C
  C383     1.0000 0.62303  0.75317  0.32207  Biso   1.000  C
  H334     1.0000 0.75293  0.96037  0.31547  Biso   1.000  H
  C384     1.0000 0.57943  0.67237  0.31017  Biso   1.000  C
  H335     1.0000 0.60083  0.63627  0.31417  Biso   1.000  H
  H336     1.0000 0.58953  0.68457  0.29587  Biso   1.000  H
  H337     1.0000 0.51983  0.64457  0.31277  Biso   1.000  H
  C385     1.0000 0.08353  0.25187  0.25817  Biso   1.000  C
  H338     1.0000 0.03563  0.20737  0.25237  Biso   1.000  H
  C386     1.0000 0.08843  0.26337  0.27927  Biso   1.000  C
  C387     1.0000 0.22723  0.38537  0.27567  Biso   1.000  C
  H339     1.0000 0.27513  0.42987  0.28147  Biso   1.000  H
  C388     1.0000 0.22203  0.37397  0.25447  Biso   1.000  C
  C389     1.0000 0.29473  0.43407  0.24147  Biso   1.000  C
  H340     1.0000 0.27863  0.42377  0.22737  Biso   1.000  H
  H341     1.0000 0.31023  0.49087  0.24487  Biso   1.000  H
  H342     1.0000 0.34183  0.42567  0.24377  Biso   1.000  H
  C390     1.0000 0.01643  0.20407  0.29247  Biso   1.000  C
  H343     1.0000 0.03043  0.21947  0.30657  Biso   1.000  H
  H344     1.0000 0.96703  0.20697  0.28907  Biso   1.000  H
  H345     1.0000 0.00553  0.14757  0.29047  Biso   1.000  H
  Cu16     1.0000 0.47467  0.94951  0.51631  Biso   1.000  Cu
  O61      1.0000 0.43690  0.02490  0.52687  Biso   1.000  O
  O62      1.0000 0.37000  0.88860  0.50041  Biso   1.000  O
  O63      1.0000 0.58790  0.02630  0.52685  Biso   1.000  O
  O64      1.0000 0.51890  0.88820  0.50038  Biso   1.000  O
  C391     1.0000 0.64130  0.09030  0.51770  Biso   1.000  C
  C392     1.0000 0.71840  0.14780  0.52730  Biso   1.000  C
  C393     1.0000 0.78610  0.21160  0.51770  Biso   1.000  C
  C394     1.0000 0.73450  0.13730  0.54710  Biso   1.000  C
  C395     1.0000 0.85510  0.28290  0.52760  Biso   1.000  C
  H346     1.0000 0.78790  0.20910  0.50350  Biso   1.000  H
  H347     1.0000 0.69320  0.09240  0.55450  Biso   1.000  H
  C396     1.0000 0.81000  0.19120  0.55640  Biso   1.000  C
  C397     1.0000 0.86430  0.26800  0.54820  Biso   1.000  C
  C398     1.0000 0.91100  0.35970  0.51780  Biso   1.000  C
  C399     1.0000 0.82340  0.18280  0.57920  Biso   1.000  C
  H348     1.0000 0.90670  0.30990  0.55610  Biso   1.000  H
  C400     1.0000 0.89400  0.18500  0.58750  Biso   1.000  C
  C401     1.0000 0.75840  0.17530  0.59180  Biso   1.000  C
  C402     1.0000 0.96400  0.19300  0.57410  Biso   1.000  C
  C403     1.0000 0.90040  0.17960  0.60870  Biso   1.000  C
  C404     1.0000 0.76490  0.17010  0.61290  Biso   1.000  C
  H349     1.0000 0.71110  0.17370  0.58610  Biso   1.000  H
  H350     1.0000 0.01590  0.24200  0.57800  Biso   1.000  H
  H351     1.0000 0.96910  0.14380  0.57540  Biso   1.000  H
  H352     1.0000 0.95150  0.19920  0.56020  Biso   1.000  H
  C405     1.0000 0.83620  0.17310  0.62130  Biso   1.000  C
  H353     1.0000 0.94740  0.18050  0.61430  Biso   1.000  H
  C406     1.0000 0.69500  0.16200  0.62640  Biso   1.000  C
  C407     1.0000 0.83300  0.17700  0.64490  Biso   1.000  C
  H354     1.0000 0.64410  0.11090  0.62310  Biso   1.000  H
  H355     1.0000 0.70980  0.15990  0.64040  Biso   1.000  H
  H356     1.0000 0.68730  0.20930  0.62440  Biso   1.000  H
  C408     1.0000 0.75610  0.14180  0.65580  Biso   1.000  C
  C409     1.0000 0.91350  0.20320  0.65540  Biso   1.000  C
  H357     1.0000 0.70630  0.12590  0.64880  Biso   1.000  H
  C410     1.0000 0.99430  0.24040  0.64350  Biso   1.000  C
  H358     1.0000 0.03040  0.29790  0.64750  Biso   1.000  H
  H359     1.0000 0.98210  0.23830  0.62920  Biso   1.000  H
  H360     1.0000 0.02210  0.20860  0.64610  Biso   1.000  H
  C411     1.0000 0.41480  0.16500  0.59150  Biso   1.000  C
  H361     1.0000 0.45930  0.16160  0.58570  Biso   1.000  H
  C412     1.0000 0.40330  0.15840  0.61260  Biso   1.000  C
  C413     1.0000 0.28130  0.17520  0.60900  Biso   1.000  C
  H362     1.0000 0.23680  0.17860  0.61480  Biso   1.000  H
  C414     1.0000 0.29270  0.18140  0.58780  Biso   1.000  C
  C415     1.0000 0.23260  0.19400  0.57480  Biso   1.000  C
  H363     1.0000 0.24290  0.18820  0.56070  Biso   1.000  H
  H364     1.0000 0.17580  0.15270  0.57820  Biso   1.000  H
  H365     1.0000 0.24100  0.24950  0.57710  Biso   1.000  H
  C416     1.0000 0.46260  0.14570  0.62580  Biso   1.000  C
  H366     1.0000 0.44720  0.14430  0.63990  Biso   1.000  H
  H367     1.0000 0.45970  0.09340  0.62240  Biso   1.000  H
  H368     1.0000 0.51910  0.19130  0.62380  Biso   1.000  H
  Cu17     1.0000 0.14134  0.28284  0.84964  Biso   1.000  Cu
  O65      1.0000 0.10357  0.35823  0.86020  Biso   1.000  O
  O66      1.0000 0.03667  0.22193  0.83374  Biso   1.000  O
  O67      1.0000 0.25457  0.35963  0.86018  Biso   1.000  O
  O68      1.0000 0.18557  0.22153  0.83371  Biso   1.000  O
  C417     1.0000 0.30797  0.42363  0.85103  Biso   1.000  C
  C418     1.0000 0.38507  0.48113  0.86063  Biso   1.000  C
  C419     1.0000 0.45277  0.54493  0.85103  Biso   1.000  C
  C420     1.0000 0.40117  0.47063  0.88043  Biso   1.000  C
  C421     1.0000 0.52177  0.61623  0.86093  Biso   1.000  C
  H369     1.0000 0.45457  0.54243  0.83683  Biso   1.000  H
  H370     1.0000 0.35987  0.42573  0.88783  Biso   1.000  H
  C422     1.0000 0.47667  0.52453  0.88973  Biso   1.000  C
  C423     1.0000 0.53097  0.60133  0.88153  Biso   1.000  C
  C424     1.0000 0.57767  0.69303  0.85113  Biso   1.000  C
  C425     1.0000 0.49007  0.51613  0.91253  Biso   1.000  C
  H371     1.0000 0.57337  0.64323  0.88943  Biso   1.000  H
  C426     1.0000 0.56067  0.51833  0.92083  Biso   1.000  C
  C427     1.0000 0.42507  0.50863  0.92513  Biso   1.000  C
  C428     1.0000 0.63067  0.52633  0.90743  Biso   1.000  C
  C429     1.0000 0.56707  0.51293  0.94203  Biso   1.000  C
  C430     1.0000 0.43157  0.50343  0.94623  Biso   1.000  C
  H372     1.0000 0.37777  0.50703  0.91943  Biso   1.000  H
  H373     1.0000 0.68257  0.57533  0.91133  Biso   1.000  H
  H374     1.0000 0.63577  0.47713  0.90873  Biso   1.000  H
  H375     1.0000 0.61817  0.53253  0.89353  Biso   1.000  H
  C431     1.0000 0.50287  0.50643  0.95463  Biso   1.000  C
  H376     1.0000 0.61407  0.51383  0.94763  Biso   1.000  H
  C432     1.0000 0.36167  0.49533  0.95973  Biso   1.000  C
  C433     1.0000 0.49967  0.51033  0.97823  Biso   1.000  C
  H377     1.0000 0.31077  0.44423  0.95643  Biso   1.000  H
  H378     1.0000 0.37647  0.49323  0.97373  Biso   1.000  H
  H379     1.0000 0.35397  0.54263  0.95773  Biso   1.000  H
  C434     1.0000 0.42277  0.47513  0.98913  Biso   1.000  C
  C435     1.0000 0.58017  0.53653  0.98873  Biso   1.000  C
  H380     1.0000 0.37297  0.45923  0.98213  Biso   1.000  H
  C436     1.0000 0.66097  0.57373  0.97683  Biso   1.000  C
  H381     1.0000 0.69707  0.63123  0.98083  Biso   1.000  H
  H382     1.0000 0.64877  0.57163  0.96253  Biso   1.000  H
  H383     1.0000 0.68877  0.54193  0.97943  Biso   1.000  H
  C437     1.0000 0.08147  0.49833  0.92483  Biso   1.000  C
  H384     1.0000 0.12597  0.49493  0.91903  Biso   1.000  H
  C438     1.0000 0.06997  0.49173  0.94593  Biso   1.000  C
  C439     1.0000 0.94797  0.50853  0.94233  Biso   1.000  C
  H385     1.0000 0.90347  0.51193  0.94813  Biso   1.000  H
  C440     1.0000 0.95937  0.51473  0.92113  Biso   1.000  C
  C441     1.0000 0.89927  0.52733  0.90813  Biso   1.000  C
  H386     1.0000 0.90957  0.52153  0.89403  Biso   1.000  H
  H387     1.0000 0.84247  0.48603  0.91153  Biso   1.000  H
  H388     1.0000 0.90767  0.58283  0.91043  Biso   1.000  H
  C442     1.0000 0.12927  0.47903  0.95913  Biso   1.000  C
  H389     1.0000 0.11387  0.47763  0.97323  Biso   1.000  H
  H390     1.0000 0.12637  0.42673  0.95573  Biso   1.000  H
  H391     1.0000 0.18577  0.52463  0.95713  Biso   1.000  H
  Cu18     1.0000 0.80800  0.61618  0.18298  Biso   1.000  Cu
  O69      1.0000 0.77023  0.69157  0.19354  Biso   1.000  O
  O70      1.0000 0.70333  0.55527  0.16708  Biso   1.000  O
  O71      1.0000 0.92123  0.69297  0.19352  Biso   1.000  O
  O72      1.0000 0.85223  0.55487  0.16705  Biso   1.000  O
  C443     1.0000 0.97463  0.75697  0.18437  Biso   1.000  C
  C444     1.0000 0.05173  0.81447  0.19397  Biso   1.000  C
  C445     1.0000 0.11943  0.87827  0.18437  Biso   1.000  C
  C446     1.0000 0.06783  0.80397  0.21377  Biso   1.000  C
  C447     1.0000 0.18843  0.94957  0.19427  Biso   1.000  C
  H392     1.0000 0.12123  0.87577  0.17017  Biso   1.000  H
  H393     1.0000 0.02653  0.75907  0.22117  Biso   1.000  H
  C448     1.0000 0.14333  0.85787  0.22307  Biso   1.000  C
  C449     1.0000 0.19763  0.93467  0.21487  Biso   1.000  C
  C450     1.0000 0.24433  0.02637  0.18447  Biso   1.000  C
  C451     1.0000 0.15673  0.84947  0.24587  Biso   1.000  C
  H394     1.0000 0.24003  0.97657  0.22277  Biso   1.000  H
  C452     1.0000 0.22733  0.85167  0.25417  Biso   1.000  C
  C453     1.0000 0.09173  0.84197  0.25847  Biso   1.000  C
  C454     1.0000 0.29733  0.85967  0.24077  Biso   1.000  C
  C455     1.0000 0.23373  0.84627  0.27537  Biso   1.000  C
  C456     1.0000 0.09823  0.83677  0.27957  Biso   1.000  C
  H395     1.0000 0.04443  0.84037  0.25277  Biso   1.000  H
  H396     1.0000 0.34923  0.90867  0.24467  Biso   1.000  H
  H397     1.0000 0.30243  0.81047  0.24207  Biso   1.000  H
  H398     1.0000 0.28483  0.86587  0.22687  Biso   1.000  H
  C457     1.0000 0.16953  0.83977  0.28797  Biso   1.000  C
  H399     1.0000 0.28073  0.84717  0.28097  Biso   1.000  H
  C458     1.0000 0.02833  0.82867  0.29307  Biso   1.000  C
  C459     1.0000 0.16633  0.84367  0.31157  Biso   1.000  C
  H400     1.0000 0.97743  0.77757  0.28977  Biso   1.000  H
  H401     1.0000 0.04313  0.82657  0.30707  Biso   1.000  H
  H402     1.0000 0.02063  0.87597  0.29107  Biso   1.000  H
  C460     1.0000 0.08943  0.80847  0.32247  Biso   1.000  C
  C461     1.0000 0.24683  0.86987  0.32207  Biso   1.000  C
  H403     1.0000 0.03963  0.79257  0.31547  Biso   1.000  H
  C462     1.0000 0.32763  0.90707  0.31017  Biso   1.000  C
  H404     1.0000 0.36373  0.96457  0.31417  Biso   1.000  H
  H405     1.0000 0.31543  0.90497  0.29587  Biso   1.000  H
  H406     1.0000 0.35543  0.87527  0.31277  Biso   1.000  H
  C463     1.0000 0.74813  0.83167  0.25817  Biso   1.000  C
  H407     1.0000 0.79263  0.82827  0.25237  Biso   1.000  H
  C464     1.0000 0.73663  0.82507  0.27927  Biso   1.000  C
  C465     1.0000 0.61463  0.84187  0.27567  Biso   1.000  C
  H408     1.0000 0.57013  0.84527  0.28147  Biso   1.000  H
  C466     1.0000 0.62603  0.84807  0.25447  Biso   1.000  C
  C467     1.0000 0.56593  0.86067  0.24147  Biso   1.000  C
  H409     1.0000 0.57623  0.85487  0.22737  Biso   1.000  H
  H410     1.0000 0.50913  0.81937  0.24487  Biso   1.000  H
  H411     1.0000 0.57433  0.91617  0.24377  Biso   1.000  H
  C468     1.0000 0.79593  0.81237  0.29247  Biso   1.000  C
  H412     1.0000 0.78053  0.81097  0.30657  Biso   1.000  H
  H413     1.0000 0.79303  0.76007  0.28907  Biso   1.000  H
  H414     1.0000 0.85243  0.85797  0.29047  Biso   1.000  H
