data_image0
_cell_length_a       26.404
_cell_length_b       26.404
_cell_length_c       26.404
_cell_angle_alpha    90
_cell_angle_beta     90
_cell_angle_gamma    90

_symmetry_space_group_name_H-M    "P 1"
_symmetry_int_tables_number       1

loop_
  _symmetry_equiv_pos_as_xyz
  'x, y, z'

loop_
  _atom_site_label
  _atom_site_occupancy
  _atom_site_fract_x
  _atom_site_fract_y
  _atom_site_fract_z
  _atom_site_thermal_displace_type
  _atom_site_B_iso_or_equiv
  _atom_site_type_symbol
  U1       1.0000 0.23820  0.57193  0.15518  Biso   1.000  U
  P1       1.0000 0.12415  0.64320  0.13216  Biso   1.000  P
  C1       1.0000 0.16980  0.68910  0.11140  Biso   1.000  C
  H1       1.0000 0.15270  0.72070  0.10380  Biso   1.000  H
  H2       1.0000 0.18600  0.67720  0.08070  Biso   1.000  H
  C2       1.0000 0.20940  0.69810  0.15170  Biso   1.000  C
  O1       1.0000 0.15295  0.59769  0.14997  Biso   1.000  O
  O2       1.0000 0.08991  0.66639  0.17312  Biso   1.000  O
  O3       1.0000 0.08767  0.63290  0.08849  Biso   1.000  O
  O4       1.0000 0.23846  0.66229  0.16369  Biso   1.000  O
  O5       1.0000 0.21135  0.74112  0.17312  Biso   1.000  O
  U2       1.0000 0.73820  0.07193  0.65518  Biso   1.000  U
  P2       1.0000 0.62415  0.14320  0.63216  Biso   1.000  P
  C3       1.0000 0.66980  0.18910  0.61140  Biso   1.000  C
  H3       1.0000 0.65270  0.22070  0.60380  Biso   1.000  H
  H4       1.0000 0.68600  0.17720  0.58070  Biso   1.000  H
  C4       1.0000 0.70940  0.19810  0.65170  Biso   1.000  C
  O6       1.0000 0.65295  0.09769  0.64997  Biso   1.000  O
  O7       1.0000 0.58991  0.16639  0.67312  Biso   1.000  O
  O8       1.0000 0.58767  0.13290  0.58849  Biso   1.000  O
  O9       1.0000 0.73846  0.16229  0.66369  Biso   1.000  O
  O10      1.0000 0.71135  0.24112  0.67312  Biso   1.000  O
  U3       1.0000 0.76180  0.42807  0.15518  Biso   1.000  U
  P3       1.0000 0.87585  0.35680  0.13216  Biso   1.000  P
  C5       1.0000 0.83020  0.31090  0.11140  Biso   1.000  C
  H5       1.0000 0.84730  0.27930  0.10380  Biso   1.000  H
  H6       1.0000 0.81400  0.32280  0.08070  Biso   1.000  H
  C6       1.0000 0.79060  0.30190  0.15170  Biso   1.000  C
  O11      1.0000 0.84705  0.40231  0.14997  Biso   1.000  O
  O12      1.0000 0.91009  0.33361  0.17312  Biso   1.000  O
  O13      1.0000 0.91233  0.36710  0.08849  Biso   1.000  O
  O14      1.0000 0.76154  0.33771  0.16369  Biso   1.000  O
  O15      1.0000 0.78865  0.25888  0.17312  Biso   1.000  O
  U4       1.0000 0.26180  0.92807  0.65518  Biso   1.000  U
  P4       1.0000 0.37585  0.85680  0.63216  Biso   1.000  P
  C7       1.0000 0.33020  0.81090  0.61140  Biso   1.000  C
  H7       1.0000 0.34730  0.77930  0.60380  Biso   1.000  H
  H8       1.0000 0.31400  0.82280  0.58070  Biso   1.000  H
  C8       1.0000 0.29060  0.80190  0.65170  Biso   1.000  C
  O16      1.0000 0.34705  0.90231  0.64997  Biso   1.000  O
  O17      1.0000 0.41009  0.83361  0.67312  Biso   1.000  O
  O18      1.0000 0.41233  0.86710  0.58849  Biso   1.000  O
  O19      1.0000 0.26154  0.83771  0.66369  Biso   1.000  O
  O20      1.0000 0.28865  0.75888  0.67312  Biso   1.000  O
  U5       1.0000 0.76180  0.57193  0.84482  Biso   1.000  U
  P5       1.0000 0.87585  0.64320  0.86784  Biso   1.000  P
  C9       1.0000 0.83020  0.68910  0.88860  Biso   1.000  C
  H9       1.0000 0.84730  0.72070  0.89620  Biso   1.000  H
  H10      1.0000 0.81400  0.67720  0.91930  Biso   1.000  H
  C10      1.0000 0.79060  0.69810  0.84830  Biso   1.000  C
  O21      1.0000 0.84705  0.59769  0.85003  Biso   1.000  O
  O22      1.0000 0.91009  0.66639  0.82688  Biso   1.000  O
  O23      1.0000 0.91233  0.63290  0.91151  Biso   1.000  O
  O24      1.0000 0.76154  0.66229  0.83631  Biso   1.000  O
  O25      1.0000 0.78865  0.74112  0.82688  Biso   1.000  O
  U6       1.0000 0.26180  0.07193  0.34482  Biso   1.000  U
  P6       1.0000 0.37585  0.14320  0.36784  Biso   1.000  P
  C11      1.0000 0.33020  0.18910  0.38860  Biso   1.000  C
  H11      1.0000 0.34730  0.22070  0.39620  Biso   1.000  H
  H12      1.0000 0.31400  0.17720  0.41930  Biso   1.000  H
  C12      1.0000 0.29060  0.19810  0.34830  Biso   1.000  C
  O26      1.0000 0.34705  0.09769  0.35003  Biso   1.000  O
  O27      1.0000 0.41009  0.16639  0.32688  Biso   1.000  O
  O28      1.0000 0.41233  0.13290  0.41151  Biso   1.000  O
  O29      1.0000 0.26154  0.16229  0.33631  Biso   1.000  O
  O30      1.0000 0.28865  0.24112  0.32688  Biso   1.000  O
  U7       1.0000 0.23820  0.42807  0.84482  Biso   1.000  U
  P7       1.0000 0.12415  0.35680  0.86784  Biso   1.000  P
  C13      1.0000 0.16980  0.31090  0.88860  Biso   1.000  C
  H13      1.0000 0.15270  0.27930  0.89620  Biso   1.000  H
  H14      1.0000 0.18600  0.32280  0.91930  Biso   1.000  H
  C14      1.0000 0.20940  0.30190  0.84830  Biso   1.000  C
  O31      1.0000 0.15295  0.40231  0.85003  Biso   1.000  O
  O32      1.0000 0.08991  0.33361  0.82688  Biso   1.000  O
  O33      1.0000 0.08767  0.36710  0.91151  Biso   1.000  O
  O34      1.0000 0.23846  0.33771  0.83631  Biso   1.000  O
  O35      1.0000 0.21135  0.25888  0.82688  Biso   1.000  O
  U8       1.0000 0.73820  0.92807  0.34482  Biso   1.000  U
  P8       1.0000 0.62415  0.85680  0.36784  Biso   1.000  P
  C15      1.0000 0.66980  0.81090  0.38860  Biso   1.000  C
  H15      1.0000 0.65270  0.77930  0.39620  Biso   1.000  H
  H16      1.0000 0.68600  0.82280  0.41930  Biso   1.000  H
  C16      1.0000 0.70940  0.80190  0.34830  Biso   1.000  C
  O36      1.0000 0.65295  0.90231  0.35003  Biso   1.000  O
  O37      1.0000 0.58991  0.83361  0.32688  Biso   1.000  O
  O38      1.0000 0.58767  0.86710  0.41151  Biso   1.000  O
  O39      1.0000 0.73846  0.83771  0.33631  Biso   1.000  O
  O40      1.0000 0.71135  0.75888  0.32688  Biso   1.000  O
  U9       1.0000 0.15518  0.23820  0.57193  Biso   1.000  U
  P9       1.0000 0.13216  0.12415  0.64320  Biso   1.000  P
  C17      1.0000 0.11140  0.16980  0.68910  Biso   1.000  C
  H17      1.0000 0.10380  0.15270  0.72070  Biso   1.000  H
  H18      1.0000 0.08070  0.18600  0.67720  Biso   1.000  H
  C18      1.0000 0.15170  0.20940  0.69810  Biso   1.000  C
  O41      1.0000 0.14997  0.15295  0.59769  Biso   1.000  O
  O42      1.0000 0.17312  0.08991  0.66639  Biso   1.000  O
  O43      1.0000 0.08849  0.08767  0.63290  Biso   1.000  O
  O44      1.0000 0.16369  0.23846  0.66229  Biso   1.000  O
  O45      1.0000 0.17312  0.21135  0.74112  Biso   1.000  O
  U10      1.0000 0.65518  0.73820  0.07193  Biso   1.000  U
  P10      1.0000 0.63216  0.62415  0.14320  Biso   1.000  P
  C19      1.0000 0.61140  0.66980  0.18910  Biso   1.000  C
  H19      1.0000 0.60380  0.65270  0.22070  Biso   1.000  H
  H20      1.0000 0.58070  0.68600  0.17720  Biso   1.000  H
  C20      1.0000 0.65170  0.70940  0.19810  Biso   1.000  C
  O46      1.0000 0.64997  0.65295  0.09769  Biso   1.000  O
  O47      1.0000 0.67312  0.58991  0.16639  Biso   1.000  O
  O48      1.0000 0.58849  0.58767  0.13290  Biso   1.000  O
  O49      1.0000 0.66369  0.73846  0.16229  Biso   1.000  O
  O50      1.0000 0.67312  0.71135  0.24112  Biso   1.000  O
  U11      1.0000 0.15518  0.76180  0.42807  Biso   1.000  U
  P11      1.0000 0.13216  0.87585  0.35680  Biso   1.000  P
  C21      1.0000 0.11140  0.83020  0.31090  Biso   1.000  C
  H21      1.0000 0.10380  0.84730  0.27930  Biso   1.000  H
  H22      1.0000 0.08070  0.81400  0.32280  Biso   1.000  H
  C22      1.0000 0.15170  0.79060  0.30190  Biso   1.000  C
  O51      1.0000 0.14997  0.84705  0.40231  Biso   1.000  O
  O52      1.0000 0.17312  0.91009  0.33361  Biso   1.000  O
  O53      1.0000 0.08849  0.91233  0.36710  Biso   1.000  O
  O54      1.0000 0.16369  0.76154  0.33771  Biso   1.000  O
  O55      1.0000 0.17312  0.78865  0.25888  Biso   1.000  O
  U12      1.0000 0.65518  0.26180  0.92807  Biso   1.000  U
  P12      1.0000 0.63216  0.37585  0.85680  Biso   1.000  P
  C23      1.0000 0.61140  0.33020  0.81090  Biso   1.000  C
  H23      1.0000 0.60380  0.34730  0.77930  Biso   1.000  H
  H24      1.0000 0.58070  0.31400  0.82280  Biso   1.000  H
  C24      1.0000 0.65170  0.29060  0.80190  Biso   1.000  C
  O56      1.0000 0.64997  0.34705  0.90231  Biso   1.000  O
  O57      1.0000 0.67312  0.41009  0.83361  Biso   1.000  O
  O58      1.0000 0.58849  0.41233  0.86710  Biso   1.000  O
  O59      1.0000 0.66369  0.26154  0.83771  Biso   1.000  O
  O60      1.0000 0.67312  0.28865  0.75888  Biso   1.000  O
  U13      1.0000 0.84482  0.76180  0.57193  Biso   1.000  U
  P13      1.0000 0.86784  0.87585  0.64320  Biso   1.000  P
  C25      1.0000 0.88860  0.83020  0.68910  Biso   1.000  C
  H25      1.0000 0.89620  0.84730  0.72070  Biso   1.000  H
  H26      1.0000 0.91930  0.81400  0.67720  Biso   1.000  H
  C26      1.0000 0.84830  0.79060  0.69810  Biso   1.000  C
  O61      1.0000 0.85003  0.84705  0.59769  Biso   1.000  O
  O62      1.0000 0.82688  0.91009  0.66639  Biso   1.000  O
  O63      1.0000 0.91151  0.91233  0.63290  Biso   1.000  O
  O64      1.0000 0.83631  0.76154  0.66229  Biso   1.000  O
  O65      1.0000 0.82688  0.78865  0.74112  Biso   1.000  O
  U14      1.0000 0.34482  0.26180  0.07193  Biso   1.000  U
  P14      1.0000 0.36784  0.37585  0.14320  Biso   1.000  P
  C27      1.0000 0.38860  0.33020  0.18910  Biso   1.000  C
  H27      1.0000 0.39620  0.34730  0.22070  Biso   1.000  H
  H28      1.0000 0.41930  0.31400  0.17720  Biso   1.000  H
  C28      1.0000 0.34830  0.29060  0.19810  Biso   1.000  C
  O66      1.0000 0.35003  0.34705  0.09769  Biso   1.000  O
  O67      1.0000 0.32688  0.41009  0.16639  Biso   1.000  O
  O68      1.0000 0.41151  0.41233  0.13290  Biso   1.000  O
  O69      1.0000 0.33631  0.26154  0.16229  Biso   1.000  O
  O70      1.0000 0.32688  0.28865  0.24112  Biso   1.000  O
  U15      1.0000 0.84482  0.23820  0.42807  Biso   1.000  U
  P15      1.0000 0.86784  0.12415  0.35680  Biso   1.000  P
  C29      1.0000 0.88860  0.16980  0.31090  Biso   1.000  C
  H29      1.0000 0.89620  0.15270  0.27930  Biso   1.000  H
  H30      1.0000 0.91930  0.18600  0.32280  Biso   1.000  H
  C30      1.0000 0.84830  0.20940  0.30190  Biso   1.000  C
  O71      1.0000 0.85003  0.15295  0.40231  Biso   1.000  O
  O72      1.0000 0.82688  0.08991  0.33361  Biso   1.000  O
  O73      1.0000 0.91151  0.08767  0.36710  Biso   1.000  O
  O74      1.0000 0.83631  0.23846  0.33771  Biso   1.000  O
  O75      1.0000 0.82688  0.21135  0.25888  Biso   1.000  O
  U16      1.0000 0.34482  0.73820  0.92807  Biso   1.000  U
  P16      1.0000 0.36784  0.62415  0.85680  Biso   1.000  P
  C31      1.0000 0.38860  0.66980  0.81090  Biso   1.000  C
  H31      1.0000 0.39620  0.65270  0.77930  Biso   1.000  H
  H32      1.0000 0.41930  0.68600  0.82280  Biso   1.000  H
  C32      1.0000 0.34830  0.70940  0.80190  Biso   1.000  C
  O76      1.0000 0.35003  0.65295  0.90231  Biso   1.000  O
  O77      1.0000 0.32688  0.58991  0.83361  Biso   1.000  O
  O78      1.0000 0.41151  0.58767  0.86710  Biso   1.000  O
  O79      1.0000 0.33631  0.73846  0.83771  Biso   1.000  O
  O80      1.0000 0.32688  0.71135  0.75888  Biso   1.000  O
  U17      1.0000 0.57193  0.15518  0.23820  Biso   1.000  U
  P17      1.0000 0.64320  0.13216  0.12415  Biso   1.000  P
  C33      1.0000 0.68910  0.11140  0.16980  Biso   1.000  C
  H33      1.0000 0.72070  0.10380  0.15270  Biso   1.000  H
  H34      1.0000 0.67720  0.08070  0.18600  Biso   1.000  H
  C34      1.0000 0.69810  0.15170  0.20940  Biso   1.000  C
  O81      1.0000 0.59769  0.14997  0.15295  Biso   1.000  O
  O82      1.0000 0.66639  0.17312  0.08991  Biso   1.000  O
  O83      1.0000 0.63290  0.08849  0.08767  Biso   1.000  O
  O84      1.0000 0.66229  0.16369  0.23846  Biso   1.000  O
  O85      1.0000 0.74112  0.17312  0.21135  Biso   1.000  O
  U18      1.0000 0.07193  0.65518  0.73820  Biso   1.000  U
  P18      1.0000 0.14320  0.63216  0.62415  Biso   1.000  P
  C35      1.0000 0.18910  0.61140  0.66980  Biso   1.000  C
  H35      1.0000 0.22070  0.60380  0.65270  Biso   1.000  H
  H36      1.0000 0.17720  0.58070  0.68600  Biso   1.000  H
  C36      1.0000 0.19810  0.65170  0.70940  Biso   1.000  C
  O86      1.0000 0.09769  0.64997  0.65295  Biso   1.000  O
  O87      1.0000 0.16639  0.67312  0.58991  Biso   1.000  O
  O88      1.0000 0.13290  0.58849  0.58767  Biso   1.000  O
  O89      1.0000 0.16229  0.66369  0.73846  Biso   1.000  O
  O90      1.0000 0.24112  0.67312  0.71135  Biso   1.000  O
  U19      1.0000 0.42807  0.15518  0.76180  Biso   1.000  U
  P19      1.0000 0.35680  0.13216  0.87585  Biso   1.000  P
  C37      1.0000 0.31090  0.11140  0.83020  Biso   1.000  C
  H37      1.0000 0.27930  0.10380  0.84730  Biso   1.000  H
  H38      1.0000 0.32280  0.08070  0.81400  Biso   1.000  H
  C38      1.0000 0.30190  0.15170  0.79060  Biso   1.000  C
  O91      1.0000 0.40231  0.14997  0.84705  Biso   1.000  O
  O92      1.0000 0.33361  0.17312  0.91009  Biso   1.000  O
  O93      1.0000 0.36710  0.08849  0.91233  Biso   1.000  O
  O94      1.0000 0.33771  0.16369  0.76154  Biso   1.000  O
  O95      1.0000 0.25888  0.17312  0.78865  Biso   1.000  O
  U20      1.0000 0.92807  0.65518  0.26180  Biso   1.000  U
  P20      1.0000 0.85680  0.63216  0.37585  Biso   1.000  P
  C39      1.0000 0.81090  0.61140  0.33020  Biso   1.000  C
  H39      1.0000 0.77930  0.60380  0.34730  Biso   1.000  H
  H40      1.0000 0.82280  0.58070  0.31400  Biso   1.000  H
  C40      1.0000 0.80190  0.65170  0.29060  Biso   1.000  C
  O96      1.0000 0.90231  0.64997  0.34705  Biso   1.000  O
  O97      1.0000 0.83361  0.67312  0.41009  Biso   1.000  O
  O98      1.0000 0.86710  0.58849  0.41233  Biso   1.000  O
  O99      1.0000 0.83771  0.66369  0.26154  Biso   1.000  O
  O100     1.0000 0.75888  0.67312  0.28865  Biso   1.000  O
  U21      1.0000 0.57193  0.84482  0.76180  Biso   1.000  U
  P21      1.0000 0.64320  0.86784  0.87585  Biso   1.000  P
  C41      1.0000 0.68910  0.88860  0.83020  Biso   1.000  C
  H41      1.0000 0.72070  0.89620  0.84730  Biso   1.000  H
  H42      1.0000 0.67720  0.91930  0.81400  Biso   1.000  H
  C42      1.0000 0.69810  0.84830  0.79060  Biso   1.000  C
  O101     1.0000 0.59769  0.85003  0.84705  Biso   1.000  O
  O102     1.0000 0.66639  0.82688  0.91009  Biso   1.000  O
  O103     1.0000 0.63290  0.91151  0.91233  Biso   1.000  O
  O104     1.0000 0.66229  0.83631  0.76154  Biso   1.000  O
  O105     1.0000 0.74112  0.82688  0.78865  Biso   1.000  O
  U22      1.0000 0.07193  0.34482  0.26180  Biso   1.000  U
  P22      1.0000 0.14320  0.36784  0.37585  Biso   1.000  P
  C43      1.0000 0.18910  0.38860  0.33020  Biso   1.000  C
  H43      1.0000 0.22070  0.39620  0.34730  Biso   1.000  H
  H44      1.0000 0.17720  0.41930  0.31400  Biso   1.000  H
  C44      1.0000 0.19810  0.34830  0.29060  Biso   1.000  C
  O106     1.0000 0.09769  0.35003  0.34705  Biso   1.000  O
  O107     1.0000 0.16639  0.32688  0.41009  Biso   1.000  O
  O108     1.0000 0.13290  0.41151  0.41233  Biso   1.000  O
  O109     1.0000 0.16229  0.33631  0.26154  Biso   1.000  O
  O110     1.0000 0.24112  0.32688  0.28865  Biso   1.000  O
  U23      1.0000 0.42807  0.84482  0.23820  Biso   1.000  U
  P23      1.0000 0.35680  0.86784  0.12415  Biso   1.000  P
  C45      1.0000 0.31090  0.88860  0.16980  Biso   1.000  C
  H45      1.0000 0.27930  0.89620  0.15270  Biso   1.000  H
  H46      1.0000 0.32280  0.91930  0.18600  Biso   1.000  H
  C46      1.0000 0.30190  0.84830  0.20940  Biso   1.000  C
  O111     1.0000 0.40231  0.85003  0.15295  Biso   1.000  O
  O112     1.0000 0.33361  0.82688  0.08991  Biso   1.000  O
  O113     1.0000 0.36710  0.91151  0.08767  Biso   1.000  O
  O114     1.0000 0.33771  0.83631  0.23846  Biso   1.000  O
  O115     1.0000 0.25888  0.82688  0.21135  Biso   1.000  O
  U24      1.0000 0.92807  0.34482  0.73820  Biso   1.000  U
  P24      1.0000 0.85680  0.36784  0.62415  Biso   1.000  P
  C47      1.0000 0.81090  0.38860  0.66980  Biso   1.000  C
  H47      1.0000 0.77930  0.39620  0.65270  Biso   1.000  H
  H48      1.0000 0.82280  0.41930  0.68600  Biso   1.000  H
  C48      1.0000 0.80190  0.34830  0.70940  Biso   1.000  C
  O116     1.0000 0.90231  0.35003  0.65295  Biso   1.000  O
  O117     1.0000 0.83361  0.32688  0.58991  Biso   1.000  O
  O118     1.0000 0.86710  0.41151  0.58767  Biso   1.000  O
  O119     1.0000 0.83771  0.33631  0.73846  Biso   1.000  O
  O120     1.0000 0.75888  0.32688  0.71135  Biso   1.000  O
  U25      1.0000 0.76180  0.42807  0.84482  Biso   1.000  U
  P25      1.0000 0.87585  0.35680  0.86784  Biso   1.000  P
  C49      1.0000 0.83020  0.31090  0.88860  Biso   1.000  C
  H49      1.0000 0.84730  0.27930  0.89620  Biso   1.000  H
  H50      1.0000 0.81400  0.32280  0.91930  Biso   1.000  H
  C50      1.0000 0.79060  0.30190  0.84830  Biso   1.000  C
  O121     1.0000 0.84705  0.40231  0.85003  Biso   1.000  O
  O122     1.0000 0.91009  0.33361  0.82688  Biso   1.000  O
  O123     1.0000 0.91233  0.36710  0.91151  Biso   1.000  O
  O124     1.0000 0.76154  0.33771  0.83631  Biso   1.000  O
  O125     1.0000 0.78865  0.25888  0.82688  Biso   1.000  O
  U26      1.0000 0.26180  0.92807  0.34482  Biso   1.000  U
  P26      1.0000 0.37585  0.85680  0.36784  Biso   1.000  P
  C51      1.0000 0.33020  0.81090  0.38860  Biso   1.000  C
  H51      1.0000 0.34730  0.77930  0.39620  Biso   1.000  H
  H52      1.0000 0.31400  0.82280  0.41930  Biso   1.000  H
  C52      1.0000 0.29060  0.80190  0.34830  Biso   1.000  C
  O126     1.0000 0.34705  0.90231  0.35003  Biso   1.000  O
  O127     1.0000 0.41009  0.83361  0.32688  Biso   1.000  O
  O128     1.0000 0.41233  0.86710  0.41151  Biso   1.000  O
  O129     1.0000 0.26154  0.83771  0.33631  Biso   1.000  O
  O130     1.0000 0.28865  0.75888  0.32688  Biso   1.000  O
  U27      1.0000 0.23820  0.57193  0.84482  Biso   1.000  U
  P27      1.0000 0.12415  0.64320  0.86784  Biso   1.000  P
  C53      1.0000 0.16980  0.68910  0.88860  Biso   1.000  C
  H53      1.0000 0.15270  0.72070  0.89620  Biso   1.000  H
  H54      1.0000 0.18600  0.67720  0.91930  Biso   1.000  H
  C54      1.0000 0.20940  0.69810  0.84830  Biso   1.000  C
  O131     1.0000 0.15295  0.59769  0.85003  Biso   1.000  O
  O132     1.0000 0.08991  0.66639  0.82688  Biso   1.000  O
  O133     1.0000 0.08767  0.63290  0.91151  Biso   1.000  O
  O134     1.0000 0.23846  0.66229  0.83631  Biso   1.000  O
  O135     1.0000 0.21135  0.74112  0.82688  Biso   1.000  O
  U28      1.0000 0.73820  0.07193  0.34482  Biso   1.000  U
  P28      1.0000 0.62415  0.14320  0.36784  Biso   1.000  P
  C55      1.0000 0.66980  0.18910  0.38860  Biso   1.000  C
  H55      1.0000 0.65270  0.22070  0.39620  Biso   1.000  H
  H56      1.0000 0.68600  0.17720  0.41930  Biso   1.000  H
  C56      1.0000 0.70940  0.19810  0.34830  Biso   1.000  C
  O136     1.0000 0.65295  0.09769  0.35003  Biso   1.000  O
  O137     1.0000 0.58991  0.16639  0.32688  Biso   1.000  O
  O138     1.0000 0.58767  0.13290  0.41151  Biso   1.000  O
  O139     1.0000 0.73846  0.16229  0.33631  Biso   1.000  O
  O140     1.0000 0.71135  0.24112  0.32688  Biso   1.000  O
  U29      1.0000 0.23820  0.42807  0.15518  Biso   1.000  U
  P29      1.0000 0.12415  0.35680  0.13216  Biso   1.000  P
  C57      1.0000 0.16980  0.31090  0.11140  Biso   1.000  C
  H57      1.0000 0.15270  0.27930  0.10380  Biso   1.000  H
  H58      1.0000 0.18600  0.32280  0.08070  Biso   1.000  H
  C58      1.0000 0.20940  0.30190  0.15170  Biso   1.000  C
  O141     1.0000 0.15295  0.40231  0.14997  Biso   1.000  O
  O142     1.0000 0.08991  0.33361  0.17312  Biso   1.000  O
  O143     1.0000 0.08767  0.36710  0.08849  Biso   1.000  O
  O144     1.0000 0.23846  0.33771  0.16369  Biso   1.000  O
  O145     1.0000 0.21135  0.25888  0.17312  Biso   1.000  O
  U30      1.0000 0.73820  0.92807  0.65518  Biso   1.000  U
  P30      1.0000 0.62415  0.85680  0.63216  Biso   1.000  P
  C59      1.0000 0.66980  0.81090  0.61140  Biso   1.000  C
  H59      1.0000 0.65270  0.77930  0.60380  Biso   1.000  H
  H60      1.0000 0.68600  0.82280  0.58070  Biso   1.000  H
  C60      1.0000 0.70940  0.80190  0.65170  Biso   1.000  C
  O146     1.0000 0.65295  0.90231  0.64997  Biso   1.000  O
  O147     1.0000 0.58991  0.83361  0.67312  Biso   1.000  O
  O148     1.0000 0.58767  0.86710  0.58849  Biso   1.000  O
  O149     1.0000 0.73846  0.83771  0.66369  Biso   1.000  O
  O150     1.0000 0.71135  0.75888  0.67312  Biso   1.000  O
  U31      1.0000 0.76180  0.57193  0.15518  Biso   1.000  U
  P31      1.0000 0.87585  0.64320  0.13216  Biso   1.000  P
  C61      1.0000 0.83020  0.68910  0.11140  Biso   1.000  C
  H61      1.0000 0.84730  0.72070  0.10380  Biso   1.000  H
  H62      1.0000 0.81400  0.67720  0.08070  Biso   1.000  H
  C62      1.0000 0.79060  0.69810  0.15170  Biso   1.000  C
  O151     1.0000 0.84705  0.59769  0.14997  Biso   1.000  O
  O152     1.0000 0.91009  0.66639  0.17312  Biso   1.000  O
  O153     1.0000 0.91233  0.63290  0.08849  Biso   1.000  O
  O154     1.0000 0.76154  0.66229  0.16369  Biso   1.000  O
  O155     1.0000 0.78865  0.74112  0.17312  Biso   1.000  O
  U32      1.0000 0.26180  0.07193  0.65518  Biso   1.000  U
  P32      1.0000 0.37585  0.14320  0.63216  Biso   1.000  P
  C63      1.0000 0.33020  0.18910  0.61140  Biso   1.000  C
  H63      1.0000 0.34730  0.22070  0.60380  Biso   1.000  H
  H64      1.0000 0.31400  0.17720  0.58070  Biso   1.000  H
  C64      1.0000 0.29060  0.19810  0.65170  Biso   1.000  C
  O156     1.0000 0.34705  0.09769  0.64997  Biso   1.000  O
  O157     1.0000 0.41009  0.16639  0.67312  Biso   1.000  O
  O158     1.0000 0.41233  0.13290  0.58849  Biso   1.000  O
  O159     1.0000 0.26154  0.16229  0.66369  Biso   1.000  O
  O160     1.0000 0.28865  0.24112  0.67312  Biso   1.000  O
  U33      1.0000 0.84482  0.76180  0.42807  Biso   1.000  U
  P33      1.0000 0.86784  0.87585  0.35680  Biso   1.000  P
  C65      1.0000 0.88860  0.83020  0.31090  Biso   1.000  C
  H65      1.0000 0.89620  0.84730  0.27930  Biso   1.000  H
  H66      1.0000 0.91930  0.81400  0.32280  Biso   1.000  H
  C66      1.0000 0.84830  0.79060  0.30190  Biso   1.000  C
  O161     1.0000 0.85003  0.84705  0.40231  Biso   1.000  O
  O162     1.0000 0.82688  0.91009  0.33361  Biso   1.000  O
  O163     1.0000 0.91151  0.91233  0.36710  Biso   1.000  O
  O164     1.0000 0.83631  0.76154  0.33771  Biso   1.000  O
  O165     1.0000 0.82688  0.78865  0.25888  Biso   1.000  O
  U34      1.0000 0.34482  0.26180  0.92807  Biso   1.000  U
  P34      1.0000 0.36784  0.37585  0.85680  Biso   1.000  P
  C67      1.0000 0.38860  0.33020  0.81090  Biso   1.000  C
  H67      1.0000 0.39620  0.34730  0.77930  Biso   1.000  H
  H68      1.0000 0.41930  0.31400  0.82280  Biso   1.000  H
  C68      1.0000 0.34830  0.29060  0.80190  Biso   1.000  C
  O166     1.0000 0.35003  0.34705  0.90231  Biso   1.000  O
  O167     1.0000 0.32688  0.41009  0.83361  Biso   1.000  O
  O168     1.0000 0.41151  0.41233  0.86710  Biso   1.000  O
  O169     1.0000 0.33631  0.26154  0.83771  Biso   1.000  O
  O170     1.0000 0.32688  0.28865  0.75888  Biso   1.000  O
  U35      1.0000 0.84482  0.23820  0.57193  Biso   1.000  U
  P35      1.0000 0.86784  0.12415  0.64320  Biso   1.000  P
  C69      1.0000 0.88860  0.16980  0.68910  Biso   1.000  C
  H69      1.0000 0.89620  0.15270  0.72070  Biso   1.000  H
  H70      1.0000 0.91930  0.18600  0.67720  Biso   1.000  H
  C70      1.0000 0.84830  0.20940  0.69810  Biso   1.000  C
  O171     1.0000 0.85003  0.15295  0.59769  Biso   1.000  O
  O172     1.0000 0.82688  0.08991  0.66639  Biso   1.000  O
  O173     1.0000 0.91151  0.08767  0.63290  Biso   1.000  O
  O174     1.0000 0.83631  0.23846  0.66229  Biso   1.000  O
  O175     1.0000 0.82688  0.21135  0.74112  Biso   1.000  O
  U36      1.0000 0.34482  0.73820  0.07193  Biso   1.000  U
  P36      1.0000 0.36784  0.62415  0.14320  Biso   1.000  P
  C71      1.0000 0.38860  0.66980  0.18910  Biso   1.000  C
  H71      1.0000 0.39620  0.65270  0.22070  Biso   1.000  H
  H72      1.0000 0.41930  0.68600  0.17720  Biso   1.000  H
  C72      1.0000 0.34830  0.70940  0.19810  Biso   1.000  C
  O176     1.0000 0.35003  0.65295  0.09769  Biso   1.000  O
  O177     1.0000 0.32688  0.58991  0.16639  Biso   1.000  O
  O178     1.0000 0.41151  0.58767  0.13290  Biso   1.000  O
  O179     1.0000 0.33631  0.73846  0.16229  Biso   1.000  O
  O180     1.0000 0.32688  0.71135  0.24112  Biso   1.000  O
  U37      1.0000 0.15518  0.23820  0.42807  Biso   1.000  U
  P37      1.0000 0.13216  0.12415  0.35680  Biso   1.000  P
  C73      1.0000 0.11140  0.16980  0.31090  Biso   1.000  C
  H73      1.0000 0.10380  0.15270  0.27930  Biso   1.000  H
  H74      1.0000 0.08070  0.18600  0.32280  Biso   1.000  H
  C74      1.0000 0.15170  0.20940  0.30190  Biso   1.000  C
  O181     1.0000 0.14997  0.15295  0.40231  Biso   1.000  O
  O182     1.0000 0.17312  0.08991  0.33361  Biso   1.000  O
  O183     1.0000 0.08849  0.08767  0.36710  Biso   1.000  O
  O184     1.0000 0.16369  0.23846  0.33771  Biso   1.000  O
  O185     1.0000 0.17312  0.21135  0.25888  Biso   1.000  O
  U38      1.0000 0.65518  0.73820  0.92807  Biso   1.000  U
  P38      1.0000 0.63216  0.62415  0.85680  Biso   1.000  P
  C75      1.0000 0.61140  0.66980  0.81090  Biso   1.000  C
  H75      1.0000 0.60380  0.65270  0.77930  Biso   1.000  H
  H76      1.0000 0.58070  0.68600  0.82280  Biso   1.000  H
  C76      1.0000 0.65170  0.70940  0.80190  Biso   1.000  C
  O186     1.0000 0.64997  0.65295  0.90231  Biso   1.000  O
  O187     1.0000 0.67312  0.58991  0.83361  Biso   1.000  O
  O188     1.0000 0.58849  0.58767  0.86710  Biso   1.000  O
  O189     1.0000 0.66369  0.73846  0.83771  Biso   1.000  O
  O190     1.0000 0.67312  0.71135  0.75888  Biso   1.000  O
  U39      1.0000 0.15518  0.76180  0.57193  Biso   1.000  U
  P39      1.0000 0.13216  0.87585  0.64320  Biso   1.000  P
  C77      1.0000 0.11140  0.83020  0.68910  Biso   1.000  C
  H77      1.0000 0.10380  0.84730  0.72070  Biso   1.000  H
  H78      1.0000 0.08070  0.81400  0.67720  Biso   1.000  H
  C78      1.0000 0.15170  0.79060  0.69810  Biso   1.000  C
  O191     1.0000 0.14997  0.84705  0.59769  Biso   1.000  O
  O192     1.0000 0.17312  0.91009  0.66639  Biso   1.000  O
  O193     1.0000 0.08849  0.91233  0.63290  Biso   1.000  O
  O194     1.0000 0.16369  0.76154  0.66229  Biso   1.000  O
  O195     1.0000 0.17312  0.78865  0.74112  Biso   1.000  O
  U40      1.0000 0.65518  0.26180  0.07193  Biso   1.000  U
  P40      1.0000 0.63216  0.37585  0.14320  Biso   1.000  P
  C79      1.0000 0.61140  0.33020  0.18910  Biso   1.000  C
  H79      1.0000 0.60380  0.34730  0.22070  Biso   1.000  H
  H80      1.0000 0.58070  0.31400  0.17720  Biso   1.000  H
  C80      1.0000 0.65170  0.29060  0.19810  Biso   1.000  C
  O196     1.0000 0.64997  0.34705  0.09769  Biso   1.000  O
  O197     1.0000 0.67312  0.41009  0.16639  Biso   1.000  O
  O198     1.0000 0.58849  0.41233  0.13290  Biso   1.000  O
  O199     1.0000 0.66369  0.26154  0.16229  Biso   1.000  O
  O200     1.0000 0.67312  0.28865  0.24112  Biso   1.000  O
  U41      1.0000 0.42807  0.84482  0.76180  Biso   1.000  U
  P41      1.0000 0.35680  0.86784  0.87585  Biso   1.000  P
  C81      1.0000 0.31090  0.88860  0.83020  Biso   1.000  C
  H81      1.0000 0.27930  0.89620  0.84730  Biso   1.000  H
  H82      1.0000 0.32280  0.91930  0.81400  Biso   1.000  H
  C82      1.0000 0.30190  0.84830  0.79060  Biso   1.000  C
  O201     1.0000 0.40231  0.85003  0.84705  Biso   1.000  O
  O202     1.0000 0.33361  0.82688  0.91009  Biso   1.000  O
  O203     1.0000 0.36710  0.91151  0.91233  Biso   1.000  O
  O204     1.0000 0.33771  0.83631  0.76154  Biso   1.000  O
  O205     1.0000 0.25888  0.82688  0.78865  Biso   1.000  O
  U42      1.0000 0.92807  0.34482  0.26180  Biso   1.000  U
  P42      1.0000 0.85680  0.36784  0.37585  Biso   1.000  P
  C83      1.0000 0.81090  0.38860  0.33020  Biso   1.000  C
  H83      1.0000 0.77930  0.39620  0.34730  Biso   1.000  H
  H84      1.0000 0.82280  0.41930  0.31400  Biso   1.000  H
  C84      1.0000 0.80190  0.34830  0.29060  Biso   1.000  C
  O206     1.0000 0.90231  0.35003  0.34705  Biso   1.000  O
  O207     1.0000 0.83361  0.32688  0.41009  Biso   1.000  O
  O208     1.0000 0.86710  0.41151  0.41233  Biso   1.000  O
  O209     1.0000 0.83771  0.33631  0.26154  Biso   1.000  O
  O210     1.0000 0.75888  0.32688  0.28865  Biso   1.000  O
  U43      1.0000 0.57193  0.84482  0.23820  Biso   1.000  U
  P43      1.0000 0.64320  0.86784  0.12415  Biso   1.000  P
  C85      1.0000 0.68910  0.88860  0.16980  Biso   1.000  C
  H85      1.0000 0.72070  0.89620  0.15270  Biso   1.000  H
  H86      1.0000 0.67720  0.91930  0.18600  Biso   1.000  H
  C86      1.0000 0.69810  0.84830  0.20940  Biso   1.000  C
  O211     1.0000 0.59769  0.85003  0.15295  Biso   1.000  O
  O212     1.0000 0.66639  0.82688  0.08991  Biso   1.000  O
  O213     1.0000 0.63290  0.91151  0.08767  Biso   1.000  O
  O214     1.0000 0.66229  0.83631  0.23846  Biso   1.000  O
  O215     1.0000 0.74112  0.82688  0.21135  Biso   1.000  O
  U44      1.0000 0.07193  0.34482  0.73820  Biso   1.000  U
  P44      1.0000 0.14320  0.36784  0.62415  Biso   1.000  P
  C87      1.0000 0.18910  0.38860  0.66980  Biso   1.000  C
  H87      1.0000 0.22070  0.39620  0.65270  Biso   1.000  H
  H88      1.0000 0.17720  0.41930  0.68600  Biso   1.000  H
  C88      1.0000 0.19810  0.34830  0.70940  Biso   1.000  C
  O216     1.0000 0.09769  0.35003  0.65295  Biso   1.000  O
  O217     1.0000 0.16639  0.32688  0.58991  Biso   1.000  O
  O218     1.0000 0.13290  0.41151  0.58767  Biso   1.000  O
  O219     1.0000 0.16229  0.33631  0.73846  Biso   1.000  O
  O220     1.0000 0.24112  0.32688  0.71135  Biso   1.000  O
  U45      1.0000 0.42807  0.15518  0.23820  Biso   1.000  U
  P45      1.0000 0.35680  0.13216  0.12415  Biso   1.000  P
  C89      1.0000 0.31090  0.11140  0.16980  Biso   1.000  C
  H89      1.0000 0.27930  0.10380  0.15270  Biso   1.000  H
  H90      1.0000 0.32280  0.08070  0.18600  Biso   1.000  H
  C90      1.0000 0.30190  0.15170  0.20940  Biso   1.000  C
  O221     1.0000 0.40231  0.14997  0.15295  Biso   1.000  O
  O222     1.0000 0.33361  0.17312  0.08991  Biso   1.000  O
  O223     1.0000 0.36710  0.08849  0.08767  Biso   1.000  O
  O224     1.0000 0.33771  0.16369  0.23846  Biso   1.000  O
  O225     1.0000 0.25888  0.17312  0.21135  Biso   1.000  O
  U46      1.0000 0.92807  0.65518  0.73820  Biso   1.000  U
  P46      1.0000 0.85680  0.63216  0.62415  Biso   1.000  P
  C91      1.0000 0.81090  0.61140  0.66980  Biso   1.000  C
  H91      1.0000 0.77930  0.60380  0.65270  Biso   1.000  H
  H92      1.0000 0.82280  0.58070  0.68600  Biso   1.000  H
  C92      1.0000 0.80190  0.65170  0.70940  Biso   1.000  C
  O226     1.0000 0.90231  0.64997  0.65295  Biso   1.000  O
  O227     1.0000 0.83361  0.67312  0.58991  Biso   1.000  O
  O228     1.0000 0.86710  0.58849  0.58767  Biso   1.000  O
  O229     1.0000 0.83771  0.66369  0.73846  Biso   1.000  O
  O230     1.0000 0.75888  0.67312  0.71135  Biso   1.000  O
  U47      1.0000 0.57193  0.15518  0.76180  Biso   1.000  U
  P47      1.0000 0.64320  0.13216  0.87585  Biso   1.000  P
  C93      1.0000 0.68910  0.11140  0.83020  Biso   1.000  C
  H93      1.0000 0.72070  0.10380  0.84730  Biso   1.000  H
  H94      1.0000 0.67720  0.08070  0.81400  Biso   1.000  H
  C94      1.0000 0.69810  0.15170  0.79060  Biso   1.000  C
  O231     1.0000 0.59769  0.14997  0.84705  Biso   1.000  O
  O232     1.0000 0.66639  0.17312  0.91009  Biso   1.000  O
  O233     1.0000 0.63290  0.08849  0.91233  Biso   1.000  O
  O234     1.0000 0.66229  0.16369  0.76154  Biso   1.000  O
  O235     1.0000 0.74112  0.17312  0.78865  Biso   1.000  O
  U48      1.0000 0.07193  0.65518  0.26180  Biso   1.000  U
  P48      1.0000 0.14320  0.63216  0.37585  Biso   1.000  P
  C95      1.0000 0.18910  0.61140  0.33020  Biso   1.000  C
  H95      1.0000 0.22070  0.60380  0.34730  Biso   1.000  H
  H96      1.0000 0.17720  0.58070  0.31400  Biso   1.000  H
  C96      1.0000 0.19810  0.65170  0.29060  Biso   1.000  C
  O236     1.0000 0.09769  0.64997  0.34705  Biso   1.000  O
  O237     1.0000 0.16639  0.67312  0.41009  Biso   1.000  O
  O238     1.0000 0.13290  0.58849  0.41233  Biso   1.000  O
  O239     1.0000 0.16229  0.66369  0.26154  Biso   1.000  O
  O240     1.0000 0.24112  0.67312  0.28865  Biso   1.000  O
  U49      1.0000 0.06922  0.63677  0.00000  Biso   1.000  U
  U50      1.0000 0.56922  0.13677  0.50000  Biso   1.000  U
  U51      1.0000 0.93078  0.36323  0.00000  Biso   1.000  U
  U52      1.0000 0.43078  0.86323  0.50000  Biso   1.000  U
  U53      1.0000 0.93078  0.63677  0.00000  Biso   1.000  U
  U54      1.0000 0.43078  0.13677  0.50000  Biso   1.000  U
  U55      1.0000 0.06922  0.36323  0.00000  Biso   1.000  U
  U56      1.0000 0.56922  0.86323  0.50000  Biso   1.000  U
  U57      1.0000 0.00000  0.06922  0.63677  Biso   1.000  U
  U58      1.0000 0.50000  0.56922  0.13677  Biso   1.000  U
  U59      1.0000 0.00000  0.93078  0.36323  Biso   1.000  U
  U60      1.0000 0.50000  0.43078  0.86323  Biso   1.000  U
  U61      1.0000 0.00000  0.93078  0.63677  Biso   1.000  U
  U62      1.0000 0.50000  0.43078  0.13677  Biso   1.000  U
  U63      1.0000 0.00000  0.06922  0.36323  Biso   1.000  U
  U64      1.0000 0.50000  0.56922  0.86323  Biso   1.000  U
  U65      1.0000 0.63677  0.00000  0.06922  Biso   1.000  U
  U66      1.0000 0.13677  0.50000  0.56922  Biso   1.000  U
  U67      1.0000 0.36323  0.00000  0.93078  Biso   1.000  U
  U68      1.0000 0.86323  0.50000  0.43078  Biso   1.000  U
  U69      1.0000 0.63677  0.00000  0.93078  Biso   1.000  U
  U70      1.0000 0.13677  0.50000  0.43078  Biso   1.000  U
  U71      1.0000 0.36323  0.00000  0.06922  Biso   1.000  U
  U72      1.0000 0.86323  0.50000  0.56922  Biso   1.000  U
  U73      1.0000 0.00000  0.65332  0.13184  Biso   1.000  U
  O241     1.0000 0.00000  0.58430  0.13760  Biso   1.000  O
  O242     1.0000 0.00000  0.65190  0.95160  Biso   1.000  O
  O243     1.0000 0.00000  0.65520  0.21460  Biso   1.000  O
  U74      1.0000 0.50000  0.15332  0.63184  Biso   1.000  U
  O244     1.0000 0.50000  0.08430  0.63760  Biso   1.000  O
  O245     1.0000 0.50000  0.15190  0.45160  Biso   1.000  O
  O246     1.0000 0.50000  0.15520  0.71460  Biso   1.000  O
  U75      1.0000 0.00000  0.34668  0.13184  Biso   1.000  U
  O247     1.0000 0.00000  0.41570  0.13760  Biso   1.000  O
  O248     1.0000 0.00000  0.34810  0.95160  Biso   1.000  O
  O249     1.0000 0.00000  0.34480  0.21460  Biso   1.000  O
  U76      1.0000 0.50000  0.84668  0.63184  Biso   1.000  U
  O250     1.0000 0.50000  0.91570  0.63760  Biso   1.000  O
  O251     1.0000 0.50000  0.84810  0.45160  Biso   1.000  O
  O252     1.0000 0.50000  0.84480  0.71460  Biso   1.000  O
  U77      1.0000 0.00000  0.65332  0.86816  Biso   1.000  U
  O253     1.0000 0.00000  0.58430  0.86240  Biso   1.000  O
  O254     1.0000 0.00000  0.65190  0.04840  Biso   1.000  O
  O255     1.0000 0.00000  0.65520  0.78540  Biso   1.000  O
  U78      1.0000 0.50000  0.15332  0.36816  Biso   1.000  U
  O256     1.0000 0.50000  0.08430  0.36240  Biso   1.000  O
  O257     1.0000 0.50000  0.15190  0.54840  Biso   1.000  O
  O258     1.0000 0.50000  0.15520  0.28540  Biso   1.000  O
  U79      1.0000 0.00000  0.34668  0.86816  Biso   1.000  U
  O259     1.0000 0.00000  0.41570  0.86240  Biso   1.000  O
  O260     1.0000 0.00000  0.34810  0.04840  Biso   1.000  O
  O261     1.0000 0.00000  0.34480  0.78540  Biso   1.000  O
  U80      1.0000 0.50000  0.84668  0.36816  Biso   1.000  U
  O262     1.0000 0.50000  0.91570  0.36240  Biso   1.000  O
  O263     1.0000 0.50000  0.84810  0.54840  Biso   1.000  O
  O264     1.0000 0.50000  0.84480  0.28540  Biso   1.000  O
  U81      1.0000 0.13184  0.00000  0.65332  Biso   1.000  U
  O265     1.0000 0.13760  0.00000  0.58430  Biso   1.000  O
  O266     1.0000 0.95160  0.00000  0.65190  Biso   1.000  O
  O267     1.0000 0.21460  0.00000  0.65520  Biso   1.000  O
  U82      1.0000 0.63184  0.50000  0.15332  Biso   1.000  U
  O268     1.0000 0.63760  0.50000  0.08430  Biso   1.000  O
  O269     1.0000 0.45160  0.50000  0.15190  Biso   1.000  O
  O270     1.0000 0.71460  0.50000  0.15520  Biso   1.000  O
  U83      1.0000 0.13184  0.00000  0.34668  Biso   1.000  U
  O271     1.0000 0.13760  0.00000  0.41570  Biso   1.000  O
  O272     1.0000 0.95160  0.00000  0.34810  Biso   1.000  O
  O273     1.0000 0.21460  0.00000  0.34480  Biso   1.000  O
  U84      1.0000 0.63184  0.50000  0.84668  Biso   1.000  U
  O274     1.0000 0.63760  0.50000  0.91570  Biso   1.000  O
  O275     1.0000 0.45160  0.50000  0.84810  Biso   1.000  O
  O276     1.0000 0.71460  0.50000  0.84480  Biso   1.000  O
  U85      1.0000 0.86816  0.00000  0.65332  Biso   1.000  U
  O277     1.0000 0.86240  0.00000  0.58430  Biso   1.000  O
  O278     1.0000 0.04840  0.00000  0.65190  Biso   1.000  O
  O279     1.0000 0.78540  0.00000  0.65520  Biso   1.000  O
  U86      1.0000 0.36816  0.50000  0.15332  Biso   1.000  U
  O280     1.0000 0.36240  0.50000  0.08430  Biso   1.000  O
  O281     1.0000 0.54840  0.50000  0.15190  Biso   1.000  O
  O282     1.0000 0.28540  0.50000  0.15520  Biso   1.000  O
  U87      1.0000 0.86816  0.00000  0.34668  Biso   1.000  U
  O283     1.0000 0.86240  0.00000  0.41570  Biso   1.000  O
  O284     1.0000 0.04840  0.00000  0.34810  Biso   1.000  O
  O285     1.0000 0.78540  0.00000  0.34480  Biso   1.000  O
  U88      1.0000 0.36816  0.50000  0.84668  Biso   1.000  U
  O286     1.0000 0.36240  0.50000  0.91570  Biso   1.000  O
  O287     1.0000 0.54840  0.50000  0.84810  Biso   1.000  O
  O288     1.0000 0.28540  0.50000  0.84480  Biso   1.000  O
  U89      1.0000 0.65332  0.13184  0.00000  Biso   1.000  U
  O289     1.0000 0.58430  0.13760  0.00000  Biso   1.000  O
  O290     1.0000 0.65190  0.95160  0.00000  Biso   1.000  O
  O291     1.0000 0.65520  0.21460  0.00000  Biso   1.000  O
  U90      1.0000 0.15332  0.63184  0.50000  Biso   1.000  U
  O292     1.0000 0.08430  0.63760  0.50000  Biso   1.000  O
  O293     1.0000 0.15190  0.45160  0.50000  Biso   1.000  O
  O294     1.0000 0.15520  0.71460  0.50000  Biso   1.000  O
  U91      1.0000 0.34668  0.13184  0.00000  Biso   1.000  U
  O295     1.0000 0.41570  0.13760  0.00000  Biso   1.000  O
  O296     1.0000 0.34810  0.95160  0.00000  Biso   1.000  O
  O297     1.0000 0.34480  0.21460  0.00000  Biso   1.000  O
  U92      1.0000 0.84668  0.63184  0.50000  Biso   1.000  U
  O298     1.0000 0.91570  0.63760  0.50000  Biso   1.000  O
  O299     1.0000 0.84810  0.45160  0.50000  Biso   1.000  O
  O300     1.0000 0.84480  0.71460  0.50000  Biso   1.000  O
  U93      1.0000 0.65332  0.86816  0.00000  Biso   1.000  U
  O301     1.0000 0.58430  0.86240  0.00000  Biso   1.000  O
  O302     1.0000 0.65190  0.04840  0.00000  Biso   1.000  O
  O303     1.0000 0.65520  0.78540  0.00000  Biso   1.000  O
  U94      1.0000 0.15332  0.36816  0.50000  Biso   1.000  U
  O304     1.0000 0.08430  0.36240  0.50000  Biso   1.000  O
  O305     1.0000 0.15190  0.54840  0.50000  Biso   1.000  O
  O306     1.0000 0.15520  0.28540  0.50000  Biso   1.000  O
  U95      1.0000 0.34668  0.86816  0.00000  Biso   1.000  U
  O307     1.0000 0.41570  0.86240  0.00000  Biso   1.000  O
  O308     1.0000 0.34810  0.04840  0.00000  Biso   1.000  O
  O309     1.0000 0.34480  0.78540  0.00000  Biso   1.000  O
  U96      1.0000 0.84668  0.36816  0.50000  Biso   1.000  U
  O310     1.0000 0.91570  0.36240  0.50000  Biso   1.000  O
  O311     1.0000 0.84810  0.54840  0.50000  Biso   1.000  O
  O312     1.0000 0.84480  0.28540  0.50000  Biso   1.000  O
  Cd1      1.0000 0.00000  0.50000  0.14387  Biso   1.000  Cd
  Cd2      1.0000 0.50000  0.00000  0.64387  Biso   1.000  Cd
  Cd3      1.0000 0.00000  0.50000  0.85613  Biso   1.000  Cd
  Cd4      1.0000 0.50000  0.00000  0.35613  Biso   1.000  Cd
  Cd5      1.0000 0.14387  0.00000  0.50000  Biso   1.000  Cd
  Cd6      1.0000 0.64387  0.50000  0.00000  Biso   1.000  Cd
  Cd7      1.0000 0.85613  0.00000  0.50000  Biso   1.000  Cd
  Cd8      1.0000 0.35613  0.50000  0.00000  Biso   1.000  Cd
  Cd9      1.0000 0.50000  0.14387  0.00000  Biso   1.000  Cd
  Cd10     1.0000 0.00000  0.64387  0.50000  Biso   1.000  Cd
  Cd11     1.0000 0.50000  0.85613  0.00000  Biso   1.000  Cd
  Cd12     1.0000 0.00000  0.35613  0.50000  Biso   1.000  Cd
  Cd13     1.0000 0.17908  0.82092  0.17908  Biso   1.000  Cd
  Cd14     1.0000 0.67908  0.32092  0.67908  Biso   1.000  Cd
  Cd15     1.0000 0.82092  0.17908  0.17908  Biso   1.000  Cd
  Cd16     1.0000 0.32092  0.67908  0.67908  Biso   1.000  Cd
  Cd17     1.0000 0.82092  0.82092  0.82092  Biso   1.000  Cd
  Cd18     1.0000 0.32092  0.32092  0.32092  Biso   1.000  Cd
  Cd19     1.0000 0.17908  0.17908  0.82092  Biso   1.000  Cd
  Cd20     1.0000 0.67908  0.67908  0.32092  Biso   1.000  Cd
  Cd21     1.0000 0.82092  0.17908  0.82092  Biso   1.000  Cd
  Cd22     1.0000 0.32092  0.67908  0.32092  Biso   1.000  Cd
  Cd23     1.0000 0.17908  0.82092  0.82092  Biso   1.000  Cd
  Cd24     1.0000 0.67908  0.32092  0.32092  Biso   1.000  Cd
  Cd25     1.0000 0.17908  0.17908  0.17908  Biso   1.000  Cd
  Cd26     1.0000 0.67908  0.67908  0.67908  Biso   1.000  Cd
  Cd27     1.0000 0.82092  0.82092  0.17908  Biso   1.000  Cd
  Cd28     1.0000 0.32092  0.32092  0.67908  Biso   1.000  Cd
  Cd29     1.0000 0.25000  0.75000  0.25000  Biso   1.000  Cd
  Cd30     1.0000 0.75000  0.25000  0.25000  Biso   1.000  Cd
  Cd31     1.0000 0.75000  0.75000  0.75000  Biso   1.000  Cd
  Cd32     1.0000 0.25000  0.25000  0.75000  Biso   1.000  Cd
  Cd33     1.0000 0.25000  0.75000  0.75000  Biso   1.000  Cd
  Cd34     1.0000 0.75000  0.75000  0.25000  Biso   1.000  Cd
  Cd35     1.0000 0.75000  0.25000  0.75000  Biso   1.000  Cd
  Cd36     1.0000 0.25000  0.25000  0.25000  Biso   1.000  Cd
  O313     1.0000 0.18780  0.50000  0.14350  Biso   1.000  O
  O314     1.0000 0.94830  0.50000  0.07410  Biso   1.000  O
  O315     1.0000 0.07260  0.50000  0.90500  Biso   1.000  O
  O316     1.0000 0.68780  0.00000  0.64350  Biso   1.000  O
  O317     1.0000 0.44830  0.00000  0.57410  Biso   1.000  O
  O318     1.0000 0.57260  0.00000  0.40500  Biso   1.000  O
  O319     1.0000 0.81220  0.50000  0.14350  Biso   1.000  O
  O320     1.0000 0.05170  0.50000  0.07410  Biso   1.000  O
  O321     1.0000 0.92740  0.50000  0.90500  Biso   1.000  O
  O322     1.0000 0.31220  0.00000  0.64350  Biso   1.000  O
  O323     1.0000 0.55170  0.00000  0.57410  Biso   1.000  O
  O324     1.0000 0.42740  0.00000  0.40500  Biso   1.000  O
  O325     1.0000 0.81220  0.50000  0.85650  Biso   1.000  O
  O326     1.0000 0.05170  0.50000  0.92590  Biso   1.000  O
  O327     1.0000 0.92740  0.50000  0.09500  Biso   1.000  O
  O328     1.0000 0.31220  0.00000  0.35650  Biso   1.000  O
  O329     1.0000 0.55170  0.00000  0.42590  Biso   1.000  O
  O330     1.0000 0.42740  0.00000  0.59500  Biso   1.000  O
  O331     1.0000 0.18780  0.50000  0.85650  Biso   1.000  O
  O332     1.0000 0.94830  0.50000  0.92590  Biso   1.000  O
  O333     1.0000 0.07260  0.50000  0.09500  Biso   1.000  O
  O334     1.0000 0.68780  0.00000  0.35650  Biso   1.000  O
  O335     1.0000 0.44830  0.00000  0.42590  Biso   1.000  O
  O336     1.0000 0.57260  0.00000  0.59500  Biso   1.000  O
  O337     1.0000 0.14350  0.18780  0.50000  Biso   1.000  O
  O338     1.0000 0.07410  0.94830  0.50000  Biso   1.000  O
  O339     1.0000 0.90500  0.07260  0.50000  Biso   1.000  O
  O340     1.0000 0.64350  0.68780  0.00000  Biso   1.000  O
  O341     1.0000 0.57410  0.44830  0.00000  Biso   1.000  O
  O342     1.0000 0.40500  0.57260  0.00000  Biso   1.000  O
  O343     1.0000 0.14350  0.81220  0.50000  Biso   1.000  O
  O344     1.0000 0.07410  0.05170  0.50000  Biso   1.000  O
  O345     1.0000 0.90500  0.92740  0.50000  Biso   1.000  O
  O346     1.0000 0.64350  0.31220  0.00000  Biso   1.000  O
  O347     1.0000 0.57410  0.55170  0.00000  Biso   1.000  O
  O348     1.0000 0.40500  0.42740  0.00000  Biso   1.000  O
  O349     1.0000 0.85650  0.81220  0.50000  Biso   1.000  O
  O350     1.0000 0.92590  0.05170  0.50000  Biso   1.000  O
  O351     1.0000 0.09500  0.92740  0.50000  Biso   1.000  O
  O352     1.0000 0.35650  0.31220  0.00000  Biso   1.000  O
  O353     1.0000 0.42590  0.55170  0.00000  Biso   1.000  O
  O354     1.0000 0.59500  0.42740  0.00000  Biso   1.000  O
  O355     1.0000 0.85650  0.18780  0.50000  Biso   1.000  O
  O356     1.0000 0.92590  0.94830  0.50000  Biso   1.000  O
  O357     1.0000 0.09500  0.07260  0.50000  Biso   1.000  O
  O358     1.0000 0.35650  0.68780  0.00000  Biso   1.000  O
  O359     1.0000 0.42590  0.44830  0.00000  Biso   1.000  O
  O360     1.0000 0.59500  0.57260  0.00000  Biso   1.000  O
  O361     1.0000 0.50000  0.14350  0.18780  Biso   1.000  O
  O362     1.0000 0.50000  0.07410  0.94830  Biso   1.000  O
  O363     1.0000 0.50000  0.90500  0.07260  Biso   1.000  O
  O364     1.0000 0.00000  0.64350  0.68780  Biso   1.000  O
  O365     1.0000 0.00000  0.57410  0.44830  Biso   1.000  O
  O366     1.0000 0.00000  0.40500  0.57260  Biso   1.000  O
  O367     1.0000 0.50000  0.14350  0.81220  Biso   1.000  O
  O368     1.0000 0.50000  0.07410  0.05170  Biso   1.000  O
  O369     1.0000 0.50000  0.90500  0.92740  Biso   1.000  O
  O370     1.0000 0.00000  0.64350  0.31220  Biso   1.000  O
  O371     1.0000 0.00000  0.57410  0.55170  Biso   1.000  O
  O372     1.0000 0.00000  0.40500  0.42740  Biso   1.000  O
  O373     1.0000 0.50000  0.85650  0.81220  Biso   1.000  O
  O374     1.0000 0.50000  0.92590  0.05170  Biso   1.000  O
  O375     1.0000 0.50000  0.09500  0.92740  Biso   1.000  O
  O376     1.0000 0.00000  0.35650  0.31220  Biso   1.000  O
  O377     1.0000 0.00000  0.42590  0.55170  Biso   1.000  O
  O378     1.0000 0.00000  0.59500  0.42740  Biso   1.000  O
  O379     1.0000 0.50000  0.85650  0.18780  Biso   1.000  O
  O380     1.0000 0.50000  0.92590  0.94830  Biso   1.000  O
  O381     1.0000 0.50000  0.09500  0.07260  Biso   1.000  O
  O382     1.0000 0.00000  0.35650  0.68780  Biso   1.000  O
  O383     1.0000 0.00000  0.42590  0.44830  Biso   1.000  O
  O384     1.0000 0.00000  0.59500  0.57260  Biso   1.000  O
