data_image0
_cell_length_a       34.4885
_cell_length_b       34.4885
_cell_length_c       34.4885
_cell_angle_alpha    90
_cell_angle_beta     90
_cell_angle_gamma    90

_symmetry_space_group_name_H-M    "P 1"
_symmetry_int_tables_number       1

loop_
  _symmetry_equiv_pos_as_xyz
  'x, y, z'

loop_
  _atom_site_label
  _atom_site_occupancy
  _atom_site_fract_x
  _atom_site_fract_y
  _atom_site_fract_z
  _atom_site_thermal_displace_type
  _atom_site_B_iso_or_equiv
  _atom_site_type_symbol
  C1       1.0000 0.87558  0.03517  0.07321  Biso   1.000  C
  H1       1.0000 0.86570  0.05420  0.08950  Biso   1.000  H
  C2       1.0000 0.90413  0.98498  0.05365  Biso   1.000  C
  H2       1.0000 0.91810  0.96190  0.05300  Biso   1.000  H
  C3       1.0000 0.88980  0.00326  0.02221  Biso   1.000  C
  C4       1.0000 0.89960  0.98830  0.98350  Biso   1.000  C
  H3       1.0000 0.91480  0.96610  0.98350  Biso   1.000  H
  C5       1.0000 0.85150  0.04430  0.92130  Biso   1.000  C
  H4       1.0000 0.85030  0.02740  0.90030  Biso   1.000  H
  N1       1.0000 0.89060  0.00100  0.94940  Biso   1.000  N
  N2       1.0000 0.86980  0.03480  0.95280  Biso   1.000  N
  C6       1.0000 0.83270  0.08230  0.91958  Biso   1.000  C
  C7       1.0000 0.80960  0.10200  0.89400  Biso   1.000  C
  H5       1.0000 0.80650  0.09600  0.86790  Biso   1.000  H
  C8       1.0000 0.80437  0.12825  0.94970  Biso   1.000  C
  H6       1.0000 0.79700  0.14510  0.96940  Biso   1.000  H
  N3       1.0000 0.87100  0.03601  0.03499  Biso   1.000  N
  N4       1.0000 0.89542  0.00481  0.08614  Biso   1.000  N
  N5       1.0000 0.82826  0.09881  0.95519  Biso   1.000  N
  N6       1.0000 0.79177  0.13149  0.91295  Biso   1.000  N
  Cu1      1.0000 0.85991  0.08173  0.00098  Biso   1.000  Cu
  C9       1.0000 0.88710  0.00090  0.98000  Biso   1.000  C
  H7       1.0000 0.89390  0.97820  0.96710  Biso   1.000  H
  C10      1.0000 0.85920  0.05220  0.90490  Biso   1.000  C
  H8       1.0000 0.86180  0.05250  0.87810  Biso   1.000  H
  N7       1.0000 0.87520  0.03080  0.96100  Biso   1.000  N
  N8       1.0000 0.87960  0.02530  0.92170  Biso   1.000  N
  Zn1      1.0000 0.91827  0.99902  0.14009  Biso   1.000  Zn
  C11      1.0000 0.37558  0.53517  0.57321  Biso   1.000  C
  H9       1.0000 0.36570  0.55420  0.58950  Biso   1.000  H
  C12      1.0000 0.40413  0.48498  0.55365  Biso   1.000  C
  H10      1.0000 0.41810  0.46190  0.55300  Biso   1.000  H
  C13      1.0000 0.38980  0.50326  0.52221  Biso   1.000  C
  C14      1.0000 0.39960  0.48830  0.48350  Biso   1.000  C
  H11      1.0000 0.41480  0.46610  0.48350  Biso   1.000  H
  C15      1.0000 0.35150  0.54430  0.42130  Biso   1.000  C
  H12      1.0000 0.35030  0.52740  0.40030  Biso   1.000  H
  N9       1.0000 0.39060  0.50100  0.44940  Biso   1.000  N
  N10      1.0000 0.36980  0.53480  0.45280  Biso   1.000  N
  C16      1.0000 0.33270  0.58230  0.41958  Biso   1.000  C
  C17      1.0000 0.30960  0.60200  0.39400  Biso   1.000  C
  H13      1.0000 0.30650  0.59600  0.36790  Biso   1.000  H
  C18      1.0000 0.30437  0.62825  0.44970  Biso   1.000  C
  H14      1.0000 0.29700  0.64510  0.46940  Biso   1.000  H
  N11      1.0000 0.37100  0.53601  0.53499  Biso   1.000  N
  N12      1.0000 0.39542  0.50481  0.58614  Biso   1.000  N
  N13      1.0000 0.32826  0.59881  0.45519  Biso   1.000  N
  N14      1.0000 0.29177  0.63149  0.41295  Biso   1.000  N
  Cu2      1.0000 0.35991  0.58173  0.50098  Biso   1.000  Cu
  C19      1.0000 0.38710  0.50090  0.48000  Biso   1.000  C
  H15      1.0000 0.39390  0.47820  0.46710  Biso   1.000  H
  C20      1.0000 0.35920  0.55220  0.40490  Biso   1.000  C
  H16      1.0000 0.36180  0.55250  0.37810  Biso   1.000  H
  N15      1.0000 0.37520  0.53080  0.46100  Biso   1.000  N
  N16      1.0000 0.37960  0.52530  0.42170  Biso   1.000  N
  Zn2      1.0000 0.41827  0.49902  0.64009  Biso   1.000  Zn
  C21      1.0000 0.62442  0.96483  0.57321  Biso   1.000  C
  H17      1.0000 0.63430  0.94580  0.58950  Biso   1.000  H
  C22      1.0000 0.59587  0.01502  0.55365  Biso   1.000  C
  H18      1.0000 0.58190  0.03810  0.55300  Biso   1.000  H
  C23      1.0000 0.61020  0.99674  0.52221  Biso   1.000  C
  C24      1.0000 0.60040  0.01170  0.48350  Biso   1.000  C
  H19      1.0000 0.58520  0.03390  0.48350  Biso   1.000  H
  C25      1.0000 0.64850  0.95570  0.42130  Biso   1.000  C
  H20      1.0000 0.64970  0.97260  0.40030  Biso   1.000  H
  N17      1.0000 0.60940  0.99900  0.44940  Biso   1.000  N
  N18      1.0000 0.63020  0.96520  0.45280  Biso   1.000  N
  C26      1.0000 0.66730  0.91770  0.41958  Biso   1.000  C
  C27      1.0000 0.69040  0.89800  0.39400  Biso   1.000  C
  H21      1.0000 0.69350  0.90400  0.36790  Biso   1.000  H
  C28      1.0000 0.69563  0.87175  0.44970  Biso   1.000  C
  H22      1.0000 0.70300  0.85490  0.46940  Biso   1.000  H
  N19      1.0000 0.62900  0.96399  0.53499  Biso   1.000  N
  N20      1.0000 0.60458  0.99519  0.58614  Biso   1.000  N
  N21      1.0000 0.67174  0.90119  0.45519  Biso   1.000  N
  N22      1.0000 0.70823  0.86851  0.41295  Biso   1.000  N
  Cu3      1.0000 0.64009  0.91827  0.50098  Biso   1.000  Cu
  C29      1.0000 0.61290  0.99910  0.48000  Biso   1.000  C
  H23      1.0000 0.60610  0.02180  0.46710  Biso   1.000  H
  C30      1.0000 0.64080  0.94780  0.40490  Biso   1.000  C
  H24      1.0000 0.63820  0.94750  0.37810  Biso   1.000  H
  N23      1.0000 0.62480  0.96920  0.46100  Biso   1.000  N
  N24      1.0000 0.62040  0.97470  0.42170  Biso   1.000  N
  Zn3      1.0000 0.58173  0.00098  0.64009  Biso   1.000  Zn
  C31      1.0000 0.12442  0.46483  0.07321  Biso   1.000  C
  H25      1.0000 0.13430  0.44580  0.08950  Biso   1.000  H
  C32      1.0000 0.09587  0.51502  0.05365  Biso   1.000  C
  H26      1.0000 0.08190  0.53810  0.05300  Biso   1.000  H
  C33      1.0000 0.11020  0.49674  0.02221  Biso   1.000  C
  C34      1.0000 0.10040  0.51170  0.98350  Biso   1.000  C
  H27      1.0000 0.08520  0.53390  0.98350  Biso   1.000  H
  C35      1.0000 0.14850  0.45570  0.92130  Biso   1.000  C
  H28      1.0000 0.14970  0.47260  0.90030  Biso   1.000  H
  N25      1.0000 0.10940  0.49900  0.94940  Biso   1.000  N
  N26      1.0000 0.13020  0.46520  0.95280  Biso   1.000  N
  C36      1.0000 0.16730  0.41770  0.91958  Biso   1.000  C
  C37      1.0000 0.19040  0.39800  0.89400  Biso   1.000  C
  H29      1.0000 0.19350  0.40400  0.86790  Biso   1.000  H
  C38      1.0000 0.19563  0.37175  0.94970  Biso   1.000  C
  H30      1.0000 0.20300  0.35490  0.96940  Biso   1.000  H
  N27      1.0000 0.12900  0.46399  0.03499  Biso   1.000  N
  N28      1.0000 0.10458  0.49519  0.08614  Biso   1.000  N
  N29      1.0000 0.17174  0.40119  0.95519  Biso   1.000  N
  N30      1.0000 0.20823  0.36851  0.91295  Biso   1.000  N
  Cu4      1.0000 0.14009  0.41827  0.00098  Biso   1.000  Cu
  C39      1.0000 0.11290  0.49910  0.98000  Biso   1.000  C
  H31      1.0000 0.10610  0.52180  0.96710  Biso   1.000  H
  C40      1.0000 0.14080  0.44780  0.90490  Biso   1.000  C
  H32      1.0000 0.13820  0.44750  0.87810  Biso   1.000  H
  N31      1.0000 0.12480  0.46920  0.96100  Biso   1.000  N
  N32      1.0000 0.12040  0.47470  0.92170  Biso   1.000  N
  Zn4      1.0000 0.08173  0.50098  0.14009  Biso   1.000  Zn
  C41      1.0000 0.12442  0.53517  0.42679  Biso   1.000  C
  H33      1.0000 0.13430  0.55420  0.41050  Biso   1.000  H
  C42      1.0000 0.09587  0.48498  0.44635  Biso   1.000  C
  H34      1.0000 0.08190  0.46190  0.44700  Biso   1.000  H
  C43      1.0000 0.11020  0.50326  0.47779  Biso   1.000  C
  C44      1.0000 0.10040  0.48830  0.51650  Biso   1.000  C
  H35      1.0000 0.08520  0.46610  0.51650  Biso   1.000  H
  C45      1.0000 0.14850  0.54430  0.57870  Biso   1.000  C
  H36      1.0000 0.14970  0.52740  0.59970  Biso   1.000  H
  N33      1.0000 0.10940  0.50100  0.55060  Biso   1.000  N
  N34      1.0000 0.13020  0.53480  0.54720  Biso   1.000  N
  C46      1.0000 0.16730  0.58230  0.58042  Biso   1.000  C
  C47      1.0000 0.19040  0.60200  0.60600  Biso   1.000  C
  H37      1.0000 0.19350  0.59600  0.63210  Biso   1.000  H
  C48      1.0000 0.19563  0.62825  0.55030  Biso   1.000  C
  H38      1.0000 0.20300  0.64510  0.53060  Biso   1.000  H
  N35      1.0000 0.12900  0.53601  0.46501  Biso   1.000  N
  N36      1.0000 0.10458  0.50481  0.41386  Biso   1.000  N
  N37      1.0000 0.17174  0.59881  0.54481  Biso   1.000  N
  N38      1.0000 0.20823  0.63149  0.58705  Biso   1.000  N
  Cu5      1.0000 0.14009  0.58173  0.49902  Biso   1.000  Cu
  C49      1.0000 0.11290  0.50090  0.52000  Biso   1.000  C
  H39      1.0000 0.10610  0.47820  0.53290  Biso   1.000  H
  C50      1.0000 0.14080  0.55220  0.59510  Biso   1.000  C
  H40      1.0000 0.13820  0.55250  0.62190  Biso   1.000  H
  N39      1.0000 0.12480  0.53080  0.53900  Biso   1.000  N
  N40      1.0000 0.12040  0.52530  0.57830  Biso   1.000  N
  Zn5      1.0000 0.08173  0.49902  0.35991  Biso   1.000  Zn
  C51      1.0000 0.62442  0.03517  0.92679  Biso   1.000  C
  H41      1.0000 0.63430  0.05420  0.91050  Biso   1.000  H
  C52      1.0000 0.59587  0.98498  0.94635  Biso   1.000  C
  H42      1.0000 0.58190  0.96190  0.94700  Biso   1.000  H
  C53      1.0000 0.61020  0.00326  0.97779  Biso   1.000  C
  C54      1.0000 0.60040  0.98830  0.01650  Biso   1.000  C
  H43      1.0000 0.58520  0.96610  0.01650  Biso   1.000  H
  C55      1.0000 0.64850  0.04430  0.07870  Biso   1.000  C
  H44      1.0000 0.64970  0.02740  0.09970  Biso   1.000  H
  N41      1.0000 0.60940  0.00100  0.05060  Biso   1.000  N
  N42      1.0000 0.63020  0.03480  0.04720  Biso   1.000  N
  C56      1.0000 0.66730  0.08230  0.08042  Biso   1.000  C
  C57      1.0000 0.69040  0.10200  0.10600  Biso   1.000  C
  H45      1.0000 0.69350  0.09600  0.13210  Biso   1.000  H
  C58      1.0000 0.69563  0.12825  0.05030  Biso   1.000  C
  H46      1.0000 0.70300  0.14510  0.03060  Biso   1.000  H
  N43      1.0000 0.62900  0.03601  0.96501  Biso   1.000  N
  N44      1.0000 0.60458  0.00481  0.91386  Biso   1.000  N
  N45      1.0000 0.67174  0.09881  0.04481  Biso   1.000  N
  N46      1.0000 0.70823  0.13149  0.08705  Biso   1.000  N
  Cu6      1.0000 0.64009  0.08173  0.99902  Biso   1.000  Cu
  C59      1.0000 0.61290  0.00090  0.02000  Biso   1.000  C
  H47      1.0000 0.60610  0.97820  0.03290  Biso   1.000  H
  C60      1.0000 0.64080  0.05220  0.09510  Biso   1.000  C
  H48      1.0000 0.63820  0.05250  0.12190  Biso   1.000  H
  N47      1.0000 0.62480  0.03080  0.03900  Biso   1.000  N
  N48      1.0000 0.62040  0.02530  0.07830  Biso   1.000  N
  Zn6      1.0000 0.58173  0.99902  0.85991  Biso   1.000  Zn
  C61      1.0000 0.37558  0.46483  0.92679  Biso   1.000  C
  H49      1.0000 0.36570  0.44580  0.91050  Biso   1.000  H
  C62      1.0000 0.40413  0.51502  0.94635  Biso   1.000  C
  H50      1.0000 0.41810  0.53810  0.94700  Biso   1.000  H
  C63      1.0000 0.38980  0.49674  0.97779  Biso   1.000  C
  C64      1.0000 0.39960  0.51170  0.01650  Biso   1.000  C
  H51      1.0000 0.41480  0.53390  0.01650  Biso   1.000  H
  C65      1.0000 0.35150  0.45570  0.07870  Biso   1.000  C
  H52      1.0000 0.35030  0.47260  0.09970  Biso   1.000  H
  N49      1.0000 0.39060  0.49900  0.05060  Biso   1.000  N
  N50      1.0000 0.36980  0.46520  0.04720  Biso   1.000  N
  C66      1.0000 0.33270  0.41770  0.08042  Biso   1.000  C
  C67      1.0000 0.30960  0.39800  0.10600  Biso   1.000  C
  H53      1.0000 0.30650  0.40400  0.13210  Biso   1.000  H
  C68      1.0000 0.30437  0.37175  0.05030  Biso   1.000  C
  H54      1.0000 0.29700  0.35490  0.03060  Biso   1.000  H
  N51      1.0000 0.37100  0.46399  0.96501  Biso   1.000  N
  N52      1.0000 0.39542  0.49519  0.91386  Biso   1.000  N
  N53      1.0000 0.32826  0.40119  0.04481  Biso   1.000  N
  N54      1.0000 0.29177  0.36851  0.08705  Biso   1.000  N
  Cu7      1.0000 0.35991  0.41827  0.99902  Biso   1.000  Cu
  C69      1.0000 0.38710  0.49910  0.02000  Biso   1.000  C
  H55      1.0000 0.39390  0.52180  0.03290  Biso   1.000  H
  C70      1.0000 0.35920  0.44780  0.09510  Biso   1.000  C
  H56      1.0000 0.36180  0.44750  0.12190  Biso   1.000  H
  N55      1.0000 0.37520  0.46920  0.03900  Biso   1.000  N
  N56      1.0000 0.37960  0.47470  0.07830  Biso   1.000  N
  Zn7      1.0000 0.41827  0.50098  0.85991  Biso   1.000  Zn
  C71      1.0000 0.87558  0.96483  0.42679  Biso   1.000  C
  H57      1.0000 0.86570  0.94580  0.41050  Biso   1.000  H
  C72      1.0000 0.90413  0.01502  0.44635  Biso   1.000  C
  H58      1.0000 0.91810  0.03810  0.44700  Biso   1.000  H
  C73      1.0000 0.88980  0.99674  0.47779  Biso   1.000  C
  C74      1.0000 0.89960  0.01170  0.51650  Biso   1.000  C
  H59      1.0000 0.91480  0.03390  0.51650  Biso   1.000  H
  C75      1.0000 0.85150  0.95570  0.57870  Biso   1.000  C
  H60      1.0000 0.85030  0.97260  0.59970  Biso   1.000  H
  N57      1.0000 0.89060  0.99900  0.55060  Biso   1.000  N
  N58      1.0000 0.86980  0.96520  0.54720  Biso   1.000  N
  C76      1.0000 0.83270  0.91770  0.58042  Biso   1.000  C
  C77      1.0000 0.80960  0.89800  0.60600  Biso   1.000  C
  H61      1.0000 0.80650  0.90400  0.63210  Biso   1.000  H
  C78      1.0000 0.80437  0.87175  0.55030  Biso   1.000  C
  H62      1.0000 0.79700  0.85490  0.53060  Biso   1.000  H
  N59      1.0000 0.87100  0.96399  0.46501  Biso   1.000  N
  N60      1.0000 0.89542  0.99519  0.41386  Biso   1.000  N
  N61      1.0000 0.82826  0.90119  0.54481  Biso   1.000  N
  N62      1.0000 0.79177  0.86851  0.58705  Biso   1.000  N
  Cu8      1.0000 0.85991  0.91827  0.49902  Biso   1.000  Cu
  C79      1.0000 0.88710  0.99910  0.52000  Biso   1.000  C
  H63      1.0000 0.89390  0.02180  0.53290  Biso   1.000  H
  C80      1.0000 0.85920  0.94780  0.59510  Biso   1.000  C
  H64      1.0000 0.86180  0.94750  0.62190  Biso   1.000  H
  N63      1.0000 0.87520  0.96920  0.53900  Biso   1.000  N
  N64      1.0000 0.87960  0.97470  0.57830  Biso   1.000  N
  Zn8      1.0000 0.91827  0.00098  0.35991  Biso   1.000  Zn
  C81      1.0000 0.07321  0.87558  0.03517  Biso   1.000  C
  H65      1.0000 0.08950  0.86570  0.05420  Biso   1.000  H
  C82      1.0000 0.05365  0.90413  0.98498  Biso   1.000  C
  H66      1.0000 0.05300  0.91810  0.96190  Biso   1.000  H
  C83      1.0000 0.02221  0.88980  0.00326  Biso   1.000  C
  C84      1.0000 0.98350  0.89960  0.98830  Biso   1.000  C
  H67      1.0000 0.98350  0.91480  0.96610  Biso   1.000  H
  C85      1.0000 0.92130  0.85150  0.04430  Biso   1.000  C
  H68      1.0000 0.90030  0.85030  0.02740  Biso   1.000  H
  N65      1.0000 0.94940  0.89060  0.00100  Biso   1.000  N
  N66      1.0000 0.95280  0.86980  0.03480  Biso   1.000  N
  C86      1.0000 0.91958  0.83270  0.08230  Biso   1.000  C
  C87      1.0000 0.89400  0.80960  0.10200  Biso   1.000  C
  H69      1.0000 0.86790  0.80650  0.09600  Biso   1.000  H
  C88      1.0000 0.94970  0.80437  0.12825  Biso   1.000  C
  H70      1.0000 0.96940  0.79700  0.14510  Biso   1.000  H
  N67      1.0000 0.03499  0.87100  0.03601  Biso   1.000  N
  N68      1.0000 0.08614  0.89542  0.00481  Biso   1.000  N
  N69      1.0000 0.95519  0.82826  0.09881  Biso   1.000  N
  N70      1.0000 0.91295  0.79177  0.13149  Biso   1.000  N
  Cu9      1.0000 0.00098  0.85991  0.08173  Biso   1.000  Cu
  C89      1.0000 0.98000  0.88710  0.00090  Biso   1.000  C
  H71      1.0000 0.96710  0.89390  0.97820  Biso   1.000  H
  C90      1.0000 0.90490  0.85920  0.05220  Biso   1.000  C
  H72      1.0000 0.87810  0.86180  0.05250  Biso   1.000  H
  N71      1.0000 0.96100  0.87520  0.03080  Biso   1.000  N
  N72      1.0000 0.92170  0.87960  0.02530  Biso   1.000  N
  Zn9      1.0000 0.14009  0.91827  0.99902  Biso   1.000  Zn
  C91      1.0000 0.57321  0.37558  0.53517  Biso   1.000  C
  H73      1.0000 0.58950  0.36570  0.55420  Biso   1.000  H
  C92      1.0000 0.55365  0.40413  0.48498  Biso   1.000  C
  H74      1.0000 0.55300  0.41810  0.46190  Biso   1.000  H
  C93      1.0000 0.52221  0.38980  0.50326  Biso   1.000  C
  C94      1.0000 0.48350  0.39960  0.48830  Biso   1.000  C
  H75      1.0000 0.48350  0.41480  0.46610  Biso   1.000  H
  C95      1.0000 0.42130  0.35150  0.54430  Biso   1.000  C
  H76      1.0000 0.40030  0.35030  0.52740  Biso   1.000  H
  N73      1.0000 0.44940  0.39060  0.50100  Biso   1.000  N
  N74      1.0000 0.45280  0.36980  0.53480  Biso   1.000  N
  C96      1.0000 0.41958  0.33270  0.58230  Biso   1.000  C
  C97      1.0000 0.39400  0.30960  0.60200  Biso   1.000  C
  H77      1.0000 0.36790  0.30650  0.59600  Biso   1.000  H
  C98      1.0000 0.44970  0.30437  0.62825  Biso   1.000  C
  H78      1.0000 0.46940  0.29700  0.64510  Biso   1.000  H
  N75      1.0000 0.53499  0.37100  0.53601  Biso   1.000  N
  N76      1.0000 0.58614  0.39542  0.50481  Biso   1.000  N
  N77      1.0000 0.45519  0.32826  0.59881  Biso   1.000  N
  N78      1.0000 0.41295  0.29177  0.63149  Biso   1.000  N
  Cu10     1.0000 0.50098  0.35991  0.58173  Biso   1.000  Cu
  C99      1.0000 0.48000  0.38710  0.50090  Biso   1.000  C
  H79      1.0000 0.46710  0.39390  0.47820  Biso   1.000  H
  C100     1.0000 0.40490  0.35920  0.55220  Biso   1.000  C
  H80      1.0000 0.37810  0.36180  0.55250  Biso   1.000  H
  N79      1.0000 0.46100  0.37520  0.53080  Biso   1.000  N
  N80      1.0000 0.42170  0.37960  0.52530  Biso   1.000  N
  Zn10     1.0000 0.64009  0.41827  0.49902  Biso   1.000  Zn
  C101     1.0000 0.57321  0.62442  0.96483  Biso   1.000  C
  H81      1.0000 0.58950  0.63430  0.94580  Biso   1.000  H
  C102     1.0000 0.55365  0.59587  0.01502  Biso   1.000  C
  H82      1.0000 0.55300  0.58190  0.03810  Biso   1.000  H
  C103     1.0000 0.52221  0.61020  0.99674  Biso   1.000  C
  C104     1.0000 0.48350  0.60040  0.01170  Biso   1.000  C
  H83      1.0000 0.48350  0.58520  0.03390  Biso   1.000  H
  C105     1.0000 0.42130  0.64850  0.95570  Biso   1.000  C
  H84      1.0000 0.40030  0.64970  0.97260  Biso   1.000  H
  N81      1.0000 0.44940  0.60940  0.99900  Biso   1.000  N
  N82      1.0000 0.45280  0.63020  0.96520  Biso   1.000  N
  C106     1.0000 0.41958  0.66730  0.91770  Biso   1.000  C
  C107     1.0000 0.39400  0.69040  0.89800  Biso   1.000  C
  H85      1.0000 0.36790  0.69350  0.90400  Biso   1.000  H
  C108     1.0000 0.44970  0.69563  0.87175  Biso   1.000  C
  H86      1.0000 0.46940  0.70300  0.85490  Biso   1.000  H
  N83      1.0000 0.53499  0.62900  0.96399  Biso   1.000  N
  N84      1.0000 0.58614  0.60458  0.99519  Biso   1.000  N
  N85      1.0000 0.45519  0.67174  0.90119  Biso   1.000  N
  N86      1.0000 0.41295  0.70823  0.86851  Biso   1.000  N
  Cu11     1.0000 0.50098  0.64009  0.91827  Biso   1.000  Cu
  C109     1.0000 0.48000  0.61290  0.99910  Biso   1.000  C
  H87      1.0000 0.46710  0.60610  0.02180  Biso   1.000  H
  C110     1.0000 0.40490  0.64080  0.94780  Biso   1.000  C
  H88      1.0000 0.37810  0.63820  0.94750  Biso   1.000  H
  N87      1.0000 0.46100  0.62480  0.96920  Biso   1.000  N
  N88      1.0000 0.42170  0.62040  0.97470  Biso   1.000  N
  Zn11     1.0000 0.64009  0.58173  0.00098  Biso   1.000  Zn
  C111     1.0000 0.07321  0.12442  0.46483  Biso   1.000  C
  H89      1.0000 0.08950  0.13430  0.44580  Biso   1.000  H
  C112     1.0000 0.05365  0.09587  0.51502  Biso   1.000  C
  H90      1.0000 0.05300  0.08190  0.53810  Biso   1.000  H
  C113     1.0000 0.02221  0.11020  0.49674  Biso   1.000  C
  C114     1.0000 0.98350  0.10040  0.51170  Biso   1.000  C
  H91      1.0000 0.98350  0.08520  0.53390  Biso   1.000  H
  C115     1.0000 0.92130  0.14850  0.45570  Biso   1.000  C
  H92      1.0000 0.90030  0.14970  0.47260  Biso   1.000  H
  N89      1.0000 0.94940  0.10940  0.49900  Biso   1.000  N
  N90      1.0000 0.95280  0.13020  0.46520  Biso   1.000  N
  C116     1.0000 0.91958  0.16730  0.41770  Biso   1.000  C
  C117     1.0000 0.89400  0.19040  0.39800  Biso   1.000  C
  H93      1.0000 0.86790  0.19350  0.40400  Biso   1.000  H
  C118     1.0000 0.94970  0.19563  0.37175  Biso   1.000  C
  H94      1.0000 0.96940  0.20300  0.35490  Biso   1.000  H
  N91      1.0000 0.03499  0.12900  0.46399  Biso   1.000  N
  N92      1.0000 0.08614  0.10458  0.49519  Biso   1.000  N
  N93      1.0000 0.95519  0.17174  0.40119  Biso   1.000  N
  N94      1.0000 0.91295  0.20823  0.36851  Biso   1.000  N
  Cu12     1.0000 0.00098  0.14009  0.41827  Biso   1.000  Cu
  C119     1.0000 0.98000  0.11290  0.49910  Biso   1.000  C
  H95      1.0000 0.96710  0.10610  0.52180  Biso   1.000  H
  C120     1.0000 0.90490  0.14080  0.44780  Biso   1.000  C
  H96      1.0000 0.87810  0.13820  0.44750  Biso   1.000  H
  N95      1.0000 0.96100  0.12480  0.46920  Biso   1.000  N
  N96      1.0000 0.92170  0.12040  0.47470  Biso   1.000  N
  Zn12     1.0000 0.14009  0.08173  0.50098  Biso   1.000  Zn
  C121     1.0000 0.42679  0.12442  0.53517  Biso   1.000  C
  H97      1.0000 0.41050  0.13430  0.55420  Biso   1.000  H
  C122     1.0000 0.44635  0.09587  0.48498  Biso   1.000  C
  H98      1.0000 0.44700  0.08190  0.46190  Biso   1.000  H
  C123     1.0000 0.47779  0.11020  0.50326  Biso   1.000  C
  C124     1.0000 0.51650  0.10040  0.48830  Biso   1.000  C
  H99      1.0000 0.51650  0.08520  0.46610  Biso   1.000  H
  C125     1.0000 0.57870  0.14850  0.54430  Biso   1.000  C
  H100     1.0000 0.59970  0.14970  0.52740  Biso   1.000  H
  N97      1.0000 0.55060  0.10940  0.50100  Biso   1.000  N
  N98      1.0000 0.54720  0.13020  0.53480  Biso   1.000  N
  C126     1.0000 0.58042  0.16730  0.58230  Biso   1.000  C
  C127     1.0000 0.60600  0.19040  0.60200  Biso   1.000  C
  H101     1.0000 0.63210  0.19350  0.59600  Biso   1.000  H
  C128     1.0000 0.55030  0.19563  0.62825  Biso   1.000  C
  H102     1.0000 0.53060  0.20300  0.64510  Biso   1.000  H
  N99      1.0000 0.46501  0.12900  0.53601  Biso   1.000  N
  N100     1.0000 0.41386  0.10458  0.50481  Biso   1.000  N
  N101     1.0000 0.54481  0.17174  0.59881  Biso   1.000  N
  N102     1.0000 0.58705  0.20823  0.63149  Biso   1.000  N
  Cu13     1.0000 0.49902  0.14009  0.58173  Biso   1.000  Cu
  C129     1.0000 0.52000  0.11290  0.50090  Biso   1.000  C
  H103     1.0000 0.53290  0.10610  0.47820  Biso   1.000  H
  C130     1.0000 0.59510  0.14080  0.55220  Biso   1.000  C
  H104     1.0000 0.62190  0.13820  0.55250  Biso   1.000  H
  N103     1.0000 0.53900  0.12480  0.53080  Biso   1.000  N
  N104     1.0000 0.57830  0.12040  0.52530  Biso   1.000  N
  Zn13     1.0000 0.35991  0.08173  0.49902  Biso   1.000  Zn
  C131     1.0000 0.92679  0.62442  0.03517  Biso   1.000  C
  H105     1.0000 0.91050  0.63430  0.05420  Biso   1.000  H
  C132     1.0000 0.94635  0.59587  0.98498  Biso   1.000  C
  H106     1.0000 0.94700  0.58190  0.96190  Biso   1.000  H
  C133     1.0000 0.97779  0.61020  0.00326  Biso   1.000  C
  C134     1.0000 0.01650  0.60040  0.98830  Biso   1.000  C
  H107     1.0000 0.01650  0.58520  0.96610  Biso   1.000  H
  C135     1.0000 0.07870  0.64850  0.04430  Biso   1.000  C
  H108     1.0000 0.09970  0.64970  0.02740  Biso   1.000  H
  N105     1.0000 0.05060  0.60940  0.00100  Biso   1.000  N
  N106     1.0000 0.04720  0.63020  0.03480  Biso   1.000  N
  C136     1.0000 0.08042  0.66730  0.08230  Biso   1.000  C
  C137     1.0000 0.10600  0.69040  0.10200  Biso   1.000  C
  H109     1.0000 0.13210  0.69350  0.09600  Biso   1.000  H
  C138     1.0000 0.05030  0.69563  0.12825  Biso   1.000  C
  H110     1.0000 0.03060  0.70300  0.14510  Biso   1.000  H
  N107     1.0000 0.96501  0.62900  0.03601  Biso   1.000  N
  N108     1.0000 0.91386  0.60458  0.00481  Biso   1.000  N
  N109     1.0000 0.04481  0.67174  0.09881  Biso   1.000  N
  N110     1.0000 0.08705  0.70823  0.13149  Biso   1.000  N
  Cu14     1.0000 0.99902  0.64009  0.08173  Biso   1.000  Cu
  C139     1.0000 0.02000  0.61290  0.00090  Biso   1.000  C
  H111     1.0000 0.03290  0.60610  0.97820  Biso   1.000  H
  C140     1.0000 0.09510  0.64080  0.05220  Biso   1.000  C
  H112     1.0000 0.12190  0.63820  0.05250  Biso   1.000  H
  N111     1.0000 0.03900  0.62480  0.03080  Biso   1.000  N
  N112     1.0000 0.07830  0.62040  0.02530  Biso   1.000  N
  Zn14     1.0000 0.85991  0.58173  0.99902  Biso   1.000  Zn
  C141     1.0000 0.92679  0.37558  0.46483  Biso   1.000  C
  H113     1.0000 0.91050  0.36570  0.44580  Biso   1.000  H
  C142     1.0000 0.94635  0.40413  0.51502  Biso   1.000  C
  H114     1.0000 0.94700  0.41810  0.53810  Biso   1.000  H
  C143     1.0000 0.97779  0.38980  0.49674  Biso   1.000  C
  C144     1.0000 0.01650  0.39960  0.51170  Biso   1.000  C
  H115     1.0000 0.01650  0.41480  0.53390  Biso   1.000  H
  C145     1.0000 0.07870  0.35150  0.45570  Biso   1.000  C
  H116     1.0000 0.09970  0.35030  0.47260  Biso   1.000  H
  N113     1.0000 0.05060  0.39060  0.49900  Biso   1.000  N
  N114     1.0000 0.04720  0.36980  0.46520  Biso   1.000  N
  C146     1.0000 0.08042  0.33270  0.41770  Biso   1.000  C
  C147     1.0000 0.10600  0.30960  0.39800  Biso   1.000  C
  H117     1.0000 0.13210  0.30650  0.40400  Biso   1.000  H
  C148     1.0000 0.05030  0.30437  0.37175  Biso   1.000  C
  H118     1.0000 0.03060  0.29700  0.35490  Biso   1.000  H
  N115     1.0000 0.96501  0.37100  0.46399  Biso   1.000  N
  N116     1.0000 0.91386  0.39542  0.49519  Biso   1.000  N
  N117     1.0000 0.04481  0.32826  0.40119  Biso   1.000  N
  N118     1.0000 0.08705  0.29177  0.36851  Biso   1.000  N
  Cu15     1.0000 0.99902  0.35991  0.41827  Biso   1.000  Cu
  C149     1.0000 0.02000  0.38710  0.49910  Biso   1.000  C
  H119     1.0000 0.03290  0.39390  0.52180  Biso   1.000  H
  C150     1.0000 0.09510  0.35920  0.44780  Biso   1.000  C
  H120     1.0000 0.12190  0.36180  0.44750  Biso   1.000  H
  N119     1.0000 0.03900  0.37520  0.46920  Biso   1.000  N
  N120     1.0000 0.07830  0.37960  0.47470  Biso   1.000  N
  Zn15     1.0000 0.85991  0.41827  0.50098  Biso   1.000  Zn
  C151     1.0000 0.42679  0.87558  0.96483  Biso   1.000  C
  H121     1.0000 0.41050  0.86570  0.94580  Biso   1.000  H
  C152     1.0000 0.44635  0.90413  0.01502  Biso   1.000  C
  H122     1.0000 0.44700  0.91810  0.03810  Biso   1.000  H
  C153     1.0000 0.47779  0.88980  0.99674  Biso   1.000  C
  C154     1.0000 0.51650  0.89960  0.01170  Biso   1.000  C
  H123     1.0000 0.51650  0.91480  0.03390  Biso   1.000  H
  C155     1.0000 0.57870  0.85150  0.95570  Biso   1.000  C
  H124     1.0000 0.59970  0.85030  0.97260  Biso   1.000  H
  N121     1.0000 0.55060  0.89060  0.99900  Biso   1.000  N
  N122     1.0000 0.54720  0.86980  0.96520  Biso   1.000  N
  C156     1.0000 0.58042  0.83270  0.91770  Biso   1.000  C
  C157     1.0000 0.60600  0.80960  0.89800  Biso   1.000  C
  H125     1.0000 0.63210  0.80650  0.90400  Biso   1.000  H
  C158     1.0000 0.55030  0.80437  0.87175  Biso   1.000  C
  H126     1.0000 0.53060  0.79700  0.85490  Biso   1.000  H
  N123     1.0000 0.46501  0.87100  0.96399  Biso   1.000  N
  N124     1.0000 0.41386  0.89542  0.99519  Biso   1.000  N
  N125     1.0000 0.54481  0.82826  0.90119  Biso   1.000  N
  N126     1.0000 0.58705  0.79177  0.86851  Biso   1.000  N
  Cu16     1.0000 0.49902  0.85991  0.91827  Biso   1.000  Cu
  C159     1.0000 0.52000  0.88710  0.99910  Biso   1.000  C
  H127     1.0000 0.53290  0.89390  0.02180  Biso   1.000  H
  C160     1.0000 0.59510  0.85920  0.94780  Biso   1.000  C
  H128     1.0000 0.62190  0.86180  0.94750  Biso   1.000  H
  N127     1.0000 0.53900  0.87520  0.96920  Biso   1.000  N
  N128     1.0000 0.57830  0.87960  0.97470  Biso   1.000  N
  Zn16     1.0000 0.35991  0.91827  0.00098  Biso   1.000  Zn
  C161     1.0000 0.03517  0.07321  0.87558  Biso   1.000  C
  H129     1.0000 0.05420  0.08950  0.86570  Biso   1.000  H
  C162     1.0000 0.98498  0.05365  0.90413  Biso   1.000  C
  H130     1.0000 0.96190  0.05300  0.91810  Biso   1.000  H
  C163     1.0000 0.00326  0.02221  0.88980  Biso   1.000  C
  C164     1.0000 0.98830  0.98350  0.89960  Biso   1.000  C
  H131     1.0000 0.96610  0.98350  0.91480  Biso   1.000  H
  C165     1.0000 0.04430  0.92130  0.85150  Biso   1.000  C
  H132     1.0000 0.02740  0.90030  0.85030  Biso   1.000  H
  N129     1.0000 0.00100  0.94940  0.89060  Biso   1.000  N
  N130     1.0000 0.03480  0.95280  0.86980  Biso   1.000  N
  C166     1.0000 0.08230  0.91958  0.83270  Biso   1.000  C
  C167     1.0000 0.10200  0.89400  0.80960  Biso   1.000  C
  H133     1.0000 0.09600  0.86790  0.80650  Biso   1.000  H
  C168     1.0000 0.12825  0.94970  0.80437  Biso   1.000  C
  H134     1.0000 0.14510  0.96940  0.79700  Biso   1.000  H
  N131     1.0000 0.03601  0.03499  0.87100  Biso   1.000  N
  N132     1.0000 0.00481  0.08614  0.89542  Biso   1.000  N
  N133     1.0000 0.09881  0.95519  0.82826  Biso   1.000  N
  N134     1.0000 0.13149  0.91295  0.79177  Biso   1.000  N
  Cu17     1.0000 0.08173  0.00098  0.85991  Biso   1.000  Cu
  C169     1.0000 0.00090  0.98000  0.88710  Biso   1.000  C
  H135     1.0000 0.97820  0.96710  0.89390  Biso   1.000  H
  C170     1.0000 0.05220  0.90490  0.85920  Biso   1.000  C
  H136     1.0000 0.05250  0.87810  0.86180  Biso   1.000  H
  N135     1.0000 0.03080  0.96100  0.87520  Biso   1.000  N
  N136     1.0000 0.02530  0.92170  0.87960  Biso   1.000  N
  Zn17     1.0000 0.99902  0.14009  0.91827  Biso   1.000  Zn
  C171     1.0000 0.53517  0.57321  0.37558  Biso   1.000  C
  H137     1.0000 0.55420  0.58950  0.36570  Biso   1.000  H
  C172     1.0000 0.48498  0.55365  0.40413  Biso   1.000  C
  H138     1.0000 0.46190  0.55300  0.41810  Biso   1.000  H
  C173     1.0000 0.50326  0.52221  0.38980  Biso   1.000  C
  C174     1.0000 0.48830  0.48350  0.39960  Biso   1.000  C
  H139     1.0000 0.46610  0.48350  0.41480  Biso   1.000  H
  C175     1.0000 0.54430  0.42130  0.35150  Biso   1.000  C
  H140     1.0000 0.52740  0.40030  0.35030  Biso   1.000  H
  N137     1.0000 0.50100  0.44940  0.39060  Biso   1.000  N
  N138     1.0000 0.53480  0.45280  0.36980  Biso   1.000  N
  C176     1.0000 0.58230  0.41958  0.33270  Biso   1.000  C
  C177     1.0000 0.60200  0.39400  0.30960  Biso   1.000  C
  H141     1.0000 0.59600  0.36790  0.30650  Biso   1.000  H
  C178     1.0000 0.62825  0.44970  0.30437  Biso   1.000  C
  H142     1.0000 0.64510  0.46940  0.29700  Biso   1.000  H
  N139     1.0000 0.53601  0.53499  0.37100  Biso   1.000  N
  N140     1.0000 0.50481  0.58614  0.39542  Biso   1.000  N
  N141     1.0000 0.59881  0.45519  0.32826  Biso   1.000  N
  N142     1.0000 0.63149  0.41295  0.29177  Biso   1.000  N
  Cu18     1.0000 0.58173  0.50098  0.35991  Biso   1.000  Cu
  C179     1.0000 0.50090  0.48000  0.38710  Biso   1.000  C
  H143     1.0000 0.47820  0.46710  0.39390  Biso   1.000  H
  C180     1.0000 0.55220  0.40490  0.35920  Biso   1.000  C
  H144     1.0000 0.55250  0.37810  0.36180  Biso   1.000  H
  N143     1.0000 0.53080  0.46100  0.37520  Biso   1.000  N
  N144     1.0000 0.52530  0.42170  0.37960  Biso   1.000  N
  Zn18     1.0000 0.49902  0.64009  0.41827  Biso   1.000  Zn
  C181     1.0000 0.96483  0.57321  0.62442  Biso   1.000  C
  H145     1.0000 0.94580  0.58950  0.63430  Biso   1.000  H
  C182     1.0000 0.01502  0.55365  0.59587  Biso   1.000  C
  H146     1.0000 0.03810  0.55300  0.58190  Biso   1.000  H
  C183     1.0000 0.99674  0.52221  0.61020  Biso   1.000  C
  C184     1.0000 0.01170  0.48350  0.60040  Biso   1.000  C
  H147     1.0000 0.03390  0.48350  0.58520  Biso   1.000  H
  C185     1.0000 0.95570  0.42130  0.64850  Biso   1.000  C
  H148     1.0000 0.97260  0.40030  0.64970  Biso   1.000  H
  N145     1.0000 0.99900  0.44940  0.60940  Biso   1.000  N
  N146     1.0000 0.96520  0.45280  0.63020  Biso   1.000  N
  C186     1.0000 0.91770  0.41958  0.66730  Biso   1.000  C
  C187     1.0000 0.89800  0.39400  0.69040  Biso   1.000  C
  H149     1.0000 0.90400  0.36790  0.69350  Biso   1.000  H
  C188     1.0000 0.87175  0.44970  0.69563  Biso   1.000  C
  H150     1.0000 0.85490  0.46940  0.70300  Biso   1.000  H
  N147     1.0000 0.96399  0.53499  0.62900  Biso   1.000  N
  N148     1.0000 0.99519  0.58614  0.60458  Biso   1.000  N
  N149     1.0000 0.90119  0.45519  0.67174  Biso   1.000  N
  N150     1.0000 0.86851  0.41295  0.70823  Biso   1.000  N
  Cu19     1.0000 0.91827  0.50098  0.64009  Biso   1.000  Cu
  C189     1.0000 0.99910  0.48000  0.61290  Biso   1.000  C
  H151     1.0000 0.02180  0.46710  0.60610  Biso   1.000  H
  C190     1.0000 0.94780  0.40490  0.64080  Biso   1.000  C
  H152     1.0000 0.94750  0.37810  0.63820  Biso   1.000  H
  N151     1.0000 0.96920  0.46100  0.62480  Biso   1.000  N
  N152     1.0000 0.97470  0.42170  0.62040  Biso   1.000  N
  Zn19     1.0000 0.00098  0.64009  0.58173  Biso   1.000  Zn
  C191     1.0000 0.46483  0.07321  0.12442  Biso   1.000  C
  H153     1.0000 0.44580  0.08950  0.13430  Biso   1.000  H
  C192     1.0000 0.51502  0.05365  0.09587  Biso   1.000  C
  H154     1.0000 0.53810  0.05300  0.08190  Biso   1.000  H
  C193     1.0000 0.49674  0.02221  0.11020  Biso   1.000  C
  C194     1.0000 0.51170  0.98350  0.10040  Biso   1.000  C
  H155     1.0000 0.53390  0.98350  0.08520  Biso   1.000  H
  C195     1.0000 0.45570  0.92130  0.14850  Biso   1.000  C
  H156     1.0000 0.47260  0.90030  0.14970  Biso   1.000  H
  N153     1.0000 0.49900  0.94940  0.10940  Biso   1.000  N
  N154     1.0000 0.46520  0.95280  0.13020  Biso   1.000  N
  C196     1.0000 0.41770  0.91958  0.16730  Biso   1.000  C
  C197     1.0000 0.39800  0.89400  0.19040  Biso   1.000  C
  H157     1.0000 0.40400  0.86790  0.19350  Biso   1.000  H
  C198     1.0000 0.37175  0.94970  0.19563  Biso   1.000  C
  H158     1.0000 0.35490  0.96940  0.20300  Biso   1.000  H
  N155     1.0000 0.46399  0.03499  0.12900  Biso   1.000  N
  N156     1.0000 0.49519  0.08614  0.10458  Biso   1.000  N
  N157     1.0000 0.40119  0.95519  0.17174  Biso   1.000  N
  N158     1.0000 0.36851  0.91295  0.20823  Biso   1.000  N
  Cu20     1.0000 0.41827  0.00098  0.14009  Biso   1.000  Cu
  C199     1.0000 0.49910  0.98000  0.11290  Biso   1.000  C
  H159     1.0000 0.52180  0.96710  0.10610  Biso   1.000  H
  C200     1.0000 0.44780  0.90490  0.14080  Biso   1.000  C
  H160     1.0000 0.44750  0.87810  0.13820  Biso   1.000  H
  N159     1.0000 0.46920  0.96100  0.12480  Biso   1.000  N
  N160     1.0000 0.47470  0.92170  0.12040  Biso   1.000  N
  Zn20     1.0000 0.50098  0.14009  0.08173  Biso   1.000  Zn
  C201     1.0000 0.53517  0.42679  0.12442  Biso   1.000  C
  H161     1.0000 0.55420  0.41050  0.13430  Biso   1.000  H
  C202     1.0000 0.48498  0.44635  0.09587  Biso   1.000  C
  H162     1.0000 0.46190  0.44700  0.08190  Biso   1.000  H
  C203     1.0000 0.50326  0.47779  0.11020  Biso   1.000  C
  C204     1.0000 0.48830  0.51650  0.10040  Biso   1.000  C
  H163     1.0000 0.46610  0.51650  0.08520  Biso   1.000  H
  C205     1.0000 0.54430  0.57870  0.14850  Biso   1.000  C
  H164     1.0000 0.52740  0.59970  0.14970  Biso   1.000  H
  N161     1.0000 0.50100  0.55060  0.10940  Biso   1.000  N
  N162     1.0000 0.53480  0.54720  0.13020  Biso   1.000  N
  C206     1.0000 0.58230  0.58042  0.16730  Biso   1.000  C
  C207     1.0000 0.60200  0.60600  0.19040  Biso   1.000  C
  H165     1.0000 0.59600  0.63210  0.19350  Biso   1.000  H
  C208     1.0000 0.62825  0.55030  0.19563  Biso   1.000  C
  H166     1.0000 0.64510  0.53060  0.20300  Biso   1.000  H
  N163     1.0000 0.53601  0.46501  0.12900  Biso   1.000  N
  N164     1.0000 0.50481  0.41386  0.10458  Biso   1.000  N
  N165     1.0000 0.59881  0.54481  0.17174  Biso   1.000  N
  N166     1.0000 0.63149  0.58705  0.20823  Biso   1.000  N
  Cu21     1.0000 0.58173  0.49902  0.14009  Biso   1.000  Cu
  C209     1.0000 0.50090  0.52000  0.11290  Biso   1.000  C
  H167     1.0000 0.47820  0.53290  0.10610  Biso   1.000  H
  C210     1.0000 0.55220  0.59510  0.14080  Biso   1.000  C
  H168     1.0000 0.55250  0.62190  0.13820  Biso   1.000  H
  N167     1.0000 0.53080  0.53900  0.12480  Biso   1.000  N
  N168     1.0000 0.52530  0.57830  0.12040  Biso   1.000  N
  Zn21     1.0000 0.49902  0.35991  0.08173  Biso   1.000  Zn
  C211     1.0000 0.03517  0.92679  0.62442  Biso   1.000  C
  H169     1.0000 0.05420  0.91050  0.63430  Biso   1.000  H
  C212     1.0000 0.98498  0.94635  0.59587  Biso   1.000  C
  H170     1.0000 0.96190  0.94700  0.58190  Biso   1.000  H
  C213     1.0000 0.00326  0.97779  0.61020  Biso   1.000  C
  C214     1.0000 0.98830  0.01650  0.60040  Biso   1.000  C
  H171     1.0000 0.96610  0.01650  0.58520  Biso   1.000  H
  C215     1.0000 0.04430  0.07870  0.64850  Biso   1.000  C
  H172     1.0000 0.02740  0.09970  0.64970  Biso   1.000  H
  N169     1.0000 0.00100  0.05060  0.60940  Biso   1.000  N
  N170     1.0000 0.03480  0.04720  0.63020  Biso   1.000  N
  C216     1.0000 0.08230  0.08042  0.66730  Biso   1.000  C
  C217     1.0000 0.10200  0.10600  0.69040  Biso   1.000  C
  H173     1.0000 0.09600  0.13210  0.69350  Biso   1.000  H
  C218     1.0000 0.12825  0.05030  0.69563  Biso   1.000  C
  H174     1.0000 0.14510  0.03060  0.70300  Biso   1.000  H
  N171     1.0000 0.03601  0.96501  0.62900  Biso   1.000  N
  N172     1.0000 0.00481  0.91386  0.60458  Biso   1.000  N
  N173     1.0000 0.09881  0.04481  0.67174  Biso   1.000  N
  N174     1.0000 0.13149  0.08705  0.70823  Biso   1.000  N
  Cu22     1.0000 0.08173  0.99902  0.64009  Biso   1.000  Cu
  C219     1.0000 0.00090  0.02000  0.61290  Biso   1.000  C
  H175     1.0000 0.97820  0.03290  0.60610  Biso   1.000  H
  C220     1.0000 0.05220  0.09510  0.64080  Biso   1.000  C
  H176     1.0000 0.05250  0.12190  0.63820  Biso   1.000  H
  N175     1.0000 0.03080  0.03900  0.62480  Biso   1.000  N
  N176     1.0000 0.02530  0.07830  0.62040  Biso   1.000  N
  Zn22     1.0000 0.99902  0.85991  0.58173  Biso   1.000  Zn
  C221     1.0000 0.46483  0.92679  0.37558  Biso   1.000  C
  H177     1.0000 0.44580  0.91050  0.36570  Biso   1.000  H
  C222     1.0000 0.51502  0.94635  0.40413  Biso   1.000  C
  H178     1.0000 0.53810  0.94700  0.41810  Biso   1.000  H
  C223     1.0000 0.49674  0.97779  0.38980  Biso   1.000  C
  C224     1.0000 0.51170  0.01650  0.39960  Biso   1.000  C
  H179     1.0000 0.53390  0.01650  0.41480  Biso   1.000  H
  C225     1.0000 0.45570  0.07870  0.35150  Biso   1.000  C
  H180     1.0000 0.47260  0.09970  0.35030  Biso   1.000  H
  N177     1.0000 0.49900  0.05060  0.39060  Biso   1.000  N
  N178     1.0000 0.46520  0.04720  0.36980  Biso   1.000  N
  C226     1.0000 0.41770  0.08042  0.33270  Biso   1.000  C
  C227     1.0000 0.39800  0.10600  0.30960  Biso   1.000  C
  H181     1.0000 0.40400  0.13210  0.30650  Biso   1.000  H
  C228     1.0000 0.37175  0.05030  0.30437  Biso   1.000  C
  H182     1.0000 0.35490  0.03060  0.29700  Biso   1.000  H
  N179     1.0000 0.46399  0.96501  0.37100  Biso   1.000  N
  N180     1.0000 0.49519  0.91386  0.39542  Biso   1.000  N
  N181     1.0000 0.40119  0.04481  0.32826  Biso   1.000  N
  N182     1.0000 0.36851  0.08705  0.29177  Biso   1.000  N
  Cu23     1.0000 0.41827  0.99902  0.35991  Biso   1.000  Cu
  C229     1.0000 0.49910  0.02000  0.38710  Biso   1.000  C
  H183     1.0000 0.52180  0.03290  0.39390  Biso   1.000  H
  C230     1.0000 0.44780  0.09510  0.35920  Biso   1.000  C
  H184     1.0000 0.44750  0.12190  0.36180  Biso   1.000  H
  N183     1.0000 0.46920  0.03900  0.37520  Biso   1.000  N
  N184     1.0000 0.47470  0.07830  0.37960  Biso   1.000  N
  Zn23     1.0000 0.50098  0.85991  0.41827  Biso   1.000  Zn
  C231     1.0000 0.96483  0.42679  0.87558  Biso   1.000  C
  H185     1.0000 0.94580  0.41050  0.86570  Biso   1.000  H
  C232     1.0000 0.01502  0.44635  0.90413  Biso   1.000  C
  H186     1.0000 0.03810  0.44700  0.91810  Biso   1.000  H
  C233     1.0000 0.99674  0.47779  0.88980  Biso   1.000  C
  C234     1.0000 0.01170  0.51650  0.89960  Biso   1.000  C
  H187     1.0000 0.03390  0.51650  0.91480  Biso   1.000  H
  C235     1.0000 0.95570  0.57870  0.85150  Biso   1.000  C
  H188     1.0000 0.97260  0.59970  0.85030  Biso   1.000  H
  N185     1.0000 0.99900  0.55060  0.89060  Biso   1.000  N
  N186     1.0000 0.96520  0.54720  0.86980  Biso   1.000  N
  C236     1.0000 0.91770  0.58042  0.83270  Biso   1.000  C
  C237     1.0000 0.89800  0.60600  0.80960  Biso   1.000  C
  H189     1.0000 0.90400  0.63210  0.80650  Biso   1.000  H
  C238     1.0000 0.87175  0.55030  0.80437  Biso   1.000  C
  H190     1.0000 0.85490  0.53060  0.79700  Biso   1.000  H
  N187     1.0000 0.96399  0.46501  0.87100  Biso   1.000  N
  N188     1.0000 0.99519  0.41386  0.89542  Biso   1.000  N
  N189     1.0000 0.90119  0.54481  0.82826  Biso   1.000  N
  N190     1.0000 0.86851  0.58705  0.79177  Biso   1.000  N
  Cu24     1.0000 0.91827  0.49902  0.85991  Biso   1.000  Cu
  C239     1.0000 0.99910  0.52000  0.88710  Biso   1.000  C
  H191     1.0000 0.02180  0.53290  0.89390  Biso   1.000  H
  C240     1.0000 0.94780  0.59510  0.85920  Biso   1.000  C
  H192     1.0000 0.94750  0.62190  0.86180  Biso   1.000  H
  N191     1.0000 0.96920  0.53900  0.87520  Biso   1.000  N
  N192     1.0000 0.97470  0.57830  0.87960  Biso   1.000  N
  Zn24     1.0000 0.00098  0.35991  0.91827  Biso   1.000  Zn
  C241     1.0000 0.78517  0.12558  0.17679  Biso   1.000  C
  H193     1.0000 0.80420  0.11570  0.16050  Biso   1.000  H
  C242     1.0000 0.73498  0.15413  0.19635  Biso   1.000  C
  H194     1.0000 0.71190  0.16810  0.19700  Biso   1.000  H
  C243     1.0000 0.75326  0.13980  0.22779  Biso   1.000  C
  C244     1.0000 0.73830  0.14960  0.26650  Biso   1.000  C
  H195     1.0000 0.71610  0.16480  0.26650  Biso   1.000  H
  C245     1.0000 0.79430  0.10150  0.32870  Biso   1.000  C
  H196     1.0000 0.77740  0.10030  0.34970  Biso   1.000  H
  N193     1.0000 0.75100  0.14060  0.30060  Biso   1.000  N
  N194     1.0000 0.78480  0.11980  0.29720  Biso   1.000  N
  C246     1.0000 0.83230  0.08270  0.33042  Biso   1.000  C
  C247     1.0000 0.85200  0.05960  0.35600  Biso   1.000  C
  H197     1.0000 0.84600  0.05650  0.38210  Biso   1.000  H
  C248     1.0000 0.87825  0.05437  0.30030  Biso   1.000  C
  H198     1.0000 0.89510  0.04700  0.28060  Biso   1.000  H
  N195     1.0000 0.78601  0.12100  0.21501  Biso   1.000  N
  N196     1.0000 0.75481  0.14542  0.16386  Biso   1.000  N
  N197     1.0000 0.84881  0.07826  0.29481  Biso   1.000  N
  N198     1.0000 0.88149  0.04177  0.33705  Biso   1.000  N
  Cu25     1.0000 0.83173  0.10991  0.24902  Biso   1.000  Cu
  C249     1.0000 0.75090  0.13710  0.27000  Biso   1.000  C
  H199     1.0000 0.72820  0.14390  0.28290  Biso   1.000  H
  C250     1.0000 0.80220  0.10920  0.34510  Biso   1.000  C
  H200     1.0000 0.80250  0.11180  0.37190  Biso   1.000  H
  N199     1.0000 0.78080  0.12520  0.28900  Biso   1.000  N
  N200     1.0000 0.77530  0.12960  0.32830  Biso   1.000  N
  Zn25     1.0000 0.74902  0.16827  0.10991  Biso   1.000  Zn
  C251     1.0000 0.28517  0.62558  0.67679  Biso   1.000  C
  H201     1.0000 0.30420  0.61570  0.66050  Biso   1.000  H
  C252     1.0000 0.23498  0.65413  0.69635  Biso   1.000  C
  H202     1.0000 0.21190  0.66810  0.69700  Biso   1.000  H
  C253     1.0000 0.25326  0.63980  0.72779  Biso   1.000  C
  C254     1.0000 0.23830  0.64960  0.76650  Biso   1.000  C
  H203     1.0000 0.21610  0.66480  0.76650  Biso   1.000  H
  C255     1.0000 0.29430  0.60150  0.82870  Biso   1.000  C
  H204     1.0000 0.27740  0.60030  0.84970  Biso   1.000  H
  N201     1.0000 0.25100  0.64060  0.80060  Biso   1.000  N
  N202     1.0000 0.28480  0.61980  0.79720  Biso   1.000  N
  C256     1.0000 0.33230  0.58270  0.83042  Biso   1.000  C
  C257     1.0000 0.35200  0.55960  0.85600  Biso   1.000  C
  H205     1.0000 0.34600  0.55650  0.88210  Biso   1.000  H
  C258     1.0000 0.37825  0.55437  0.80030  Biso   1.000  C
  H206     1.0000 0.39510  0.54700  0.78060  Biso   1.000  H
  N203     1.0000 0.28601  0.62100  0.71501  Biso   1.000  N
  N204     1.0000 0.25481  0.64542  0.66386  Biso   1.000  N
  N205     1.0000 0.34881  0.57826  0.79481  Biso   1.000  N
  N206     1.0000 0.38149  0.54177  0.83705  Biso   1.000  N
  Cu26     1.0000 0.33173  0.60991  0.74902  Biso   1.000  Cu
  C259     1.0000 0.25090  0.63710  0.77000  Biso   1.000  C
  H207     1.0000 0.22820  0.64390  0.78290  Biso   1.000  H
  C260     1.0000 0.30220  0.60920  0.84510  Biso   1.000  C
  H208     1.0000 0.30250  0.61180  0.87190  Biso   1.000  H
  N207     1.0000 0.28080  0.62520  0.78900  Biso   1.000  N
  N208     1.0000 0.27530  0.62960  0.82830  Biso   1.000  N
  Zn26     1.0000 0.24902  0.66827  0.60991  Biso   1.000  Zn
  C261     1.0000 0.71483  0.87442  0.67679  Biso   1.000  C
  H209     1.0000 0.69580  0.88430  0.66050  Biso   1.000  H
  C262     1.0000 0.76502  0.84587  0.69635  Biso   1.000  C
  H210     1.0000 0.78810  0.83190  0.69700  Biso   1.000  H
  C263     1.0000 0.74674  0.86020  0.72779  Biso   1.000  C
  C264     1.0000 0.76170  0.85040  0.76650  Biso   1.000  C
  H211     1.0000 0.78390  0.83520  0.76650  Biso   1.000  H
  C265     1.0000 0.70570  0.89850  0.82870  Biso   1.000  C
  H212     1.0000 0.72260  0.89970  0.84970  Biso   1.000  H
  N209     1.0000 0.74900  0.85940  0.80060  Biso   1.000  N
  N210     1.0000 0.71520  0.88020  0.79720  Biso   1.000  N
  C266     1.0000 0.66770  0.91730  0.83042  Biso   1.000  C
  C267     1.0000 0.64800  0.94040  0.85600  Biso   1.000  C
  H213     1.0000 0.65400  0.94350  0.88210  Biso   1.000  H
  C268     1.0000 0.62175  0.94563  0.80030  Biso   1.000  C
  H214     1.0000 0.60490  0.95300  0.78060  Biso   1.000  H
  N211     1.0000 0.71399  0.87900  0.71501  Biso   1.000  N
  N212     1.0000 0.74519  0.85458  0.66386  Biso   1.000  N
  N213     1.0000 0.65119  0.92174  0.79481  Biso   1.000  N
  N214     1.0000 0.61851  0.95823  0.83705  Biso   1.000  N
  Cu27     1.0000 0.66827  0.89009  0.74902  Biso   1.000  Cu
  C269     1.0000 0.74910  0.86290  0.77000  Biso   1.000  C
  H215     1.0000 0.77180  0.85610  0.78290  Biso   1.000  H
  C270     1.0000 0.69780  0.89080  0.84510  Biso   1.000  C
  H216     1.0000 0.69750  0.88820  0.87190  Biso   1.000  H
  N215     1.0000 0.71920  0.87480  0.78900  Biso   1.000  N
  N216     1.0000 0.72470  0.87040  0.82830  Biso   1.000  N
  Zn27     1.0000 0.75098  0.83173  0.60991  Biso   1.000  Zn
  C271     1.0000 0.21483  0.37442  0.17679  Biso   1.000  C
  H217     1.0000 0.19580  0.38430  0.16050  Biso   1.000  H
  C272     1.0000 0.26502  0.34587  0.19635  Biso   1.000  C
  H218     1.0000 0.28810  0.33190  0.19700  Biso   1.000  H
  C273     1.0000 0.24674  0.36020  0.22779  Biso   1.000  C
  C274     1.0000 0.26170  0.35040  0.26650  Biso   1.000  C
  H219     1.0000 0.28390  0.33520  0.26650  Biso   1.000  H
  C275     1.0000 0.20570  0.39850  0.32870  Biso   1.000  C
  H220     1.0000 0.22260  0.39970  0.34970  Biso   1.000  H
  N217     1.0000 0.24900  0.35940  0.30060  Biso   1.000  N
  N218     1.0000 0.21520  0.38020  0.29720  Biso   1.000  N
  C276     1.0000 0.16770  0.41730  0.33042  Biso   1.000  C
  C277     1.0000 0.14800  0.44040  0.35600  Biso   1.000  C
  H221     1.0000 0.15400  0.44350  0.38210  Biso   1.000  H
  C278     1.0000 0.12175  0.44563  0.30030  Biso   1.000  C
  H222     1.0000 0.10490  0.45300  0.28060  Biso   1.000  H
  N219     1.0000 0.21399  0.37900  0.21501  Biso   1.000  N
  N220     1.0000 0.24519  0.35458  0.16386  Biso   1.000  N
  N221     1.0000 0.15119  0.42174  0.29481  Biso   1.000  N
  N222     1.0000 0.11851  0.45823  0.33705  Biso   1.000  N
  Cu28     1.0000 0.16827  0.39009  0.24902  Biso   1.000  Cu
  C279     1.0000 0.24910  0.36290  0.27000  Biso   1.000  C
  H223     1.0000 0.27180  0.35610  0.28290  Biso   1.000  H
  C280     1.0000 0.19780  0.39080  0.34510  Biso   1.000  C
  H224     1.0000 0.19750  0.38820  0.37190  Biso   1.000  H
  N223     1.0000 0.21920  0.37480  0.28900  Biso   1.000  N
  N224     1.0000 0.22470  0.37040  0.32830  Biso   1.000  N
  Zn28     1.0000 0.25098  0.33173  0.10991  Biso   1.000  Zn
  C281     1.0000 0.28517  0.37442  0.82321  Biso   1.000  C
  H225     1.0000 0.30420  0.38430  0.83950  Biso   1.000  H
  C282     1.0000 0.23498  0.34587  0.80365  Biso   1.000  C
  H226     1.0000 0.21190  0.33190  0.80300  Biso   1.000  H
  C283     1.0000 0.25326  0.36020  0.77221  Biso   1.000  C
  C284     1.0000 0.23830  0.35040  0.73350  Biso   1.000  C
  H227     1.0000 0.21610  0.33520  0.73350  Biso   1.000  H
  C285     1.0000 0.29430  0.39850  0.67130  Biso   1.000  C
  H228     1.0000 0.27740  0.39970  0.65030  Biso   1.000  H
  N225     1.0000 0.25100  0.35940  0.69940  Biso   1.000  N
  N226     1.0000 0.28480  0.38020  0.70280  Biso   1.000  N
  C286     1.0000 0.33230  0.41730  0.66958  Biso   1.000  C
  C287     1.0000 0.35200  0.44040  0.64400  Biso   1.000  C
  H229     1.0000 0.34600  0.44350  0.61790  Biso   1.000  H
  C288     1.0000 0.37825  0.44563  0.69970  Biso   1.000  C
  H230     1.0000 0.39510  0.45300  0.71940  Biso   1.000  H
  N227     1.0000 0.28601  0.37900  0.78499  Biso   1.000  N
  N228     1.0000 0.25481  0.35458  0.83614  Biso   1.000  N
  N229     1.0000 0.34881  0.42174  0.70519  Biso   1.000  N
  N230     1.0000 0.38149  0.45823  0.66295  Biso   1.000  N
  Cu29     1.0000 0.33173  0.39009  0.75098  Biso   1.000  Cu
  C289     1.0000 0.25090  0.36290  0.73000  Biso   1.000  C
  H231     1.0000 0.22820  0.35610  0.71710  Biso   1.000  H
  C290     1.0000 0.30220  0.39080  0.65490  Biso   1.000  C
  H232     1.0000 0.30250  0.38820  0.62810  Biso   1.000  H
  N231     1.0000 0.28080  0.37480  0.71100  Biso   1.000  N
  N232     1.0000 0.27530  0.37040  0.67170  Biso   1.000  N
  Zn29     1.0000 0.24902  0.33173  0.89009  Biso   1.000  Zn
  C291     1.0000 0.78517  0.87442  0.32321  Biso   1.000  C
  H233     1.0000 0.80420  0.88430  0.33950  Biso   1.000  H
  C292     1.0000 0.73498  0.84587  0.30365  Biso   1.000  C
  H234     1.0000 0.71190  0.83190  0.30300  Biso   1.000  H
  C293     1.0000 0.75326  0.86020  0.27221  Biso   1.000  C
  C294     1.0000 0.73830  0.85040  0.23350  Biso   1.000  C
  H235     1.0000 0.71610  0.83520  0.23350  Biso   1.000  H
  C295     1.0000 0.79430  0.89850  0.17130  Biso   1.000  C
  H236     1.0000 0.77740  0.89970  0.15030  Biso   1.000  H
  N233     1.0000 0.75100  0.85940  0.19940  Biso   1.000  N
  N234     1.0000 0.78480  0.88020  0.20280  Biso   1.000  N
  C296     1.0000 0.83230  0.91730  0.16958  Biso   1.000  C
  C297     1.0000 0.85200  0.94040  0.14400  Biso   1.000  C
  H237     1.0000 0.84600  0.94350  0.11790  Biso   1.000  H
  C298     1.0000 0.87825  0.94563  0.19970  Biso   1.000  C
  H238     1.0000 0.89510  0.95300  0.21940  Biso   1.000  H
  N235     1.0000 0.78601  0.87900  0.28499  Biso   1.000  N
  N236     1.0000 0.75481  0.85458  0.33614  Biso   1.000  N
  N237     1.0000 0.84881  0.92174  0.20519  Biso   1.000  N
  N238     1.0000 0.88149  0.95823  0.16295  Biso   1.000  N
  Cu30     1.0000 0.83173  0.89009  0.25098  Biso   1.000  Cu
  C299     1.0000 0.75090  0.86290  0.23000  Biso   1.000  C
  H239     1.0000 0.72820  0.85610  0.21710  Biso   1.000  H
  C300     1.0000 0.80220  0.89080  0.15490  Biso   1.000  C
  H240     1.0000 0.80250  0.88820  0.12810  Biso   1.000  H
  N239     1.0000 0.78080  0.87480  0.21100  Biso   1.000  N
  N240     1.0000 0.77530  0.87040  0.17170  Biso   1.000  N
  Zn30     1.0000 0.74902  0.83173  0.39009  Biso   1.000  Zn
  C301     1.0000 0.21483  0.62558  0.32321  Biso   1.000  C
  H241     1.0000 0.19580  0.61570  0.33950  Biso   1.000  H
  C302     1.0000 0.26502  0.65413  0.30365  Biso   1.000  C
  H242     1.0000 0.28810  0.66810  0.30300  Biso   1.000  H
  C303     1.0000 0.24674  0.63980  0.27221  Biso   1.000  C
  C304     1.0000 0.26170  0.64960  0.23350  Biso   1.000  C
  H243     1.0000 0.28390  0.66480  0.23350  Biso   1.000  H
  C305     1.0000 0.20570  0.60150  0.17130  Biso   1.000  C
  H244     1.0000 0.22260  0.60030  0.15030  Biso   1.000  H
  N241     1.0000 0.24900  0.64060  0.19940  Biso   1.000  N
  N242     1.0000 0.21520  0.61980  0.20280  Biso   1.000  N
  C306     1.0000 0.16770  0.58270  0.16958  Biso   1.000  C
  C307     1.0000 0.14800  0.55960  0.14400  Biso   1.000  C
  H245     1.0000 0.15400  0.55650  0.11790  Biso   1.000  H
  C308     1.0000 0.12175  0.55437  0.19970  Biso   1.000  C
  H246     1.0000 0.10490  0.54700  0.21940  Biso   1.000  H
  N243     1.0000 0.21399  0.62100  0.28499  Biso   1.000  N
  N244     1.0000 0.24519  0.64542  0.33614  Biso   1.000  N
  N245     1.0000 0.15119  0.57826  0.20519  Biso   1.000  N
  N246     1.0000 0.11851  0.54177  0.16295  Biso   1.000  N
  Cu31     1.0000 0.16827  0.60991  0.25098  Biso   1.000  Cu
  C309     1.0000 0.24910  0.63710  0.23000  Biso   1.000  C
  H247     1.0000 0.27180  0.64390  0.21710  Biso   1.000  H
  C310     1.0000 0.19780  0.60920  0.15490  Biso   1.000  C
  H248     1.0000 0.19750  0.61180  0.12810  Biso   1.000  H
  N247     1.0000 0.21920  0.62520  0.21100  Biso   1.000  N
  N248     1.0000 0.22470  0.62960  0.17170  Biso   1.000  N
  Zn31     1.0000 0.25098  0.66827  0.39009  Biso   1.000  Zn
  C311     1.0000 0.71483  0.12558  0.82321  Biso   1.000  C
  H249     1.0000 0.69580  0.11570  0.83950  Biso   1.000  H
  C312     1.0000 0.76502  0.15413  0.80365  Biso   1.000  C
  H250     1.0000 0.78810  0.16810  0.80300  Biso   1.000  H
  C313     1.0000 0.74674  0.13980  0.77221  Biso   1.000  C
  C314     1.0000 0.76170  0.14960  0.73350  Biso   1.000  C
  H251     1.0000 0.78390  0.16480  0.73350  Biso   1.000  H
  C315     1.0000 0.70570  0.10150  0.67130  Biso   1.000  C
  H252     1.0000 0.72260  0.10030  0.65030  Biso   1.000  H
  N249     1.0000 0.74900  0.14060  0.69940  Biso   1.000  N
  N250     1.0000 0.71520  0.11980  0.70280  Biso   1.000  N
  C316     1.0000 0.66770  0.08270  0.66958  Biso   1.000  C
  C317     1.0000 0.64800  0.05960  0.64400  Biso   1.000  C
  H253     1.0000 0.65400  0.05650  0.61790  Biso   1.000  H
  C318     1.0000 0.62175  0.05437  0.69970  Biso   1.000  C
  H254     1.0000 0.60490  0.04700  0.71940  Biso   1.000  H
  N251     1.0000 0.71399  0.12100  0.78499  Biso   1.000  N
  N252     1.0000 0.74519  0.14542  0.83614  Biso   1.000  N
  N253     1.0000 0.65119  0.07826  0.70519  Biso   1.000  N
  N254     1.0000 0.61851  0.04177  0.66295  Biso   1.000  N
  Cu32     1.0000 0.66827  0.10991  0.75098  Biso   1.000  Cu
  C319     1.0000 0.74910  0.13710  0.73000  Biso   1.000  C
  H255     1.0000 0.77180  0.14390  0.71710  Biso   1.000  H
  C320     1.0000 0.69780  0.10920  0.65490  Biso   1.000  C
  H256     1.0000 0.69750  0.11180  0.62810  Biso   1.000  H
  N255     1.0000 0.71920  0.12520  0.71100  Biso   1.000  N
  N256     1.0000 0.72470  0.12960  0.67170  Biso   1.000  N
  Zn32     1.0000 0.75098  0.16827  0.89009  Biso   1.000  Zn
  C321     1.0000 0.62558  0.32321  0.21483  Biso   1.000  C
  H257     1.0000 0.61570  0.33950  0.19580  Biso   1.000  H
  C322     1.0000 0.65413  0.30365  0.26502  Biso   1.000  C
  H258     1.0000 0.66810  0.30300  0.28810  Biso   1.000  H
  C323     1.0000 0.63980  0.27221  0.24674  Biso   1.000  C
  C324     1.0000 0.64960  0.23350  0.26170  Biso   1.000  C
  H259     1.0000 0.66480  0.23350  0.28390  Biso   1.000  H
  C325     1.0000 0.60150  0.17130  0.20570  Biso   1.000  C
  H260     1.0000 0.60030  0.15030  0.22260  Biso   1.000  H
  N257     1.0000 0.64060  0.19940  0.24900  Biso   1.000  N
  N258     1.0000 0.61980  0.20280  0.21520  Biso   1.000  N
  C326     1.0000 0.58270  0.16958  0.16770  Biso   1.000  C
  C327     1.0000 0.55960  0.14400  0.14800  Biso   1.000  C
  H261     1.0000 0.55650  0.11790  0.15400  Biso   1.000  H
  C328     1.0000 0.55437  0.19970  0.12175  Biso   1.000  C
  H262     1.0000 0.54700  0.21940  0.10490  Biso   1.000  H
  N259     1.0000 0.62100  0.28499  0.21399  Biso   1.000  N
  N260     1.0000 0.64542  0.33614  0.24519  Biso   1.000  N
  N261     1.0000 0.57826  0.20519  0.15119  Biso   1.000  N
  N262     1.0000 0.54177  0.16295  0.11851  Biso   1.000  N
  Cu33     1.0000 0.60991  0.25098  0.16827  Biso   1.000  Cu
  C329     1.0000 0.63710  0.23000  0.24910  Biso   1.000  C
  H263     1.0000 0.64390  0.21710  0.27180  Biso   1.000  H
  C330     1.0000 0.60920  0.15490  0.19780  Biso   1.000  C
  H264     1.0000 0.61180  0.12810  0.19750  Biso   1.000  H
  N263     1.0000 0.62520  0.21100  0.21920  Biso   1.000  N
  N264     1.0000 0.62960  0.17170  0.22470  Biso   1.000  N
  Zn33     1.0000 0.66827  0.39009  0.25098  Biso   1.000  Zn
  C331     1.0000 0.12558  0.82321  0.71483  Biso   1.000  C
  H265     1.0000 0.11570  0.83950  0.69580  Biso   1.000  H
  C332     1.0000 0.15413  0.80365  0.76502  Biso   1.000  C
  H266     1.0000 0.16810  0.80300  0.78810  Biso   1.000  H
  C333     1.0000 0.13980  0.77221  0.74674  Biso   1.000  C
  C334     1.0000 0.14960  0.73350  0.76170  Biso   1.000  C
  H267     1.0000 0.16480  0.73350  0.78390  Biso   1.000  H
  C335     1.0000 0.10150  0.67130  0.70570  Biso   1.000  C
  H268     1.0000 0.10030  0.65030  0.72260  Biso   1.000  H
  N265     1.0000 0.14060  0.69940  0.74900  Biso   1.000  N
  N266     1.0000 0.11980  0.70280  0.71520  Biso   1.000  N
  C336     1.0000 0.08270  0.66958  0.66770  Biso   1.000  C
  C337     1.0000 0.05960  0.64400  0.64800  Biso   1.000  C
  H269     1.0000 0.05650  0.61790  0.65400  Biso   1.000  H
  C338     1.0000 0.05437  0.69970  0.62175  Biso   1.000  C
  H270     1.0000 0.04700  0.71940  0.60490  Biso   1.000  H
  N267     1.0000 0.12100  0.78499  0.71399  Biso   1.000  N
  N268     1.0000 0.14542  0.83614  0.74519  Biso   1.000  N
  N269     1.0000 0.07826  0.70519  0.65119  Biso   1.000  N
  N270     1.0000 0.04177  0.66295  0.61851  Biso   1.000  N
  Cu34     1.0000 0.10991  0.75098  0.66827  Biso   1.000  Cu
  C339     1.0000 0.13710  0.73000  0.74910  Biso   1.000  C
  H271     1.0000 0.14390  0.71710  0.77180  Biso   1.000  H
  C340     1.0000 0.10920  0.65490  0.69780  Biso   1.000  C
  H272     1.0000 0.11180  0.62810  0.69750  Biso   1.000  H
  N271     1.0000 0.12520  0.71100  0.71920  Biso   1.000  N
  N272     1.0000 0.12960  0.67170  0.72470  Biso   1.000  N
  Zn34     1.0000 0.16827  0.89009  0.75098  Biso   1.000  Zn
  C341     1.0000 0.37442  0.82321  0.28517  Biso   1.000  C
  H273     1.0000 0.38430  0.83950  0.30420  Biso   1.000  H
  C342     1.0000 0.34587  0.80365  0.23498  Biso   1.000  C
  H274     1.0000 0.33190  0.80300  0.21190  Biso   1.000  H
  C343     1.0000 0.36020  0.77221  0.25326  Biso   1.000  C
  C344     1.0000 0.35040  0.73350  0.23830  Biso   1.000  C
  H275     1.0000 0.33520  0.73350  0.21610  Biso   1.000  H
  C345     1.0000 0.39850  0.67130  0.29430  Biso   1.000  C
  H276     1.0000 0.39970  0.65030  0.27740  Biso   1.000  H
  N273     1.0000 0.35940  0.69940  0.25100  Biso   1.000  N
  N274     1.0000 0.38020  0.70280  0.28480  Biso   1.000  N
  C346     1.0000 0.41730  0.66958  0.33230  Biso   1.000  C
  C347     1.0000 0.44040  0.64400  0.35200  Biso   1.000  C
  H277     1.0000 0.44350  0.61790  0.34600  Biso   1.000  H
  C348     1.0000 0.44563  0.69970  0.37825  Biso   1.000  C
  H278     1.0000 0.45300  0.71940  0.39510  Biso   1.000  H
  N275     1.0000 0.37900  0.78499  0.28601  Biso   1.000  N
  N276     1.0000 0.35458  0.83614  0.25481  Biso   1.000  N
  N277     1.0000 0.42174  0.70519  0.34881  Biso   1.000  N
  N278     1.0000 0.45823  0.66295  0.38149  Biso   1.000  N
  Cu35     1.0000 0.39009  0.75098  0.33173  Biso   1.000  Cu
  C349     1.0000 0.36290  0.73000  0.25090  Biso   1.000  C
  H279     1.0000 0.35610  0.71710  0.22820  Biso   1.000  H
  C350     1.0000 0.39080  0.65490  0.30220  Biso   1.000  C
  H280     1.0000 0.38820  0.62810  0.30250  Biso   1.000  H
  N279     1.0000 0.37480  0.71100  0.28080  Biso   1.000  N
  N280     1.0000 0.37040  0.67170  0.27530  Biso   1.000  N
  Zn35     1.0000 0.33173  0.89009  0.24902  Biso   1.000  Zn
  C351     1.0000 0.87442  0.32321  0.78517  Biso   1.000  C
  H281     1.0000 0.88430  0.33950  0.80420  Biso   1.000  H
  C352     1.0000 0.84587  0.30365  0.73498  Biso   1.000  C
  H282     1.0000 0.83190  0.30300  0.71190  Biso   1.000  H
  C353     1.0000 0.86020  0.27221  0.75326  Biso   1.000  C
  C354     1.0000 0.85040  0.23350  0.73830  Biso   1.000  C
  H283     1.0000 0.83520  0.23350  0.71610  Biso   1.000  H
  C355     1.0000 0.89850  0.17130  0.79430  Biso   1.000  C
  H284     1.0000 0.89970  0.15030  0.77740  Biso   1.000  H
  N281     1.0000 0.85940  0.19940  0.75100  Biso   1.000  N
  N282     1.0000 0.88020  0.20280  0.78480  Biso   1.000  N
  C356     1.0000 0.91730  0.16958  0.83230  Biso   1.000  C
  C357     1.0000 0.94040  0.14400  0.85200  Biso   1.000  C
  H285     1.0000 0.94350  0.11790  0.84600  Biso   1.000  H
  C358     1.0000 0.94563  0.19970  0.87825  Biso   1.000  C
  H286     1.0000 0.95300  0.21940  0.89510  Biso   1.000  H
  N283     1.0000 0.87900  0.28499  0.78601  Biso   1.000  N
  N284     1.0000 0.85458  0.33614  0.75481  Biso   1.000  N
  N285     1.0000 0.92174  0.20519  0.84881  Biso   1.000  N
  N286     1.0000 0.95823  0.16295  0.88149  Biso   1.000  N
  Cu36     1.0000 0.89009  0.25098  0.83173  Biso   1.000  Cu
  C359     1.0000 0.86290  0.23000  0.75090  Biso   1.000  C
  H287     1.0000 0.85610  0.21710  0.72820  Biso   1.000  H
  C360     1.0000 0.89080  0.15490  0.80220  Biso   1.000  C
  H288     1.0000 0.88820  0.12810  0.80250  Biso   1.000  H
  N287     1.0000 0.87480  0.21100  0.78080  Biso   1.000  N
  N288     1.0000 0.87040  0.17170  0.77530  Biso   1.000  N
  Zn36     1.0000 0.83173  0.39009  0.74902  Biso   1.000  Zn
  C361     1.0000 0.87442  0.67679  0.71483  Biso   1.000  C
  H289     1.0000 0.88430  0.66050  0.69580  Biso   1.000  H
  C362     1.0000 0.84587  0.69635  0.76502  Biso   1.000  C
  H290     1.0000 0.83190  0.69700  0.78810  Biso   1.000  H
  C363     1.0000 0.86020  0.72779  0.74674  Biso   1.000  C
  C364     1.0000 0.85040  0.76650  0.76170  Biso   1.000  C
  H291     1.0000 0.83520  0.76650  0.78390  Biso   1.000  H
  C365     1.0000 0.89850  0.82870  0.70570  Biso   1.000  C
  H292     1.0000 0.89970  0.84970  0.72260  Biso   1.000  H
  N289     1.0000 0.85940  0.80060  0.74900  Biso   1.000  N
  N290     1.0000 0.88020  0.79720  0.71520  Biso   1.000  N
  C366     1.0000 0.91730  0.83042  0.66770  Biso   1.000  C
  C367     1.0000 0.94040  0.85600  0.64800  Biso   1.000  C
  H293     1.0000 0.94350  0.88210  0.65400  Biso   1.000  H
  C368     1.0000 0.94563  0.80030  0.62175  Biso   1.000  C
  H294     1.0000 0.95300  0.78060  0.60490  Biso   1.000  H
  N291     1.0000 0.87900  0.71501  0.71399  Biso   1.000  N
  N292     1.0000 0.85458  0.66386  0.74519  Biso   1.000  N
  N293     1.0000 0.92174  0.79481  0.65119  Biso   1.000  N
  N294     1.0000 0.95823  0.83705  0.61851  Biso   1.000  N
  Cu37     1.0000 0.89009  0.74902  0.66827  Biso   1.000  Cu
  C369     1.0000 0.86290  0.77000  0.74910  Biso   1.000  C
  H295     1.0000 0.85610  0.78290  0.77180  Biso   1.000  H
  C370     1.0000 0.89080  0.84510  0.69780  Biso   1.000  C
  H296     1.0000 0.88820  0.87190  0.69750  Biso   1.000  H
  N295     1.0000 0.87480  0.78900  0.71920  Biso   1.000  N
  N296     1.0000 0.87040  0.82830  0.72470  Biso   1.000  N
  Zn37     1.0000 0.83173  0.60991  0.75098  Biso   1.000  Zn
  C371     1.0000 0.37442  0.17679  0.21483  Biso   1.000  C
  H297     1.0000 0.38430  0.16050  0.19580  Biso   1.000  H
  C372     1.0000 0.34587  0.19635  0.26502  Biso   1.000  C
  H298     1.0000 0.33190  0.19700  0.28810  Biso   1.000  H
  C373     1.0000 0.36020  0.22779  0.24674  Biso   1.000  C
  C374     1.0000 0.35040  0.26650  0.26170  Biso   1.000  C
  H299     1.0000 0.33520  0.26650  0.28390  Biso   1.000  H
  C375     1.0000 0.39850  0.32870  0.20570  Biso   1.000  C
  H300     1.0000 0.39970  0.34970  0.22260  Biso   1.000  H
  N297     1.0000 0.35940  0.30060  0.24900  Biso   1.000  N
  N298     1.0000 0.38020  0.29720  0.21520  Biso   1.000  N
  C376     1.0000 0.41730  0.33042  0.16770  Biso   1.000  C
  C377     1.0000 0.44040  0.35600  0.14800  Biso   1.000  C
  H301     1.0000 0.44350  0.38210  0.15400  Biso   1.000  H
  C378     1.0000 0.44563  0.30030  0.12175  Biso   1.000  C
  H302     1.0000 0.45300  0.28060  0.10490  Biso   1.000  H
  N299     1.0000 0.37900  0.21501  0.21399  Biso   1.000  N
  N300     1.0000 0.35458  0.16386  0.24519  Biso   1.000  N
  N301     1.0000 0.42174  0.29481  0.15119  Biso   1.000  N
  N302     1.0000 0.45823  0.33705  0.11851  Biso   1.000  N
  Cu38     1.0000 0.39009  0.24902  0.16827  Biso   1.000  Cu
  C379     1.0000 0.36290  0.27000  0.24910  Biso   1.000  C
  H303     1.0000 0.35610  0.28290  0.27180  Biso   1.000  H
  C380     1.0000 0.39080  0.34510  0.19780  Biso   1.000  C
  H304     1.0000 0.38820  0.37190  0.19750  Biso   1.000  H
  N303     1.0000 0.37480  0.28900  0.21920  Biso   1.000  N
  N304     1.0000 0.37040  0.32830  0.22470  Biso   1.000  N
  Zn38     1.0000 0.33173  0.10991  0.25098  Biso   1.000  Zn
  C381     1.0000 0.12558  0.17679  0.78517  Biso   1.000  C
  H305     1.0000 0.11570  0.16050  0.80420  Biso   1.000  H
  C382     1.0000 0.15413  0.19635  0.73498  Biso   1.000  C
  H306     1.0000 0.16810  0.19700  0.71190  Biso   1.000  H
  C383     1.0000 0.13980  0.22779  0.75326  Biso   1.000  C
  C384     1.0000 0.14960  0.26650  0.73830  Biso   1.000  C
  H307     1.0000 0.16480  0.26650  0.71610  Biso   1.000  H
  C385     1.0000 0.10150  0.32870  0.79430  Biso   1.000  C
  H308     1.0000 0.10030  0.34970  0.77740  Biso   1.000  H
  N305     1.0000 0.14060  0.30060  0.75100  Biso   1.000  N
  N306     1.0000 0.11980  0.29720  0.78480  Biso   1.000  N
  C386     1.0000 0.08270  0.33042  0.83230  Biso   1.000  C
  C387     1.0000 0.05960  0.35600  0.85200  Biso   1.000  C
  H309     1.0000 0.05650  0.38210  0.84600  Biso   1.000  H
  C388     1.0000 0.05437  0.30030  0.87825  Biso   1.000  C
  H310     1.0000 0.04700  0.28060  0.89510  Biso   1.000  H
  N307     1.0000 0.12100  0.21501  0.78601  Biso   1.000  N
  N308     1.0000 0.14542  0.16386  0.75481  Biso   1.000  N
  N309     1.0000 0.07826  0.29481  0.84881  Biso   1.000  N
  N310     1.0000 0.04177  0.33705  0.88149  Biso   1.000  N
  Cu39     1.0000 0.10991  0.24902  0.83173  Biso   1.000  Cu
  C389     1.0000 0.13710  0.27000  0.75090  Biso   1.000  C
  H311     1.0000 0.14390  0.28290  0.72820  Biso   1.000  H
  C390     1.0000 0.10920  0.34510  0.80220  Biso   1.000  C
  H312     1.0000 0.11180  0.37190  0.80250  Biso   1.000  H
  N311     1.0000 0.12520  0.28900  0.78080  Biso   1.000  N
  N312     1.0000 0.12960  0.32830  0.77530  Biso   1.000  N
  Zn39     1.0000 0.16827  0.10991  0.74902  Biso   1.000  Zn
  C391     1.0000 0.62558  0.67679  0.28517  Biso   1.000  C
  H313     1.0000 0.61570  0.66050  0.30420  Biso   1.000  H
  C392     1.0000 0.65413  0.69635  0.23498  Biso   1.000  C
  H314     1.0000 0.66810  0.69700  0.21190  Biso   1.000  H
  C393     1.0000 0.63980  0.72779  0.25326  Biso   1.000  C
  C394     1.0000 0.64960  0.76650  0.23830  Biso   1.000  C
  H315     1.0000 0.66480  0.76650  0.21610  Biso   1.000  H
  C395     1.0000 0.60150  0.82870  0.29430  Biso   1.000  C
  H316     1.0000 0.60030  0.84970  0.27740  Biso   1.000  H
  N313     1.0000 0.64060  0.80060  0.25100  Biso   1.000  N
  N314     1.0000 0.61980  0.79720  0.28480  Biso   1.000  N
  C396     1.0000 0.58270  0.83042  0.33230  Biso   1.000  C
  C397     1.0000 0.55960  0.85600  0.35200  Biso   1.000  C
  H317     1.0000 0.55650  0.88210  0.34600  Biso   1.000  H
  C398     1.0000 0.55437  0.80030  0.37825  Biso   1.000  C
  H318     1.0000 0.54700  0.78060  0.39510  Biso   1.000  H
  N315     1.0000 0.62100  0.71501  0.28601  Biso   1.000  N
  N316     1.0000 0.64542  0.66386  0.25481  Biso   1.000  N
  N317     1.0000 0.57826  0.79481  0.34881  Biso   1.000  N
  N318     1.0000 0.54177  0.83705  0.38149  Biso   1.000  N
  Cu40     1.0000 0.60991  0.74902  0.33173  Biso   1.000  Cu
  C399     1.0000 0.63710  0.77000  0.25090  Biso   1.000  C
  H319     1.0000 0.64390  0.78290  0.22820  Biso   1.000  H
  C400     1.0000 0.60920  0.84510  0.30220  Biso   1.000  C
  H320     1.0000 0.61180  0.87190  0.30250  Biso   1.000  H
  N319     1.0000 0.62520  0.78900  0.28080  Biso   1.000  N
  N320     1.0000 0.62960  0.82830  0.27530  Biso   1.000  N
  Zn40     1.0000 0.66827  0.60991  0.24902  Biso   1.000  Zn
  C401     1.0000 0.82321  0.28517  0.37442  Biso   1.000  C
  H321     1.0000 0.83950  0.30420  0.38430  Biso   1.000  H
  C402     1.0000 0.80365  0.23498  0.34587  Biso   1.000  C
  H322     1.0000 0.80300  0.21190  0.33190  Biso   1.000  H
  C403     1.0000 0.77221  0.25326  0.36020  Biso   1.000  C
  C404     1.0000 0.73350  0.23830  0.35040  Biso   1.000  C
  H323     1.0000 0.73350  0.21610  0.33520  Biso   1.000  H
  C405     1.0000 0.67130  0.29430  0.39850  Biso   1.000  C
  H324     1.0000 0.65030  0.27740  0.39970  Biso   1.000  H
  N321     1.0000 0.69940  0.25100  0.35940  Biso   1.000  N
  N322     1.0000 0.70280  0.28480  0.38020  Biso   1.000  N
  C406     1.0000 0.66958  0.33230  0.41730  Biso   1.000  C
  C407     1.0000 0.64400  0.35200  0.44040  Biso   1.000  C
  H325     1.0000 0.61790  0.34600  0.44350  Biso   1.000  H
  C408     1.0000 0.69970  0.37825  0.44563  Biso   1.000  C
  H326     1.0000 0.71940  0.39510  0.45300  Biso   1.000  H
  N323     1.0000 0.78499  0.28601  0.37900  Biso   1.000  N
  N324     1.0000 0.83614  0.25481  0.35458  Biso   1.000  N
  N325     1.0000 0.70519  0.34881  0.42174  Biso   1.000  N
  N326     1.0000 0.66295  0.38149  0.45823  Biso   1.000  N
  Cu41     1.0000 0.75098  0.33173  0.39009  Biso   1.000  Cu
  C409     1.0000 0.73000  0.25090  0.36290  Biso   1.000  C
  H327     1.0000 0.71710  0.22820  0.35610  Biso   1.000  H
  C410     1.0000 0.65490  0.30220  0.39080  Biso   1.000  C
  H328     1.0000 0.62810  0.30250  0.38820  Biso   1.000  H
  N327     1.0000 0.71100  0.28080  0.37480  Biso   1.000  N
  N328     1.0000 0.67170  0.27530  0.37040  Biso   1.000  N
  Zn41     1.0000 0.89009  0.24902  0.33173  Biso   1.000  Zn
  C411     1.0000 0.32321  0.78517  0.87442  Biso   1.000  C
  H329     1.0000 0.33950  0.80420  0.88430  Biso   1.000  H
  C412     1.0000 0.30365  0.73498  0.84587  Biso   1.000  C
  H330     1.0000 0.30300  0.71190  0.83190  Biso   1.000  H
  C413     1.0000 0.27221  0.75326  0.86020  Biso   1.000  C
  C414     1.0000 0.23350  0.73830  0.85040  Biso   1.000  C
  H331     1.0000 0.23350  0.71610  0.83520  Biso   1.000  H
  C415     1.0000 0.17130  0.79430  0.89850  Biso   1.000  C
  H332     1.0000 0.15030  0.77740  0.89970  Biso   1.000  H
  N329     1.0000 0.19940  0.75100  0.85940  Biso   1.000  N
  N330     1.0000 0.20280  0.78480  0.88020  Biso   1.000  N
  C416     1.0000 0.16958  0.83230  0.91730  Biso   1.000  C
  C417     1.0000 0.14400  0.85200  0.94040  Biso   1.000  C
  H333     1.0000 0.11790  0.84600  0.94350  Biso   1.000  H
  C418     1.0000 0.19970  0.87825  0.94563  Biso   1.000  C
  H334     1.0000 0.21940  0.89510  0.95300  Biso   1.000  H
  N331     1.0000 0.28499  0.78601  0.87900  Biso   1.000  N
  N332     1.0000 0.33614  0.75481  0.85458  Biso   1.000  N
  N333     1.0000 0.20519  0.84881  0.92174  Biso   1.000  N
  N334     1.0000 0.16295  0.88149  0.95823  Biso   1.000  N
  Cu42     1.0000 0.25098  0.83173  0.89009  Biso   1.000  Cu
  C419     1.0000 0.23000  0.75090  0.86290  Biso   1.000  C
  H335     1.0000 0.21710  0.72820  0.85610  Biso   1.000  H
  C420     1.0000 0.15490  0.80220  0.89080  Biso   1.000  C
  H336     1.0000 0.12810  0.80250  0.88820  Biso   1.000  H
  N335     1.0000 0.21100  0.78080  0.87480  Biso   1.000  N
  N336     1.0000 0.17170  0.77530  0.87040  Biso   1.000  N
  Zn42     1.0000 0.39009  0.74902  0.83173  Biso   1.000  Zn
  C421     1.0000 0.32321  0.21483  0.62558  Biso   1.000  C
  H337     1.0000 0.33950  0.19580  0.61570  Biso   1.000  H
  C422     1.0000 0.30365  0.26502  0.65413  Biso   1.000  C
  H338     1.0000 0.30300  0.28810  0.66810  Biso   1.000  H
  C423     1.0000 0.27221  0.24674  0.63980  Biso   1.000  C
  C424     1.0000 0.23350  0.26170  0.64960  Biso   1.000  C
  H339     1.0000 0.23350  0.28390  0.66480  Biso   1.000  H
  C425     1.0000 0.17130  0.20570  0.60150  Biso   1.000  C
  H340     1.0000 0.15030  0.22260  0.60030  Biso   1.000  H
  N337     1.0000 0.19940  0.24900  0.64060  Biso   1.000  N
  N338     1.0000 0.20280  0.21520  0.61980  Biso   1.000  N
  C426     1.0000 0.16958  0.16770  0.58270  Biso   1.000  C
  C427     1.0000 0.14400  0.14800  0.55960  Biso   1.000  C
  H341     1.0000 0.11790  0.15400  0.55650  Biso   1.000  H
  C428     1.0000 0.19970  0.12175  0.55437  Biso   1.000  C
  H342     1.0000 0.21940  0.10490  0.54700  Biso   1.000  H
  N339     1.0000 0.28499  0.21399  0.62100  Biso   1.000  N
  N340     1.0000 0.33614  0.24519  0.64542  Biso   1.000  N
  N341     1.0000 0.20519  0.15119  0.57826  Biso   1.000  N
  N342     1.0000 0.16295  0.11851  0.54177  Biso   1.000  N
  Cu43     1.0000 0.25098  0.16827  0.60991  Biso   1.000  Cu
  C429     1.0000 0.23000  0.24910  0.63710  Biso   1.000  C
  H343     1.0000 0.21710  0.27180  0.64390  Biso   1.000  H
  C430     1.0000 0.15490  0.19780  0.60920  Biso   1.000  C
  H344     1.0000 0.12810  0.19750  0.61180  Biso   1.000  H
  N343     1.0000 0.21100  0.21920  0.62520  Biso   1.000  N
  N344     1.0000 0.17170  0.22470  0.62960  Biso   1.000  N
  Zn43     1.0000 0.39009  0.25098  0.66827  Biso   1.000  Zn
  C431     1.0000 0.82321  0.71483  0.12558  Biso   1.000  C
  H345     1.0000 0.83950  0.69580  0.11570  Biso   1.000  H
  C432     1.0000 0.80365  0.76502  0.15413  Biso   1.000  C
  H346     1.0000 0.80300  0.78810  0.16810  Biso   1.000  H
  C433     1.0000 0.77221  0.74674  0.13980  Biso   1.000  C
  C434     1.0000 0.73350  0.76170  0.14960  Biso   1.000  C
  H347     1.0000 0.73350  0.78390  0.16480  Biso   1.000  H
  C435     1.0000 0.67130  0.70570  0.10150  Biso   1.000  C
  H348     1.0000 0.65030  0.72260  0.10030  Biso   1.000  H
  N345     1.0000 0.69940  0.74900  0.14060  Biso   1.000  N
  N346     1.0000 0.70280  0.71520  0.11980  Biso   1.000  N
  C436     1.0000 0.66958  0.66770  0.08270  Biso   1.000  C
  C437     1.0000 0.64400  0.64800  0.05960  Biso   1.000  C
  H349     1.0000 0.61790  0.65400  0.05650  Biso   1.000  H
  C438     1.0000 0.69970  0.62175  0.05437  Biso   1.000  C
  H350     1.0000 0.71940  0.60490  0.04700  Biso   1.000  H
  N347     1.0000 0.78499  0.71399  0.12100  Biso   1.000  N
  N348     1.0000 0.83614  0.74519  0.14542  Biso   1.000  N
  N349     1.0000 0.70519  0.65119  0.07826  Biso   1.000  N
  N350     1.0000 0.66295  0.61851  0.04177  Biso   1.000  N
  Cu44     1.0000 0.75098  0.66827  0.10991  Biso   1.000  Cu
  C439     1.0000 0.73000  0.74910  0.13710  Biso   1.000  C
  H351     1.0000 0.71710  0.77180  0.14390  Biso   1.000  H
  C440     1.0000 0.65490  0.69780  0.10920  Biso   1.000  C
  H352     1.0000 0.62810  0.69750  0.11180  Biso   1.000  H
  N351     1.0000 0.71100  0.71920  0.12520  Biso   1.000  N
  N352     1.0000 0.67170  0.72470  0.12960  Biso   1.000  N
  Zn44     1.0000 0.89009  0.75098  0.16827  Biso   1.000  Zn
  C441     1.0000 0.17679  0.78517  0.12558  Biso   1.000  C
  H353     1.0000 0.16050  0.80420  0.11570  Biso   1.000  H
  C442     1.0000 0.19635  0.73498  0.15413  Biso   1.000  C
  H354     1.0000 0.19700  0.71190  0.16810  Biso   1.000  H
  C443     1.0000 0.22779  0.75326  0.13980  Biso   1.000  C
  C444     1.0000 0.26650  0.73830  0.14960  Biso   1.000  C
  H355     1.0000 0.26650  0.71610  0.16480  Biso   1.000  H
  C445     1.0000 0.32870  0.79430  0.10150  Biso   1.000  C
  H356     1.0000 0.34970  0.77740  0.10030  Biso   1.000  H
  N353     1.0000 0.30060  0.75100  0.14060  Biso   1.000  N
  N354     1.0000 0.29720  0.78480  0.11980  Biso   1.000  N
  C446     1.0000 0.33042  0.83230  0.08270  Biso   1.000  C
  C447     1.0000 0.35600  0.85200  0.05960  Biso   1.000  C
  H357     1.0000 0.38210  0.84600  0.05650  Biso   1.000  H
  C448     1.0000 0.30030  0.87825  0.05437  Biso   1.000  C
  H358     1.0000 0.28060  0.89510  0.04700  Biso   1.000  H
  N355     1.0000 0.21501  0.78601  0.12100  Biso   1.000  N
  N356     1.0000 0.16386  0.75481  0.14542  Biso   1.000  N
  N357     1.0000 0.29481  0.84881  0.07826  Biso   1.000  N
  N358     1.0000 0.33705  0.88149  0.04177  Biso   1.000  N
  Cu45     1.0000 0.24902  0.83173  0.10991  Biso   1.000  Cu
  C449     1.0000 0.27000  0.75090  0.13710  Biso   1.000  C
  H359     1.0000 0.28290  0.72820  0.14390  Biso   1.000  H
  C450     1.0000 0.34510  0.80220  0.10920  Biso   1.000  C
  H360     1.0000 0.37190  0.80250  0.11180  Biso   1.000  H
  N359     1.0000 0.28900  0.78080  0.12520  Biso   1.000  N
  N360     1.0000 0.32830  0.77530  0.12960  Biso   1.000  N
  Zn45     1.0000 0.10991  0.74902  0.16827  Biso   1.000  Zn
  C451     1.0000 0.67679  0.28517  0.62558  Biso   1.000  C
  H361     1.0000 0.66050  0.30420  0.61570  Biso   1.000  H
  C452     1.0000 0.69635  0.23498  0.65413  Biso   1.000  C
  H362     1.0000 0.69700  0.21190  0.66810  Biso   1.000  H
  C453     1.0000 0.72779  0.25326  0.63980  Biso   1.000  C
  C454     1.0000 0.76650  0.23830  0.64960  Biso   1.000  C
  H363     1.0000 0.76650  0.21610  0.66480  Biso   1.000  H
  C455     1.0000 0.82870  0.29430  0.60150  Biso   1.000  C
  H364     1.0000 0.84970  0.27740  0.60030  Biso   1.000  H
  N361     1.0000 0.80060  0.25100  0.64060  Biso   1.000  N
  N362     1.0000 0.79720  0.28480  0.61980  Biso   1.000  N
  C456     1.0000 0.83042  0.33230  0.58270  Biso   1.000  C
  C457     1.0000 0.85600  0.35200  0.55960  Biso   1.000  C
  H365     1.0000 0.88210  0.34600  0.55650  Biso   1.000  H
  C458     1.0000 0.80030  0.37825  0.55437  Biso   1.000  C
  H366     1.0000 0.78060  0.39510  0.54700  Biso   1.000  H
  N363     1.0000 0.71501  0.28601  0.62100  Biso   1.000  N
  N364     1.0000 0.66386  0.25481  0.64542  Biso   1.000  N
  N365     1.0000 0.79481  0.34881  0.57826  Biso   1.000  N
  N366     1.0000 0.83705  0.38149  0.54177  Biso   1.000  N
  Cu46     1.0000 0.74902  0.33173  0.60991  Biso   1.000  Cu
  C459     1.0000 0.77000  0.25090  0.63710  Biso   1.000  C
  H367     1.0000 0.78290  0.22820  0.64390  Biso   1.000  H
  C460     1.0000 0.84510  0.30220  0.60920  Biso   1.000  C
  H368     1.0000 0.87190  0.30250  0.61180  Biso   1.000  H
  N367     1.0000 0.78900  0.28080  0.62520  Biso   1.000  N
  N368     1.0000 0.82830  0.27530  0.62960  Biso   1.000  N
  Zn46     1.0000 0.60991  0.24902  0.66827  Biso   1.000  Zn
  C461     1.0000 0.67679  0.71483  0.87442  Biso   1.000  C
  H369     1.0000 0.66050  0.69580  0.88430  Biso   1.000  H
  C462     1.0000 0.69635  0.76502  0.84587  Biso   1.000  C
  H370     1.0000 0.69700  0.78810  0.83190  Biso   1.000  H
  C463     1.0000 0.72779  0.74674  0.86020  Biso   1.000  C
  C464     1.0000 0.76650  0.76170  0.85040  Biso   1.000  C
  H371     1.0000 0.76650  0.78390  0.83520  Biso   1.000  H
  C465     1.0000 0.82870  0.70570  0.89850  Biso   1.000  C
  H372     1.0000 0.84970  0.72260  0.89970  Biso   1.000  H
  N369     1.0000 0.80060  0.74900  0.85940  Biso   1.000  N
  N370     1.0000 0.79720  0.71520  0.88020  Biso   1.000  N
  C466     1.0000 0.83042  0.66770  0.91730  Biso   1.000  C
  C467     1.0000 0.85600  0.64800  0.94040  Biso   1.000  C
  H373     1.0000 0.88210  0.65400  0.94350  Biso   1.000  H
  C468     1.0000 0.80030  0.62175  0.94563  Biso   1.000  C
  H374     1.0000 0.78060  0.60490  0.95300  Biso   1.000  H
  N371     1.0000 0.71501  0.71399  0.87900  Biso   1.000  N
  N372     1.0000 0.66386  0.74519  0.85458  Biso   1.000  N
  N373     1.0000 0.79481  0.65119  0.92174  Biso   1.000  N
  N374     1.0000 0.83705  0.61851  0.95823  Biso   1.000  N
  Cu47     1.0000 0.74902  0.66827  0.89009  Biso   1.000  Cu
  C469     1.0000 0.77000  0.74910  0.86290  Biso   1.000  C
  H375     1.0000 0.78290  0.77180  0.85610  Biso   1.000  H
  C470     1.0000 0.84510  0.69780  0.89080  Biso   1.000  C
  H376     1.0000 0.87190  0.69750  0.88820  Biso   1.000  H
  N375     1.0000 0.78900  0.71920  0.87480  Biso   1.000  N
  N376     1.0000 0.82830  0.72470  0.87040  Biso   1.000  N
  Zn47     1.0000 0.60991  0.75098  0.83173  Biso   1.000  Zn
  C471     1.0000 0.17679  0.21483  0.37442  Biso   1.000  C
  H377     1.0000 0.16050  0.19580  0.38430  Biso   1.000  H
  C472     1.0000 0.19635  0.26502  0.34587  Biso   1.000  C
  H378     1.0000 0.19700  0.28810  0.33190  Biso   1.000  H
  C473     1.0000 0.22779  0.24674  0.36020  Biso   1.000  C
  C474     1.0000 0.26650  0.26170  0.35040  Biso   1.000  C
  H379     1.0000 0.26650  0.28390  0.33520  Biso   1.000  H
  C475     1.0000 0.32870  0.20570  0.39850  Biso   1.000  C
  H380     1.0000 0.34970  0.22260  0.39970  Biso   1.000  H
  N377     1.0000 0.30060  0.24900  0.35940  Biso   1.000  N
  N378     1.0000 0.29720  0.21520  0.38020  Biso   1.000  N
  C476     1.0000 0.33042  0.16770  0.41730  Biso   1.000  C
  C477     1.0000 0.35600  0.14800  0.44040  Biso   1.000  C
  H381     1.0000 0.38210  0.15400  0.44350  Biso   1.000  H
  C478     1.0000 0.30030  0.12175  0.44563  Biso   1.000  C
  H382     1.0000 0.28060  0.10490  0.45300  Biso   1.000  H
  N379     1.0000 0.21501  0.21399  0.37900  Biso   1.000  N
  N380     1.0000 0.16386  0.24519  0.35458  Biso   1.000  N
  N381     1.0000 0.29481  0.15119  0.42174  Biso   1.000  N
  N382     1.0000 0.33705  0.11851  0.45823  Biso   1.000  N
  Cu48     1.0000 0.24902  0.16827  0.39009  Biso   1.000  Cu
  C479     1.0000 0.27000  0.24910  0.36290  Biso   1.000  C
  H383     1.0000 0.28290  0.27180  0.35610  Biso   1.000  H
  C480     1.0000 0.34510  0.19780  0.39080  Biso   1.000  C
  H384     1.0000 0.37190  0.19750  0.38820  Biso   1.000  H
  N383     1.0000 0.28900  0.21920  0.37480  Biso   1.000  N
  N384     1.0000 0.32830  0.22470  0.37040  Biso   1.000  N
  Zn48     1.0000 0.10991  0.25098  0.33173  Biso   1.000  Zn
  C481     1.0000 0.12442  0.96483  0.92679  Biso   1.000  C
  H385     1.0000 0.13430  0.94580  0.91050  Biso   1.000  H
  C482     1.0000 0.09587  0.01502  0.94635  Biso   1.000  C
  H386     1.0000 0.08190  0.03810  0.94700  Biso   1.000  H
  C483     1.0000 0.11020  0.99674  0.97779  Biso   1.000  C
  C484     1.0000 0.10040  0.01170  0.01650  Biso   1.000  C
  H387     1.0000 0.08520  0.03390  0.01650  Biso   1.000  H
  C485     1.0000 0.14850  0.95570  0.07870  Biso   1.000  C
  H388     1.0000 0.14970  0.97260  0.09970  Biso   1.000  H
  N385     1.0000 0.10940  0.99900  0.05060  Biso   1.000  N
  N386     1.0000 0.13020  0.96520  0.04720  Biso   1.000  N
  C486     1.0000 0.16730  0.91770  0.08042  Biso   1.000  C
  C487     1.0000 0.19040  0.89800  0.10600  Biso   1.000  C
  H389     1.0000 0.19350  0.90400  0.13210  Biso   1.000  H
  C488     1.0000 0.19563  0.87175  0.05030  Biso   1.000  C
  H390     1.0000 0.20300  0.85490  0.03060  Biso   1.000  H
  N387     1.0000 0.12900  0.96399  0.96501  Biso   1.000  N
  N388     1.0000 0.10458  0.99519  0.91386  Biso   1.000  N
  N389     1.0000 0.17174  0.90119  0.04481  Biso   1.000  N
  N390     1.0000 0.20823  0.86851  0.08705  Biso   1.000  N
  C489     1.0000 0.11290  0.99910  0.02000  Biso   1.000  C
  H391     1.0000 0.10610  0.02180  0.03290  Biso   1.000  H
  C490     1.0000 0.14080  0.94780  0.09510  Biso   1.000  C
  H392     1.0000 0.13820  0.94750  0.12190  Biso   1.000  H
  N391     1.0000 0.12480  0.96920  0.03900  Biso   1.000  N
  N392     1.0000 0.12040  0.97470  0.07830  Biso   1.000  N
  C491     1.0000 0.62442  0.46483  0.42679  Biso   1.000  C
  H393     1.0000 0.63430  0.44580  0.41050  Biso   1.000  H
  C492     1.0000 0.59587  0.51502  0.44635  Biso   1.000  C
  H394     1.0000 0.58190  0.53810  0.44700  Biso   1.000  H
  C493     1.0000 0.61020  0.49674  0.47779  Biso   1.000  C
  C494     1.0000 0.60040  0.51170  0.51650  Biso   1.000  C
  H395     1.0000 0.58520  0.53390  0.51650  Biso   1.000  H
  C495     1.0000 0.64850  0.45570  0.57870  Biso   1.000  C
  H396     1.0000 0.64970  0.47260  0.59970  Biso   1.000  H
  N393     1.0000 0.60940  0.49900  0.55060  Biso   1.000  N
  N394     1.0000 0.63020  0.46520  0.54720  Biso   1.000  N
  C496     1.0000 0.66730  0.41770  0.58042  Biso   1.000  C
  C497     1.0000 0.69040  0.39800  0.60600  Biso   1.000  C
  H397     1.0000 0.69350  0.40400  0.63210  Biso   1.000  H
  C498     1.0000 0.69563  0.37175  0.55030  Biso   1.000  C
  H398     1.0000 0.70300  0.35490  0.53060  Biso   1.000  H
  N395     1.0000 0.62900  0.46399  0.46501  Biso   1.000  N
  N396     1.0000 0.60458  0.49519  0.41386  Biso   1.000  N
  N397     1.0000 0.67174  0.40119  0.54481  Biso   1.000  N
  N398     1.0000 0.70823  0.36851  0.58705  Biso   1.000  N
  C499     1.0000 0.61290  0.49910  0.52000  Biso   1.000  C
  H399     1.0000 0.60610  0.52180  0.53290  Biso   1.000  H
  C500     1.0000 0.64080  0.44780  0.59510  Biso   1.000  C
  H400     1.0000 0.63820  0.44750  0.62190  Biso   1.000  H
  N399     1.0000 0.62480  0.46920  0.53900  Biso   1.000  N
  N400     1.0000 0.62040  0.47470  0.57830  Biso   1.000  N
  C501     1.0000 0.37558  0.03517  0.42679  Biso   1.000  C
  H401     1.0000 0.36570  0.05420  0.41050  Biso   1.000  H
  C502     1.0000 0.40413  0.98498  0.44635  Biso   1.000  C
  H402     1.0000 0.41810  0.96190  0.44700  Biso   1.000  H
  C503     1.0000 0.38980  0.00326  0.47779  Biso   1.000  C
  C504     1.0000 0.39960  0.98830  0.51650  Biso   1.000  C
  H403     1.0000 0.41480  0.96610  0.51650  Biso   1.000  H
  C505     1.0000 0.35150  0.04430  0.57870  Biso   1.000  C
  H404     1.0000 0.35030  0.02740  0.59970  Biso   1.000  H
  N401     1.0000 0.39060  0.00100  0.55060  Biso   1.000  N
  N402     1.0000 0.36980  0.03480  0.54720  Biso   1.000  N
  C506     1.0000 0.33270  0.08230  0.58042  Biso   1.000  C
  C507     1.0000 0.30960  0.10200  0.60600  Biso   1.000  C
  H405     1.0000 0.30650  0.09600  0.63210  Biso   1.000  H
  C508     1.0000 0.30437  0.12825  0.55030  Biso   1.000  C
  H406     1.0000 0.29700  0.14510  0.53060  Biso   1.000  H
  N403     1.0000 0.37100  0.03601  0.46501  Biso   1.000  N
  N404     1.0000 0.39542  0.00481  0.41386  Biso   1.000  N
  N405     1.0000 0.32826  0.09881  0.54481  Biso   1.000  N
  N406     1.0000 0.29177  0.13149  0.58705  Biso   1.000  N
  C509     1.0000 0.38710  0.00090  0.52000  Biso   1.000  C
  H407     1.0000 0.39390  0.97820  0.53290  Biso   1.000  H
  C510     1.0000 0.35920  0.05220  0.59510  Biso   1.000  C
  H408     1.0000 0.36180  0.05250  0.62190  Biso   1.000  H
  N407     1.0000 0.37520  0.03080  0.53900  Biso   1.000  N
  N408     1.0000 0.37960  0.02530  0.57830  Biso   1.000  N
  C511     1.0000 0.87558  0.53517  0.92679  Biso   1.000  C
  H409     1.0000 0.86570  0.55420  0.91050  Biso   1.000  H
  C512     1.0000 0.90413  0.48498  0.94635  Biso   1.000  C
  H410     1.0000 0.91810  0.46190  0.94700  Biso   1.000  H
  C513     1.0000 0.88980  0.50326  0.97779  Biso   1.000  C
  C514     1.0000 0.89960  0.48830  0.01650  Biso   1.000  C
  H411     1.0000 0.91480  0.46610  0.01650  Biso   1.000  H
  C515     1.0000 0.85150  0.54430  0.07870  Biso   1.000  C
  H412     1.0000 0.85030  0.52740  0.09970  Biso   1.000  H
  N409     1.0000 0.89060  0.50100  0.05060  Biso   1.000  N
  N410     1.0000 0.86980  0.53480  0.04720  Biso   1.000  N
  C516     1.0000 0.83270  0.58230  0.08042  Biso   1.000  C
  C517     1.0000 0.80960  0.60200  0.10600  Biso   1.000  C
  H413     1.0000 0.80650  0.59600  0.13210  Biso   1.000  H
  C518     1.0000 0.80437  0.62825  0.05030  Biso   1.000  C
  H414     1.0000 0.79700  0.64510  0.03060  Biso   1.000  H
  N411     1.0000 0.87100  0.53601  0.96501  Biso   1.000  N
  N412     1.0000 0.89542  0.50481  0.91386  Biso   1.000  N
  N413     1.0000 0.82826  0.59881  0.04481  Biso   1.000  N
  N414     1.0000 0.79177  0.63149  0.08705  Biso   1.000  N
  C519     1.0000 0.88710  0.50090  0.02000  Biso   1.000  C
  H415     1.0000 0.89390  0.47820  0.03290  Biso   1.000  H
  C520     1.0000 0.85920  0.55220  0.09510  Biso   1.000  C
  H416     1.0000 0.86180  0.55250  0.12190  Biso   1.000  H
  N415     1.0000 0.87520  0.53080  0.03900  Biso   1.000  N
  N416     1.0000 0.87960  0.52530  0.07830  Biso   1.000  N
  C521     1.0000 0.87558  0.46483  0.57321  Biso   1.000  C
  H417     1.0000 0.86570  0.44580  0.58950  Biso   1.000  H
  C522     1.0000 0.90413  0.51502  0.55365  Biso   1.000  C
  H418     1.0000 0.91810  0.53810  0.55300  Biso   1.000  H
  C523     1.0000 0.88980  0.49674  0.52221  Biso   1.000  C
  C524     1.0000 0.89960  0.51170  0.48350  Biso   1.000  C
  H419     1.0000 0.91480  0.53390  0.48350  Biso   1.000  H
  C525     1.0000 0.85150  0.45570  0.42130  Biso   1.000  C
  H420     1.0000 0.85030  0.47260  0.40030  Biso   1.000  H
  N417     1.0000 0.89060  0.49900  0.44940  Biso   1.000  N
  N418     1.0000 0.86980  0.46520  0.45280  Biso   1.000  N
  C526     1.0000 0.83270  0.41770  0.41958  Biso   1.000  C
  C527     1.0000 0.80960  0.39800  0.39400  Biso   1.000  C
  H421     1.0000 0.80650  0.40400  0.36790  Biso   1.000  H
  C528     1.0000 0.80437  0.37175  0.44970  Biso   1.000  C
  H422     1.0000 0.79700  0.35490  0.46940  Biso   1.000  H
  N419     1.0000 0.87100  0.46399  0.53499  Biso   1.000  N
  N420     1.0000 0.89542  0.49519  0.58614  Biso   1.000  N
  N421     1.0000 0.82826  0.40119  0.45519  Biso   1.000  N
  N422     1.0000 0.79177  0.36851  0.41295  Biso   1.000  N
  C529     1.0000 0.88710  0.49910  0.48000  Biso   1.000  C
  H423     1.0000 0.89390  0.52180  0.46710  Biso   1.000  H
  C530     1.0000 0.85920  0.44780  0.40490  Biso   1.000  C
  H424     1.0000 0.86180  0.44750  0.37810  Biso   1.000  H
  N423     1.0000 0.87520  0.46920  0.46100  Biso   1.000  N
  N424     1.0000 0.87960  0.47470  0.42170  Biso   1.000  N
  C531     1.0000 0.37558  0.96483  0.07321  Biso   1.000  C
  H425     1.0000 0.36570  0.94580  0.08950  Biso   1.000  H
  C532     1.0000 0.40413  0.01502  0.05365  Biso   1.000  C
  H426     1.0000 0.41810  0.03810  0.05300  Biso   1.000  H
  C533     1.0000 0.38980  0.99674  0.02221  Biso   1.000  C
  C534     1.0000 0.39960  0.01170  0.98350  Biso   1.000  C
  H427     1.0000 0.41480  0.03390  0.98350  Biso   1.000  H
  C535     1.0000 0.35150  0.95570  0.92130  Biso   1.000  C
  H428     1.0000 0.35030  0.97260  0.90030  Biso   1.000  H
  N425     1.0000 0.39060  0.99900  0.94940  Biso   1.000  N
  N426     1.0000 0.36980  0.96520  0.95280  Biso   1.000  N
  C536     1.0000 0.33270  0.91770  0.91958  Biso   1.000  C
  C537     1.0000 0.30960  0.89800  0.89400  Biso   1.000  C
  H429     1.0000 0.30650  0.90400  0.86790  Biso   1.000  H
  C538     1.0000 0.30437  0.87175  0.94970  Biso   1.000  C
  H430     1.0000 0.29700  0.85490  0.96940  Biso   1.000  H
  N427     1.0000 0.37100  0.96399  0.03499  Biso   1.000  N
  N428     1.0000 0.39542  0.99519  0.08614  Biso   1.000  N
  N429     1.0000 0.32826  0.90119  0.95519  Biso   1.000  N
  N430     1.0000 0.29177  0.86851  0.91295  Biso   1.000  N
  C539     1.0000 0.38710  0.99910  0.98000  Biso   1.000  C
  H431     1.0000 0.39390  0.02180  0.96710  Biso   1.000  H
  C540     1.0000 0.35920  0.94780  0.90490  Biso   1.000  C
  H432     1.0000 0.36180  0.94750  0.87810  Biso   1.000  H
  N431     1.0000 0.37520  0.96920  0.96100  Biso   1.000  N
  N432     1.0000 0.37960  0.97470  0.92170  Biso   1.000  N
  C541     1.0000 0.62442  0.53517  0.07321  Biso   1.000  C
  H433     1.0000 0.63430  0.55420  0.08950  Biso   1.000  H
  C542     1.0000 0.59587  0.48498  0.05365  Biso   1.000  C
  H434     1.0000 0.58190  0.46190  0.05300  Biso   1.000  H
  C543     1.0000 0.61020  0.50326  0.02221  Biso   1.000  C
  C544     1.0000 0.60040  0.48830  0.98350  Biso   1.000  C
  H435     1.0000 0.58520  0.46610  0.98350  Biso   1.000  H
  C545     1.0000 0.64850  0.54430  0.92130  Biso   1.000  C
  H436     1.0000 0.64970  0.52740  0.90030  Biso   1.000  H
  N433     1.0000 0.60940  0.50100  0.94940  Biso   1.000  N
  N434     1.0000 0.63020  0.53480  0.95280  Biso   1.000  N
  C546     1.0000 0.66730  0.58230  0.91958  Biso   1.000  C
  C547     1.0000 0.69040  0.60200  0.89400  Biso   1.000  C
  H437     1.0000 0.69350  0.59600  0.86790  Biso   1.000  H
  C548     1.0000 0.69563  0.62825  0.94970  Biso   1.000  C
  H438     1.0000 0.70300  0.64510  0.96940  Biso   1.000  H
  N435     1.0000 0.62900  0.53601  0.03499  Biso   1.000  N
  N436     1.0000 0.60458  0.50481  0.08614  Biso   1.000  N
  N437     1.0000 0.67174  0.59881  0.95519  Biso   1.000  N
  N438     1.0000 0.70823  0.63149  0.91295  Biso   1.000  N
  C549     1.0000 0.61290  0.50090  0.98000  Biso   1.000  C
  H439     1.0000 0.60610  0.47820  0.96710  Biso   1.000  H
  C550     1.0000 0.64080  0.55220  0.90490  Biso   1.000  C
  H440     1.0000 0.63820  0.55250  0.87810  Biso   1.000  H
  N439     1.0000 0.62480  0.53080  0.96100  Biso   1.000  N
  N440     1.0000 0.62040  0.52530  0.92170  Biso   1.000  N
  C551     1.0000 0.12442  0.03517  0.57321  Biso   1.000  C
  H441     1.0000 0.13430  0.05420  0.58950  Biso   1.000  H
  C552     1.0000 0.09587  0.98498  0.55365  Biso   1.000  C
  H442     1.0000 0.08190  0.96190  0.55300  Biso   1.000  H
  C553     1.0000 0.11020  0.00326  0.52221  Biso   1.000  C
  C554     1.0000 0.10040  0.98830  0.48350  Biso   1.000  C
  H443     1.0000 0.08520  0.96610  0.48350  Biso   1.000  H
  C555     1.0000 0.14850  0.04430  0.42130  Biso   1.000  C
  H444     1.0000 0.14970  0.02740  0.40030  Biso   1.000  H
  N441     1.0000 0.10940  0.00100  0.44940  Biso   1.000  N
  N442     1.0000 0.13020  0.03480  0.45280  Biso   1.000  N
  C556     1.0000 0.16730  0.08230  0.41958  Biso   1.000  C
  C557     1.0000 0.19040  0.10200  0.39400  Biso   1.000  C
  H445     1.0000 0.19350  0.09600  0.36790  Biso   1.000  H
  C558     1.0000 0.19563  0.12825  0.44970  Biso   1.000  C
  H446     1.0000 0.20300  0.14510  0.46940  Biso   1.000  H
  N443     1.0000 0.12900  0.03601  0.53499  Biso   1.000  N
  N444     1.0000 0.10458  0.00481  0.58614  Biso   1.000  N
  N445     1.0000 0.17174  0.09881  0.45519  Biso   1.000  N
  N446     1.0000 0.20823  0.13149  0.41295  Biso   1.000  N
  C559     1.0000 0.11290  0.00090  0.48000  Biso   1.000  C
  H447     1.0000 0.10610  0.97820  0.46710  Biso   1.000  H
  C560     1.0000 0.14080  0.05220  0.40490  Biso   1.000  C
  H448     1.0000 0.13820  0.05250  0.37810  Biso   1.000  H
  N447     1.0000 0.12480  0.03080  0.46100  Biso   1.000  N
  N448     1.0000 0.12040  0.02530  0.42170  Biso   1.000  N
  C561     1.0000 0.92679  0.12442  0.96483  Biso   1.000  C
  H449     1.0000 0.91050  0.13430  0.94580  Biso   1.000  H
  C562     1.0000 0.94635  0.09587  0.01502  Biso   1.000  C
  H450     1.0000 0.94700  0.08190  0.03810  Biso   1.000  H
  C563     1.0000 0.97779  0.11020  0.99674  Biso   1.000  C
  C564     1.0000 0.01650  0.10040  0.01170  Biso   1.000  C
  H451     1.0000 0.01650  0.08520  0.03390  Biso   1.000  H
  C565     1.0000 0.07870  0.14850  0.95570  Biso   1.000  C
  H452     1.0000 0.09970  0.14970  0.97260  Biso   1.000  H
  N449     1.0000 0.05060  0.10940  0.99900  Biso   1.000  N
  N450     1.0000 0.04720  0.13020  0.96520  Biso   1.000  N
  C566     1.0000 0.08042  0.16730  0.91770  Biso   1.000  C
  C567     1.0000 0.10600  0.19040  0.89800  Biso   1.000  C
  H453     1.0000 0.13210  0.19350  0.90400  Biso   1.000  H
  C568     1.0000 0.05030  0.19563  0.87175  Biso   1.000  C
  H454     1.0000 0.03060  0.20300  0.85490  Biso   1.000  H
  N451     1.0000 0.96501  0.12900  0.96399  Biso   1.000  N
  N452     1.0000 0.91386  0.10458  0.99519  Biso   1.000  N
  N453     1.0000 0.04481  0.17174  0.90119  Biso   1.000  N
  N454     1.0000 0.08705  0.20823  0.86851  Biso   1.000  N
  C569     1.0000 0.02000  0.11290  0.99910  Biso   1.000  C
  H455     1.0000 0.03290  0.10610  0.02180  Biso   1.000  H
  C570     1.0000 0.09510  0.14080  0.94780  Biso   1.000  C
  H456     1.0000 0.12190  0.13820  0.94750  Biso   1.000  H
  N455     1.0000 0.03900  0.12480  0.96920  Biso   1.000  N
  N456     1.0000 0.07830  0.12040  0.97470  Biso   1.000  N
  C571     1.0000 0.42679  0.62442  0.46483  Biso   1.000  C
  H457     1.0000 0.41050  0.63430  0.44580  Biso   1.000  H
  C572     1.0000 0.44635  0.59587  0.51502  Biso   1.000  C
  H458     1.0000 0.44700  0.58190  0.53810  Biso   1.000  H
  C573     1.0000 0.47779  0.61020  0.49674  Biso   1.000  C
  C574     1.0000 0.51650  0.60040  0.51170  Biso   1.000  C
  H459     1.0000 0.51650  0.58520  0.53390  Biso   1.000  H
  C575     1.0000 0.57870  0.64850  0.45570  Biso   1.000  C
  H460     1.0000 0.59970  0.64970  0.47260  Biso   1.000  H
  N457     1.0000 0.55060  0.60940  0.49900  Biso   1.000  N
  N458     1.0000 0.54720  0.63020  0.46520  Biso   1.000  N
  C576     1.0000 0.58042  0.66730  0.41770  Biso   1.000  C
  C577     1.0000 0.60600  0.69040  0.39800  Biso   1.000  C
  H461     1.0000 0.63210  0.69350  0.40400  Biso   1.000  H
  C578     1.0000 0.55030  0.69563  0.37175  Biso   1.000  C
  H462     1.0000 0.53060  0.70300  0.35490  Biso   1.000  H
  N459     1.0000 0.46501  0.62900  0.46399  Biso   1.000  N
  N460     1.0000 0.41386  0.60458  0.49519  Biso   1.000  N
  N461     1.0000 0.54481  0.67174  0.40119  Biso   1.000  N
  N462     1.0000 0.58705  0.70823  0.36851  Biso   1.000  N
  C579     1.0000 0.52000  0.61290  0.49910  Biso   1.000  C
  H463     1.0000 0.53290  0.60610  0.52180  Biso   1.000  H
  C580     1.0000 0.59510  0.64080  0.44780  Biso   1.000  C
  H464     1.0000 0.62190  0.63820  0.44750  Biso   1.000  H
  N463     1.0000 0.53900  0.62480  0.46920  Biso   1.000  N
  N464     1.0000 0.57830  0.62040  0.47470  Biso   1.000  N
  C581     1.0000 0.42679  0.37558  0.03517  Biso   1.000  C
  H465     1.0000 0.41050  0.36570  0.05420  Biso   1.000  H
  C582     1.0000 0.44635  0.40413  0.98498  Biso   1.000  C
  H466     1.0000 0.44700  0.41810  0.96190  Biso   1.000  H
  C583     1.0000 0.47779  0.38980  0.00326  Biso   1.000  C
  C584     1.0000 0.51650  0.39960  0.98830  Biso   1.000  C
  H467     1.0000 0.51650  0.41480  0.96610  Biso   1.000  H
  C585     1.0000 0.57870  0.35150  0.04430  Biso   1.000  C
  H468     1.0000 0.59970  0.35030  0.02740  Biso   1.000  H
  N465     1.0000 0.55060  0.39060  0.00100  Biso   1.000  N
  N466     1.0000 0.54720  0.36980  0.03480  Biso   1.000  N
  C586     1.0000 0.58042  0.33270  0.08230  Biso   1.000  C
  C587     1.0000 0.60600  0.30960  0.10200  Biso   1.000  C
  H469     1.0000 0.63210  0.30650  0.09600  Biso   1.000  H
  C588     1.0000 0.55030  0.30437  0.12825  Biso   1.000  C
  H470     1.0000 0.53060  0.29700  0.14510  Biso   1.000  H
  N467     1.0000 0.46501  0.37100  0.03601  Biso   1.000  N
  N468     1.0000 0.41386  0.39542  0.00481  Biso   1.000  N
  N469     1.0000 0.54481  0.32826  0.09881  Biso   1.000  N
  N470     1.0000 0.58705  0.29177  0.13149  Biso   1.000  N
  C589     1.0000 0.52000  0.38710  0.00090  Biso   1.000  C
  H471     1.0000 0.53290  0.39390  0.97820  Biso   1.000  H
  C590     1.0000 0.59510  0.35920  0.05220  Biso   1.000  C
  H472     1.0000 0.62190  0.36180  0.05250  Biso   1.000  H
  N471     1.0000 0.53900  0.37520  0.03080  Biso   1.000  N
  N472     1.0000 0.57830  0.37960  0.02530  Biso   1.000  N
  C591     1.0000 0.92679  0.87558  0.53517  Biso   1.000  C
  H473     1.0000 0.91050  0.86570  0.55420  Biso   1.000  H
  C592     1.0000 0.94635  0.90413  0.48498  Biso   1.000  C
  H474     1.0000 0.94700  0.91810  0.46190  Biso   1.000  H
  C593     1.0000 0.97779  0.88980  0.50326  Biso   1.000  C
  C594     1.0000 0.01650  0.89960  0.48830  Biso   1.000  C
  H475     1.0000 0.01650  0.91480  0.46610  Biso   1.000  H
  C595     1.0000 0.07870  0.85150  0.54430  Biso   1.000  C
  H476     1.0000 0.09970  0.85030  0.52740  Biso   1.000  H
  N473     1.0000 0.05060  0.89060  0.50100  Biso   1.000  N
  N474     1.0000 0.04720  0.86980  0.53480  Biso   1.000  N
  C596     1.0000 0.08042  0.83270  0.58230  Biso   1.000  C
  C597     1.0000 0.10600  0.80960  0.60200  Biso   1.000  C
  H477     1.0000 0.13210  0.80650  0.59600  Biso   1.000  H
  C598     1.0000 0.05030  0.80437  0.62825  Biso   1.000  C
  H478     1.0000 0.03060  0.79700  0.64510  Biso   1.000  H
  N475     1.0000 0.96501  0.87100  0.53601  Biso   1.000  N
  N476     1.0000 0.91386  0.89542  0.50481  Biso   1.000  N
  N477     1.0000 0.04481  0.82826  0.59881  Biso   1.000  N
  N478     1.0000 0.08705  0.79177  0.63149  Biso   1.000  N
  C599     1.0000 0.02000  0.88710  0.50090  Biso   1.000  C
  H479     1.0000 0.03290  0.89390  0.47820  Biso   1.000  H
  C600     1.0000 0.09510  0.85920  0.55220  Biso   1.000  C
  H480     1.0000 0.12190  0.86180  0.55250  Biso   1.000  H
  N479     1.0000 0.03900  0.87520  0.53080  Biso   1.000  N
  N480     1.0000 0.07830  0.87960  0.52530  Biso   1.000  N
  C601     1.0000 0.57321  0.87558  0.46483  Biso   1.000  C
  H481     1.0000 0.58950  0.86570  0.44580  Biso   1.000  H
  C602     1.0000 0.55365  0.90413  0.51502  Biso   1.000  C
  H482     1.0000 0.55300  0.91810  0.53810  Biso   1.000  H
  C603     1.0000 0.52221  0.88980  0.49674  Biso   1.000  C
  C604     1.0000 0.48350  0.89960  0.51170  Biso   1.000  C
  H483     1.0000 0.48350  0.91480  0.53390  Biso   1.000  H
  C605     1.0000 0.42130  0.85150  0.45570  Biso   1.000  C
  H484     1.0000 0.40030  0.85030  0.47260  Biso   1.000  H
  N481     1.0000 0.44940  0.89060  0.49900  Biso   1.000  N
  N482     1.0000 0.45280  0.86980  0.46520  Biso   1.000  N
  C606     1.0000 0.41958  0.83270  0.41770  Biso   1.000  C
  C607     1.0000 0.39400  0.80960  0.39800  Biso   1.000  C
  H485     1.0000 0.36790  0.80650  0.40400  Biso   1.000  H
  C608     1.0000 0.44970  0.80437  0.37175  Biso   1.000  C
  H486     1.0000 0.46940  0.79700  0.35490  Biso   1.000  H
  N483     1.0000 0.53499  0.87100  0.46399  Biso   1.000  N
  N484     1.0000 0.58614  0.89542  0.49519  Biso   1.000  N
  N485     1.0000 0.45519  0.82826  0.40119  Biso   1.000  N
  N486     1.0000 0.41295  0.79177  0.36851  Biso   1.000  N
  C609     1.0000 0.48000  0.88710  0.49910  Biso   1.000  C
  H487     1.0000 0.46710  0.89390  0.52180  Biso   1.000  H
  C610     1.0000 0.40490  0.85920  0.44780  Biso   1.000  C
  H488     1.0000 0.37810  0.86180  0.44750  Biso   1.000  H
  N487     1.0000 0.46100  0.87520  0.46920  Biso   1.000  N
  N488     1.0000 0.42170  0.87960  0.47470  Biso   1.000  N
  C611     1.0000 0.07321  0.37558  0.96483  Biso   1.000  C
  H489     1.0000 0.08950  0.36570  0.94580  Biso   1.000  H
  C612     1.0000 0.05365  0.40413  0.01502  Biso   1.000  C
  H490     1.0000 0.05300  0.41810  0.03810  Biso   1.000  H
  C613     1.0000 0.02221  0.38980  0.99674  Biso   1.000  C
  C614     1.0000 0.98350  0.39960  0.01170  Biso   1.000  C
  H491     1.0000 0.98350  0.41480  0.03390  Biso   1.000  H
  C615     1.0000 0.92130  0.35150  0.95570  Biso   1.000  C
  H492     1.0000 0.90030  0.35030  0.97260  Biso   1.000  H
  N489     1.0000 0.94940  0.39060  0.99900  Biso   1.000  N
  N490     1.0000 0.95280  0.36980  0.96520  Biso   1.000  N
  C616     1.0000 0.91958  0.33270  0.91770  Biso   1.000  C
  C617     1.0000 0.89400  0.30960  0.89800  Biso   1.000  C
  H493     1.0000 0.86790  0.30650  0.90400  Biso   1.000  H
  C618     1.0000 0.94970  0.30437  0.87175  Biso   1.000  C
  H494     1.0000 0.96940  0.29700  0.85490  Biso   1.000  H
  N491     1.0000 0.03499  0.37100  0.96399  Biso   1.000  N
  N492     1.0000 0.08614  0.39542  0.99519  Biso   1.000  N
  N493     1.0000 0.95519  0.32826  0.90119  Biso   1.000  N
  N494     1.0000 0.91295  0.29177  0.86851  Biso   1.000  N
  C619     1.0000 0.98000  0.38710  0.99910  Biso   1.000  C
  H495     1.0000 0.96710  0.39390  0.02180  Biso   1.000  H
  C620     1.0000 0.90490  0.35920  0.94780  Biso   1.000  C
  H496     1.0000 0.87810  0.36180  0.94750  Biso   1.000  H
  N495     1.0000 0.96100  0.37520  0.96920  Biso   1.000  N
  N496     1.0000 0.92170  0.37960  0.97470  Biso   1.000  N
  C621     1.0000 0.07321  0.62442  0.53517  Biso   1.000  C
  H497     1.0000 0.08950  0.63430  0.55420  Biso   1.000  H
  C622     1.0000 0.05365  0.59587  0.48498  Biso   1.000  C
  H498     1.0000 0.05300  0.58190  0.46190  Biso   1.000  H
  C623     1.0000 0.02221  0.61020  0.50326  Biso   1.000  C
  C624     1.0000 0.98350  0.60040  0.48830  Biso   1.000  C
  H499     1.0000 0.98350  0.58520  0.46610  Biso   1.000  H
  C625     1.0000 0.92130  0.64850  0.54430  Biso   1.000  C
  H500     1.0000 0.90030  0.64970  0.52740  Biso   1.000  H
  N497     1.0000 0.94940  0.60940  0.50100  Biso   1.000  N
  N498     1.0000 0.95280  0.63020  0.53480  Biso   1.000  N
  C626     1.0000 0.91958  0.66730  0.58230  Biso   1.000  C
  C627     1.0000 0.89400  0.69040  0.60200  Biso   1.000  C
  H501     1.0000 0.86790  0.69350  0.59600  Biso   1.000  H
  C628     1.0000 0.94970  0.69563  0.62825  Biso   1.000  C
  H502     1.0000 0.96940  0.70300  0.64510  Biso   1.000  H
  N499     1.0000 0.03499  0.62900  0.53601  Biso   1.000  N
  N500     1.0000 0.08614  0.60458  0.50481  Biso   1.000  N
  N501     1.0000 0.95519  0.67174  0.59881  Biso   1.000  N
  N502     1.0000 0.91295  0.70823  0.63149  Biso   1.000  N
  C629     1.0000 0.98000  0.61290  0.50090  Biso   1.000  C
  H503     1.0000 0.96710  0.60610  0.47820  Biso   1.000  H
  C630     1.0000 0.90490  0.64080  0.55220  Biso   1.000  C
  H504     1.0000 0.87810  0.63820  0.55250  Biso   1.000  H
  N503     1.0000 0.96100  0.62480  0.53080  Biso   1.000  N
  N504     1.0000 0.92170  0.62040  0.52530  Biso   1.000  N
  C631     1.0000 0.57321  0.12442  0.03517  Biso   1.000  C
  H505     1.0000 0.58950  0.13430  0.05420  Biso   1.000  H
  C632     1.0000 0.55365  0.09587  0.98498  Biso   1.000  C
  H506     1.0000 0.55300  0.08190  0.96190  Biso   1.000  H
  C633     1.0000 0.52221  0.11020  0.00326  Biso   1.000  C
  C634     1.0000 0.48350  0.10040  0.98830  Biso   1.000  C
  H507     1.0000 0.48350  0.08520  0.96610  Biso   1.000  H
  C635     1.0000 0.42130  0.14850  0.04430  Biso   1.000  C
  H508     1.0000 0.40030  0.14970  0.02740  Biso   1.000  H
  N505     1.0000 0.44940  0.10940  0.00100  Biso   1.000  N
  N506     1.0000 0.45280  0.13020  0.03480  Biso   1.000  N
  C636     1.0000 0.41958  0.16730  0.08230  Biso   1.000  C
  C637     1.0000 0.39400  0.19040  0.10200  Biso   1.000  C
  H509     1.0000 0.36790  0.19350  0.09600  Biso   1.000  H
  C638     1.0000 0.44970  0.19563  0.12825  Biso   1.000  C
  H510     1.0000 0.46940  0.20300  0.14510  Biso   1.000  H
  N507     1.0000 0.53499  0.12900  0.03601  Biso   1.000  N
  N508     1.0000 0.58614  0.10458  0.00481  Biso   1.000  N
  N509     1.0000 0.45519  0.17174  0.09881  Biso   1.000  N
  N510     1.0000 0.41295  0.20823  0.13149  Biso   1.000  N
  C639     1.0000 0.48000  0.11290  0.00090  Biso   1.000  C
  H511     1.0000 0.46710  0.10610  0.97820  Biso   1.000  H
  C640     1.0000 0.40490  0.14080  0.05220  Biso   1.000  C
  H512     1.0000 0.37810  0.13820  0.05250  Biso   1.000  H
  N511     1.0000 0.46100  0.12480  0.03080  Biso   1.000  N
  N512     1.0000 0.42170  0.12040  0.02530  Biso   1.000  N
  C641     1.0000 0.96483  0.92679  0.12442  Biso   1.000  C
  H513     1.0000 0.94580  0.91050  0.13430  Biso   1.000  H
  C642     1.0000 0.01502  0.94635  0.09587  Biso   1.000  C
  H514     1.0000 0.03810  0.94700  0.08190  Biso   1.000  H
  C643     1.0000 0.99674  0.97779  0.11020  Biso   1.000  C
  C644     1.0000 0.01170  0.01650  0.10040  Biso   1.000  C
  H515     1.0000 0.03390  0.01650  0.08520  Biso   1.000  H
  C645     1.0000 0.95570  0.07870  0.14850  Biso   1.000  C
  H516     1.0000 0.97260  0.09970  0.14970  Biso   1.000  H
  N513     1.0000 0.99900  0.05060  0.10940  Biso   1.000  N
  N514     1.0000 0.96520  0.04720  0.13020  Biso   1.000  N
  C646     1.0000 0.91770  0.08042  0.16730  Biso   1.000  C
  C647     1.0000 0.89800  0.10600  0.19040  Biso   1.000  C
  H517     1.0000 0.90400  0.13210  0.19350  Biso   1.000  H
  C648     1.0000 0.87175  0.05030  0.19563  Biso   1.000  C
  H518     1.0000 0.85490  0.03060  0.20300  Biso   1.000  H
  N515     1.0000 0.96399  0.96501  0.12900  Biso   1.000  N
  N516     1.0000 0.99519  0.91386  0.10458  Biso   1.000  N
  N517     1.0000 0.90119  0.04481  0.17174  Biso   1.000  N
  N518     1.0000 0.86851  0.08705  0.20823  Biso   1.000  N
  C649     1.0000 0.99910  0.02000  0.11290  Biso   1.000  C
  H519     1.0000 0.02180  0.03290  0.10610  Biso   1.000  H
  C650     1.0000 0.94780  0.09510  0.14080  Biso   1.000  C
  H520     1.0000 0.94750  0.12190  0.13820  Biso   1.000  H
  N519     1.0000 0.96920  0.03900  0.12480  Biso   1.000  N
  N520     1.0000 0.97470  0.07830  0.12040  Biso   1.000  N
  C651     1.0000 0.46483  0.42679  0.62442  Biso   1.000  C
  H521     1.0000 0.44580  0.41050  0.63430  Biso   1.000  H
  C652     1.0000 0.51502  0.44635  0.59587  Biso   1.000  C
  H522     1.0000 0.53810  0.44700  0.58190  Biso   1.000  H
  C653     1.0000 0.49674  0.47779  0.61020  Biso   1.000  C
  C654     1.0000 0.51170  0.51650  0.60040  Biso   1.000  C
  H523     1.0000 0.53390  0.51650  0.58520  Biso   1.000  H
  C655     1.0000 0.45570  0.57870  0.64850  Biso   1.000  C
  H524     1.0000 0.47260  0.59970  0.64970  Biso   1.000  H
  N521     1.0000 0.49900  0.55060  0.60940  Biso   1.000  N
  N522     1.0000 0.46520  0.54720  0.63020  Biso   1.000  N
  C656     1.0000 0.41770  0.58042  0.66730  Biso   1.000  C
  C657     1.0000 0.39800  0.60600  0.69040  Biso   1.000  C
  H525     1.0000 0.40400  0.63210  0.69350  Biso   1.000  H
  C658     1.0000 0.37175  0.55030  0.69563  Biso   1.000  C
  H526     1.0000 0.35490  0.53060  0.70300  Biso   1.000  H
  N523     1.0000 0.46399  0.46501  0.62900  Biso   1.000  N
  N524     1.0000 0.49519  0.41386  0.60458  Biso   1.000  N
  N525     1.0000 0.40119  0.54481  0.67174  Biso   1.000  N
  N526     1.0000 0.36851  0.58705  0.70823  Biso   1.000  N
  C659     1.0000 0.49910  0.52000  0.61290  Biso   1.000  C
  H527     1.0000 0.52180  0.53290  0.60610  Biso   1.000  H
  C660     1.0000 0.44780  0.59510  0.64080  Biso   1.000  C
  H528     1.0000 0.44750  0.62190  0.63820  Biso   1.000  H
  N527     1.0000 0.46920  0.53900  0.62480  Biso   1.000  N
  N528     1.0000 0.47470  0.57830  0.62040  Biso   1.000  N
  C661     1.0000 0.03517  0.42679  0.37558  Biso   1.000  C
  H529     1.0000 0.05420  0.41050  0.36570  Biso   1.000  H
  C662     1.0000 0.98498  0.44635  0.40413  Biso   1.000  C
  H530     1.0000 0.96190  0.44700  0.41810  Biso   1.000  H
  C663     1.0000 0.00326  0.47779  0.38980  Biso   1.000  C
  C664     1.0000 0.98830  0.51650  0.39960  Biso   1.000  C
  H531     1.0000 0.96610  0.51650  0.41480  Biso   1.000  H
  C665     1.0000 0.04430  0.57870  0.35150  Biso   1.000  C
  H532     1.0000 0.02740  0.59970  0.35030  Biso   1.000  H
  N529     1.0000 0.00100  0.55060  0.39060  Biso   1.000  N
  N530     1.0000 0.03480  0.54720  0.36980  Biso   1.000  N
  C666     1.0000 0.08230  0.58042  0.33270  Biso   1.000  C
  C667     1.0000 0.10200  0.60600  0.30960  Biso   1.000  C
  H533     1.0000 0.09600  0.63210  0.30650  Biso   1.000  H
  C668     1.0000 0.12825  0.55030  0.30437  Biso   1.000  C
  H534     1.0000 0.14510  0.53060  0.29700  Biso   1.000  H
  N531     1.0000 0.03601  0.46501  0.37100  Biso   1.000  N
  N532     1.0000 0.00481  0.41386  0.39542  Biso   1.000  N
  N533     1.0000 0.09881  0.54481  0.32826  Biso   1.000  N
  N534     1.0000 0.13149  0.58705  0.29177  Biso   1.000  N
  C669     1.0000 0.00090  0.52000  0.38710  Biso   1.000  C
  H535     1.0000 0.97820  0.53290  0.39390  Biso   1.000  H
  C670     1.0000 0.05220  0.59510  0.35920  Biso   1.000  C
  H536     1.0000 0.05250  0.62190  0.36180  Biso   1.000  H
  N535     1.0000 0.03080  0.53900  0.37520  Biso   1.000  N
  N536     1.0000 0.02530  0.57830  0.37960  Biso   1.000  N
  C671     1.0000 0.53517  0.92679  0.87558  Biso   1.000  C
  H537     1.0000 0.55420  0.91050  0.86570  Biso   1.000  H
  C672     1.0000 0.48498  0.94635  0.90413  Biso   1.000  C
  H538     1.0000 0.46190  0.94700  0.91810  Biso   1.000  H
  C673     1.0000 0.50326  0.97779  0.88980  Biso   1.000  C
  C674     1.0000 0.48830  0.01650  0.89960  Biso   1.000  C
  H539     1.0000 0.46610  0.01650  0.91480  Biso   1.000  H
  C675     1.0000 0.54430  0.07870  0.85150  Biso   1.000  C
  H540     1.0000 0.52740  0.09970  0.85030  Biso   1.000  H
  N537     1.0000 0.50100  0.05060  0.89060  Biso   1.000  N
  N538     1.0000 0.53480  0.04720  0.86980  Biso   1.000  N
  C676     1.0000 0.58230  0.08042  0.83270  Biso   1.000  C
  C677     1.0000 0.60200  0.10600  0.80960  Biso   1.000  C
  H541     1.0000 0.59600  0.13210  0.80650  Biso   1.000  H
  C678     1.0000 0.62825  0.05030  0.80437  Biso   1.000  C
  H542     1.0000 0.64510  0.03060  0.79700  Biso   1.000  H
  N539     1.0000 0.53601  0.96501  0.87100  Biso   1.000  N
  N540     1.0000 0.50481  0.91386  0.89542  Biso   1.000  N
  N541     1.0000 0.59881  0.04481  0.82826  Biso   1.000  N
  N542     1.0000 0.63149  0.08705  0.79177  Biso   1.000  N
  C679     1.0000 0.50090  0.02000  0.88710  Biso   1.000  C
  H543     1.0000 0.47820  0.03290  0.89390  Biso   1.000  H
  C680     1.0000 0.55220  0.09510  0.85920  Biso   1.000  C
  H544     1.0000 0.55250  0.12190  0.86180  Biso   1.000  H
  N543     1.0000 0.53080  0.03900  0.87520  Biso   1.000  N
  N544     1.0000 0.52530  0.07830  0.87960  Biso   1.000  N
  C681     1.0000 0.46483  0.57321  0.87558  Biso   1.000  C
  H545     1.0000 0.44580  0.58950  0.86570  Biso   1.000  H
  C682     1.0000 0.51502  0.55365  0.90413  Biso   1.000  C
  H546     1.0000 0.53810  0.55300  0.91810  Biso   1.000  H
  C683     1.0000 0.49674  0.52221  0.88980  Biso   1.000  C
  C684     1.0000 0.51170  0.48350  0.89960  Biso   1.000  C
  H547     1.0000 0.53390  0.48350  0.91480  Biso   1.000  H
  C685     1.0000 0.45570  0.42130  0.85150  Biso   1.000  C
  H548     1.0000 0.47260  0.40030  0.85030  Biso   1.000  H
  N545     1.0000 0.49900  0.44940  0.89060  Biso   1.000  N
  N546     1.0000 0.46520  0.45280  0.86980  Biso   1.000  N
  C686     1.0000 0.41770  0.41958  0.83270  Biso   1.000  C
  C687     1.0000 0.39800  0.39400  0.80960  Biso   1.000  C
  H549     1.0000 0.40400  0.36790  0.80650  Biso   1.000  H
  C688     1.0000 0.37175  0.44970  0.80437  Biso   1.000  C
  H550     1.0000 0.35490  0.46940  0.79700  Biso   1.000  H
  N547     1.0000 0.46399  0.53499  0.87100  Biso   1.000  N
  N548     1.0000 0.49519  0.58614  0.89542  Biso   1.000  N
  N549     1.0000 0.40119  0.45519  0.82826  Biso   1.000  N
  N550     1.0000 0.36851  0.41295  0.79177  Biso   1.000  N
  C689     1.0000 0.49910  0.48000  0.88710  Biso   1.000  C
  H551     1.0000 0.52180  0.46710  0.89390  Biso   1.000  H
  C690     1.0000 0.44780  0.40490  0.85920  Biso   1.000  C
  H552     1.0000 0.44750  0.37810  0.86180  Biso   1.000  H
  N551     1.0000 0.46920  0.46100  0.87520  Biso   1.000  N
  N552     1.0000 0.47470  0.42170  0.87960  Biso   1.000  N
  C691     1.0000 0.96483  0.07321  0.37558  Biso   1.000  C
  H553     1.0000 0.94580  0.08950  0.36570  Biso   1.000  H
  C692     1.0000 0.01502  0.05365  0.40413  Biso   1.000  C
  H554     1.0000 0.03810  0.05300  0.41810  Biso   1.000  H
  C693     1.0000 0.99674  0.02221  0.38980  Biso   1.000  C
  C694     1.0000 0.01170  0.98350  0.39960  Biso   1.000  C
  H555     1.0000 0.03390  0.98350  0.41480  Biso   1.000  H
  C695     1.0000 0.95570  0.92130  0.35150  Biso   1.000  C
  H556     1.0000 0.97260  0.90030  0.35030  Biso   1.000  H
  N553     1.0000 0.99900  0.94940  0.39060  Biso   1.000  N
  N554     1.0000 0.96520  0.95280  0.36980  Biso   1.000  N
  C696     1.0000 0.91770  0.91958  0.33270  Biso   1.000  C
  C697     1.0000 0.89800  0.89400  0.30960  Biso   1.000  C
  H557     1.0000 0.90400  0.86790  0.30650  Biso   1.000  H
  C698     1.0000 0.87175  0.94970  0.30437  Biso   1.000  C
  H558     1.0000 0.85490  0.96940  0.29700  Biso   1.000  H
  N555     1.0000 0.96399  0.03499  0.37100  Biso   1.000  N
  N556     1.0000 0.99519  0.08614  0.39542  Biso   1.000  N
  N557     1.0000 0.90119  0.95519  0.32826  Biso   1.000  N
  N558     1.0000 0.86851  0.91295  0.29177  Biso   1.000  N
  C699     1.0000 0.99910  0.98000  0.38710  Biso   1.000  C
  H559     1.0000 0.02180  0.96710  0.39390  Biso   1.000  H
  C700     1.0000 0.94780  0.90490  0.35920  Biso   1.000  C
  H560     1.0000 0.94750  0.87810  0.36180  Biso   1.000  H
  N559     1.0000 0.96920  0.96100  0.37520  Biso   1.000  N
  N560     1.0000 0.97470  0.92170  0.37960  Biso   1.000  N
  C701     1.0000 0.53517  0.07321  0.62442  Biso   1.000  C
  H561     1.0000 0.55420  0.08950  0.63430  Biso   1.000  H
  C702     1.0000 0.48498  0.05365  0.59587  Biso   1.000  C
  H562     1.0000 0.46190  0.05300  0.58190  Biso   1.000  H
  C703     1.0000 0.50326  0.02221  0.61020  Biso   1.000  C
  C704     1.0000 0.48830  0.98350  0.60040  Biso   1.000  C
  H563     1.0000 0.46610  0.98350  0.58520  Biso   1.000  H
  C705     1.0000 0.54430  0.92130  0.64850  Biso   1.000  C
  H564     1.0000 0.52740  0.90030  0.64970  Biso   1.000  H
  N561     1.0000 0.50100  0.94940  0.60940  Biso   1.000  N
  N562     1.0000 0.53480  0.95280  0.63020  Biso   1.000  N
  C706     1.0000 0.58230  0.91958  0.66730  Biso   1.000  C
  C707     1.0000 0.60200  0.89400  0.69040  Biso   1.000  C
  H565     1.0000 0.59600  0.86790  0.69350  Biso   1.000  H
  C708     1.0000 0.62825  0.94970  0.69563  Biso   1.000  C
  H566     1.0000 0.64510  0.96940  0.70300  Biso   1.000  H
  N563     1.0000 0.53601  0.03499  0.62900  Biso   1.000  N
  N564     1.0000 0.50481  0.08614  0.60458  Biso   1.000  N
  N565     1.0000 0.59881  0.95519  0.67174  Biso   1.000  N
  N566     1.0000 0.63149  0.91295  0.70823  Biso   1.000  N
  C709     1.0000 0.50090  0.98000  0.61290  Biso   1.000  C
  H567     1.0000 0.47820  0.96710  0.60610  Biso   1.000  H
  C710     1.0000 0.55220  0.90490  0.64080  Biso   1.000  C
  H568     1.0000 0.55250  0.87810  0.63820  Biso   1.000  H
  N567     1.0000 0.53080  0.96100  0.62480  Biso   1.000  N
  N568     1.0000 0.52530  0.92170  0.62040  Biso   1.000  N
  C711     1.0000 0.03517  0.57321  0.12442  Biso   1.000  C
  H569     1.0000 0.05420  0.58950  0.13430  Biso   1.000  H
  C712     1.0000 0.98498  0.55365  0.09587  Biso   1.000  C
  H570     1.0000 0.96190  0.55300  0.08190  Biso   1.000  H
  C713     1.0000 0.00326  0.52221  0.11020  Biso   1.000  C
  C714     1.0000 0.98830  0.48350  0.10040  Biso   1.000  C
  H571     1.0000 0.96610  0.48350  0.08520  Biso   1.000  H
  C715     1.0000 0.04430  0.42130  0.14850  Biso   1.000  C
  H572     1.0000 0.02740  0.40030  0.14970  Biso   1.000  H
  N569     1.0000 0.00100  0.44940  0.10940  Biso   1.000  N
  N570     1.0000 0.03480  0.45280  0.13020  Biso   1.000  N
  C716     1.0000 0.08230  0.41958  0.16730  Biso   1.000  C
  C717     1.0000 0.10200  0.39400  0.19040  Biso   1.000  C
  H573     1.0000 0.09600  0.36790  0.19350  Biso   1.000  H
  C718     1.0000 0.12825  0.44970  0.19563  Biso   1.000  C
  H574     1.0000 0.14510  0.46940  0.20300  Biso   1.000  H
  N571     1.0000 0.03601  0.53499  0.12900  Biso   1.000  N
  N572     1.0000 0.00481  0.58614  0.10458  Biso   1.000  N
  N573     1.0000 0.09881  0.45519  0.17174  Biso   1.000  N
  N574     1.0000 0.13149  0.41295  0.20823  Biso   1.000  N
  C719     1.0000 0.00090  0.48000  0.11290  Biso   1.000  C
  H575     1.0000 0.97820  0.46710  0.10610  Biso   1.000  H
  C720     1.0000 0.05220  0.40490  0.14080  Biso   1.000  C
  H576     1.0000 0.05250  0.37810  0.13820  Biso   1.000  H
  N575     1.0000 0.03080  0.46100  0.12480  Biso   1.000  N
  N576     1.0000 0.02530  0.42170  0.12040  Biso   1.000  N
  C721     1.0000 0.21483  0.87442  0.82321  Biso   1.000  C
  H577     1.0000 0.19580  0.88430  0.83950  Biso   1.000  H
  C722     1.0000 0.26502  0.84587  0.80365  Biso   1.000  C
  H578     1.0000 0.28810  0.83190  0.80300  Biso   1.000  H
  C723     1.0000 0.24674  0.86020  0.77221  Biso   1.000  C
  C724     1.0000 0.26170  0.85040  0.73350  Biso   1.000  C
  H579     1.0000 0.28390  0.83520  0.73350  Biso   1.000  H
  C725     1.0000 0.20570  0.89850  0.67130  Biso   1.000  C
  H580     1.0000 0.22260  0.89970  0.65030  Biso   1.000  H
  N577     1.0000 0.24900  0.85940  0.69940  Biso   1.000  N
  N578     1.0000 0.21520  0.88020  0.70280  Biso   1.000  N
  C726     1.0000 0.16770  0.91730  0.66958  Biso   1.000  C
  C727     1.0000 0.14800  0.94040  0.64400  Biso   1.000  C
  H581     1.0000 0.15400  0.94350  0.61790  Biso   1.000  H
  C728     1.0000 0.12175  0.94563  0.69970  Biso   1.000  C
  H582     1.0000 0.10490  0.95300  0.71940  Biso   1.000  H
  N579     1.0000 0.21399  0.87900  0.78499  Biso   1.000  N
  N580     1.0000 0.24519  0.85458  0.83614  Biso   1.000  N
  N581     1.0000 0.15119  0.92174  0.70519  Biso   1.000  N
  N582     1.0000 0.11851  0.95823  0.66295  Biso   1.000  N
  C729     1.0000 0.24910  0.86290  0.73000  Biso   1.000  C
  H583     1.0000 0.27180  0.85610  0.71710  Biso   1.000  H
  C730     1.0000 0.19780  0.89080  0.65490  Biso   1.000  C
  H584     1.0000 0.19750  0.88820  0.62810  Biso   1.000  H
  N583     1.0000 0.21920  0.87480  0.71100  Biso   1.000  N
  N584     1.0000 0.22470  0.87040  0.67170  Biso   1.000  N
  C731     1.0000 0.71483  0.37442  0.32321  Biso   1.000  C
  H585     1.0000 0.69580  0.38430  0.33950  Biso   1.000  H
  C732     1.0000 0.76502  0.34587  0.30365  Biso   1.000  C
  H586     1.0000 0.78810  0.33190  0.30300  Biso   1.000  H
  C733     1.0000 0.74674  0.36020  0.27221  Biso   1.000  C
  C734     1.0000 0.76170  0.35040  0.23350  Biso   1.000  C
  H587     1.0000 0.78390  0.33520  0.23350  Biso   1.000  H
  C735     1.0000 0.70570  0.39850  0.17130  Biso   1.000  C
  H588     1.0000 0.72260  0.39970  0.15030  Biso   1.000  H
  N585     1.0000 0.74900  0.35940  0.19940  Biso   1.000  N
  N586     1.0000 0.71520  0.38020  0.20280  Biso   1.000  N
  C736     1.0000 0.66770  0.41730  0.16958  Biso   1.000  C
  C737     1.0000 0.64800  0.44040  0.14400  Biso   1.000  C
  H589     1.0000 0.65400  0.44350  0.11790  Biso   1.000  H
  C738     1.0000 0.62175  0.44563  0.19970  Biso   1.000  C
  H590     1.0000 0.60490  0.45300  0.21940  Biso   1.000  H
  N587     1.0000 0.71399  0.37900  0.28499  Biso   1.000  N
  N588     1.0000 0.74519  0.35458  0.33614  Biso   1.000  N
  N589     1.0000 0.65119  0.42174  0.20519  Biso   1.000  N
  N590     1.0000 0.61851  0.45823  0.16295  Biso   1.000  N
  C739     1.0000 0.74910  0.36290  0.23000  Biso   1.000  C
  H591     1.0000 0.77180  0.35610  0.21710  Biso   1.000  H
  C740     1.0000 0.69780  0.39080  0.15490  Biso   1.000  C
  H592     1.0000 0.69750  0.38820  0.12810  Biso   1.000  H
  N591     1.0000 0.71920  0.37480  0.21100  Biso   1.000  N
  N592     1.0000 0.72470  0.37040  0.17170  Biso   1.000  N
  C741     1.0000 0.28517  0.12558  0.32321  Biso   1.000  C
  H593     1.0000 0.30420  0.11570  0.33950  Biso   1.000  H
  C742     1.0000 0.23498  0.15413  0.30365  Biso   1.000  C
  H594     1.0000 0.21190  0.16810  0.30300  Biso   1.000  H
  C743     1.0000 0.25326  0.13980  0.27221  Biso   1.000  C
  C744     1.0000 0.23830  0.14960  0.23350  Biso   1.000  C
  H595     1.0000 0.21610  0.16480  0.23350  Biso   1.000  H
  C745     1.0000 0.29430  0.10150  0.17130  Biso   1.000  C
  H596     1.0000 0.27740  0.10030  0.15030  Biso   1.000  H
  N593     1.0000 0.25100  0.14060  0.19940  Biso   1.000  N
  N594     1.0000 0.28480  0.11980  0.20280  Biso   1.000  N
  C746     1.0000 0.33230  0.08270  0.16958  Biso   1.000  C
  C747     1.0000 0.35200  0.05960  0.14400  Biso   1.000  C
  H597     1.0000 0.34600  0.05650  0.11790  Biso   1.000  H
  C748     1.0000 0.37825  0.05437  0.19970  Biso   1.000  C
  H598     1.0000 0.39510  0.04700  0.21940  Biso   1.000  H
  N595     1.0000 0.28601  0.12100  0.28499  Biso   1.000  N
  N596     1.0000 0.25481  0.14542  0.33614  Biso   1.000  N
  N597     1.0000 0.34881  0.07826  0.20519  Biso   1.000  N
  N598     1.0000 0.38149  0.04177  0.16295  Biso   1.000  N
  C749     1.0000 0.25090  0.13710  0.23000  Biso   1.000  C
  H599     1.0000 0.22820  0.14390  0.21710  Biso   1.000  H
  C750     1.0000 0.30220  0.10920  0.15490  Biso   1.000  C
  H600     1.0000 0.30250  0.11180  0.12810  Biso   1.000  H
  N599     1.0000 0.28080  0.12520  0.21100  Biso   1.000  N
  N600     1.0000 0.27530  0.12960  0.17170  Biso   1.000  N
  C751     1.0000 0.78517  0.62558  0.82321  Biso   1.000  C
  H601     1.0000 0.80420  0.61570  0.83950  Biso   1.000  H
  C752     1.0000 0.73498  0.65413  0.80365  Biso   1.000  C
  H602     1.0000 0.71190  0.66810  0.80300  Biso   1.000  H
  C753     1.0000 0.75326  0.63980  0.77221  Biso   1.000  C
  C754     1.0000 0.73830  0.64960  0.73350  Biso   1.000  C
  H603     1.0000 0.71610  0.66480  0.73350  Biso   1.000  H
  C755     1.0000 0.79430  0.60150  0.67130  Biso   1.000  C
  H604     1.0000 0.77740  0.60030  0.65030  Biso   1.000  H
  N601     1.0000 0.75100  0.64060  0.69940  Biso   1.000  N
  N602     1.0000 0.78480  0.61980  0.70280  Biso   1.000  N
  C756     1.0000 0.83230  0.58270  0.66958  Biso   1.000  C
  C757     1.0000 0.85200  0.55960  0.64400  Biso   1.000  C
  H605     1.0000 0.84600  0.55650  0.61790  Biso   1.000  H
  C758     1.0000 0.87825  0.55437  0.69970  Biso   1.000  C
  H606     1.0000 0.89510  0.54700  0.71940  Biso   1.000  H
  N603     1.0000 0.78601  0.62100  0.78499  Biso   1.000  N
  N604     1.0000 0.75481  0.64542  0.83614  Biso   1.000  N
  N605     1.0000 0.84881  0.57826  0.70519  Biso   1.000  N
  N606     1.0000 0.88149  0.54177  0.66295  Biso   1.000  N
  C759     1.0000 0.75090  0.63710  0.73000  Biso   1.000  C
  H607     1.0000 0.72820  0.64390  0.71710  Biso   1.000  H
  C760     1.0000 0.80220  0.60920  0.65490  Biso   1.000  C
  H608     1.0000 0.80250  0.61180  0.62810  Biso   1.000  H
  N607     1.0000 0.78080  0.62520  0.71100  Biso   1.000  N
  N608     1.0000 0.77530  0.62960  0.67170  Biso   1.000  N
  C761     1.0000 0.71483  0.62558  0.17679  Biso   1.000  C
  H609     1.0000 0.69580  0.61570  0.16050  Biso   1.000  H
  C762     1.0000 0.76502  0.65413  0.19635  Biso   1.000  C
  H610     1.0000 0.78810  0.66810  0.19700  Biso   1.000  H
  C763     1.0000 0.74674  0.63980  0.22779  Biso   1.000  C
  C764     1.0000 0.76170  0.64960  0.26650  Biso   1.000  C
  H611     1.0000 0.78390  0.66480  0.26650  Biso   1.000  H
  C765     1.0000 0.70570  0.60150  0.32870  Biso   1.000  C
  H612     1.0000 0.72260  0.60030  0.34970  Biso   1.000  H
  N609     1.0000 0.74900  0.64060  0.30060  Biso   1.000  N
  N610     1.0000 0.71520  0.61980  0.29720  Biso   1.000  N
  C766     1.0000 0.66770  0.58270  0.33042  Biso   1.000  C
  C767     1.0000 0.64800  0.55960  0.35600  Biso   1.000  C
  H613     1.0000 0.65400  0.55650  0.38210  Biso   1.000  H
  C768     1.0000 0.62175  0.55437  0.30030  Biso   1.000  C
  H614     1.0000 0.60490  0.54700  0.28060  Biso   1.000  H
  N611     1.0000 0.71399  0.62100  0.21501  Biso   1.000  N
  N612     1.0000 0.74519  0.64542  0.16386  Biso   1.000  N
  N613     1.0000 0.65119  0.57826  0.29481  Biso   1.000  N
  N614     1.0000 0.61851  0.54177  0.33705  Biso   1.000  N
  C769     1.0000 0.74910  0.63710  0.27000  Biso   1.000  C
  H615     1.0000 0.77180  0.64390  0.28290  Biso   1.000  H
  C770     1.0000 0.69780  0.60920  0.34510  Biso   1.000  C
  H616     1.0000 0.69750  0.61180  0.37190  Biso   1.000  H
  N615     1.0000 0.71920  0.62520  0.28900  Biso   1.000  N
  N616     1.0000 0.72470  0.62960  0.32830  Biso   1.000  N
  C771     1.0000 0.21483  0.12558  0.67679  Biso   1.000  C
  H617     1.0000 0.19580  0.11570  0.66050  Biso   1.000  H
  C772     1.0000 0.26502  0.15413  0.69635  Biso   1.000  C
  H618     1.0000 0.28810  0.16810  0.69700  Biso   1.000  H
  C773     1.0000 0.24674  0.13980  0.72779  Biso   1.000  C
  C774     1.0000 0.26170  0.14960  0.76650  Biso   1.000  C
  H619     1.0000 0.28390  0.16480  0.76650  Biso   1.000  H
  C775     1.0000 0.20570  0.10150  0.82870  Biso   1.000  C
  H620     1.0000 0.22260  0.10030  0.84970  Biso   1.000  H
  N617     1.0000 0.24900  0.14060  0.80060  Biso   1.000  N
  N618     1.0000 0.21520  0.11980  0.79720  Biso   1.000  N
  C776     1.0000 0.16770  0.08270  0.83042  Biso   1.000  C
  C777     1.0000 0.14800  0.05960  0.85600  Biso   1.000  C
  H621     1.0000 0.15400  0.05650  0.88210  Biso   1.000  H
  C778     1.0000 0.12175  0.05437  0.80030  Biso   1.000  C
  H622     1.0000 0.10490  0.04700  0.78060  Biso   1.000  H
  N619     1.0000 0.21399  0.12100  0.71501  Biso   1.000  N
  N620     1.0000 0.24519  0.14542  0.66386  Biso   1.000  N
  N621     1.0000 0.15119  0.07826  0.79481  Biso   1.000  N
  N622     1.0000 0.11851  0.04177  0.83705  Biso   1.000  N
  C779     1.0000 0.24910  0.13710  0.77000  Biso   1.000  C
  H623     1.0000 0.27180  0.14390  0.78290  Biso   1.000  H
  C780     1.0000 0.19780  0.10920  0.84510  Biso   1.000  C
  H624     1.0000 0.19750  0.11180  0.87190  Biso   1.000  H
  N623     1.0000 0.21920  0.12520  0.78900  Biso   1.000  N
  N624     1.0000 0.22470  0.12960  0.82830  Biso   1.000  N
  C781     1.0000 0.78517  0.37442  0.67679  Biso   1.000  C
  H625     1.0000 0.80420  0.38430  0.66050  Biso   1.000  H
  C782     1.0000 0.73498  0.34587  0.69635  Biso   1.000  C
  H626     1.0000 0.71190  0.33190  0.69700  Biso   1.000  H
  C783     1.0000 0.75326  0.36020  0.72779  Biso   1.000  C
  C784     1.0000 0.73830  0.35040  0.76650  Biso   1.000  C
  H627     1.0000 0.71610  0.33520  0.76650  Biso   1.000  H
  C785     1.0000 0.79430  0.39850  0.82870  Biso   1.000  C
  H628     1.0000 0.77740  0.39970  0.84970  Biso   1.000  H
  N625     1.0000 0.75100  0.35940  0.80060  Biso   1.000  N
  N626     1.0000 0.78480  0.38020  0.79720  Biso   1.000  N
  C786     1.0000 0.83230  0.41730  0.83042  Biso   1.000  C
  C787     1.0000 0.85200  0.44040  0.85600  Biso   1.000  C
  H629     1.0000 0.84600  0.44350  0.88210  Biso   1.000  H
  C788     1.0000 0.87825  0.44563  0.80030  Biso   1.000  C
  H630     1.0000 0.89510  0.45300  0.78060  Biso   1.000  H
  N627     1.0000 0.78601  0.37900  0.71501  Biso   1.000  N
  N628     1.0000 0.75481  0.35458  0.66386  Biso   1.000  N
  N629     1.0000 0.84881  0.42174  0.79481  Biso   1.000  N
  N630     1.0000 0.88149  0.45823  0.83705  Biso   1.000  N
  C789     1.0000 0.75090  0.36290  0.77000  Biso   1.000  C
  H631     1.0000 0.72820  0.35610  0.78290  Biso   1.000  H
  C790     1.0000 0.80220  0.39080  0.84510  Biso   1.000  C
  H632     1.0000 0.80250  0.38820  0.87190  Biso   1.000  H
  N631     1.0000 0.78080  0.37480  0.78900  Biso   1.000  N
  N632     1.0000 0.77530  0.37040  0.82830  Biso   1.000  N
  C791     1.0000 0.28517  0.87442  0.17679  Biso   1.000  C
  H633     1.0000 0.30420  0.88430  0.16050  Biso   1.000  H
  C792     1.0000 0.23498  0.84587  0.19635  Biso   1.000  C
  H634     1.0000 0.21190  0.83190  0.19700  Biso   1.000  H
  C793     1.0000 0.25326  0.86020  0.22779  Biso   1.000  C
  C794     1.0000 0.23830  0.85040  0.26650  Biso   1.000  C
  H635     1.0000 0.21610  0.83520  0.26650  Biso   1.000  H
  C795     1.0000 0.29430  0.89850  0.32870  Biso   1.000  C
  H636     1.0000 0.27740  0.89970  0.34970  Biso   1.000  H
  N633     1.0000 0.25100  0.85940  0.30060  Biso   1.000  N
  N634     1.0000 0.28480  0.88020  0.29720  Biso   1.000  N
  C796     1.0000 0.33230  0.91730  0.33042  Biso   1.000  C
  C797     1.0000 0.35200  0.94040  0.35600  Biso   1.000  C
  H637     1.0000 0.34600  0.94350  0.38210  Biso   1.000  H
  C798     1.0000 0.37825  0.94563  0.30030  Biso   1.000  C
  H638     1.0000 0.39510  0.95300  0.28060  Biso   1.000  H
  N635     1.0000 0.28601  0.87900  0.21501  Biso   1.000  N
  N636     1.0000 0.25481  0.85458  0.16386  Biso   1.000  N
  N637     1.0000 0.34881  0.92174  0.29481  Biso   1.000  N
  N638     1.0000 0.38149  0.95823  0.33705  Biso   1.000  N
  C799     1.0000 0.25090  0.86290  0.27000  Biso   1.000  C
  H639     1.0000 0.22820  0.85610  0.28290  Biso   1.000  H
  C800     1.0000 0.30220  0.89080  0.34510  Biso   1.000  C
  H640     1.0000 0.30250  0.88820  0.37190  Biso   1.000  H
  N639     1.0000 0.28080  0.87480  0.28900  Biso   1.000  N
  N640     1.0000 0.27530  0.87040  0.32830  Biso   1.000  N
  C801     1.0000 0.37442  0.67679  0.78517  Biso   1.000  C
  H641     1.0000 0.38430  0.66050  0.80420  Biso   1.000  H
  C802     1.0000 0.34587  0.69635  0.73498  Biso   1.000  C
  H642     1.0000 0.33190  0.69700  0.71190  Biso   1.000  H
  C803     1.0000 0.36020  0.72779  0.75326  Biso   1.000  C
  C804     1.0000 0.35040  0.76650  0.73830  Biso   1.000  C
  H643     1.0000 0.33520  0.76650  0.71610  Biso   1.000  H
  C805     1.0000 0.39850  0.82870  0.79430  Biso   1.000  C
  H644     1.0000 0.39970  0.84970  0.77740  Biso   1.000  H
  N641     1.0000 0.35940  0.80060  0.75100  Biso   1.000  N
  N642     1.0000 0.38020  0.79720  0.78480  Biso   1.000  N
  C806     1.0000 0.41730  0.83042  0.83230  Biso   1.000  C
  C807     1.0000 0.44040  0.85600  0.85200  Biso   1.000  C
  H645     1.0000 0.44350  0.88210  0.84600  Biso   1.000  H
  C808     1.0000 0.44563  0.80030  0.87825  Biso   1.000  C
  H646     1.0000 0.45300  0.78060  0.89510  Biso   1.000  H
  N643     1.0000 0.37900  0.71501  0.78601  Biso   1.000  N
  N644     1.0000 0.35458  0.66386  0.75481  Biso   1.000  N
  N645     1.0000 0.42174  0.79481  0.84881  Biso   1.000  N
  N646     1.0000 0.45823  0.83705  0.88149  Biso   1.000  N
  C809     1.0000 0.36290  0.77000  0.75090  Biso   1.000  C
  H647     1.0000 0.35610  0.78290  0.72820  Biso   1.000  H
  C810     1.0000 0.39080  0.84510  0.80220  Biso   1.000  C
  H648     1.0000 0.38820  0.87190  0.80250  Biso   1.000  H
  N647     1.0000 0.37480  0.78900  0.78080  Biso   1.000  N
  N648     1.0000 0.37040  0.82830  0.77530  Biso   1.000  N
  C811     1.0000 0.87442  0.17679  0.28517  Biso   1.000  C
  H649     1.0000 0.88430  0.16050  0.30420  Biso   1.000  H
  C812     1.0000 0.84587  0.19635  0.23498  Biso   1.000  C
  H650     1.0000 0.83190  0.19700  0.21190  Biso   1.000  H
  C813     1.0000 0.86020  0.22779  0.25326  Biso   1.000  C
  C814     1.0000 0.85040  0.26650  0.23830  Biso   1.000  C
  H651     1.0000 0.83520  0.26650  0.21610  Biso   1.000  H
  C815     1.0000 0.89850  0.32870  0.29430  Biso   1.000  C
  H652     1.0000 0.89970  0.34970  0.27740  Biso   1.000  H
  N649     1.0000 0.85940  0.30060  0.25100  Biso   1.000  N
  N650     1.0000 0.88020  0.29720  0.28480  Biso   1.000  N
  C816     1.0000 0.91730  0.33042  0.33230  Biso   1.000  C
  C817     1.0000 0.94040  0.35600  0.35200  Biso   1.000  C
  H653     1.0000 0.94350  0.38210  0.34600  Biso   1.000  H
  C818     1.0000 0.94563  0.30030  0.37825  Biso   1.000  C
  H654     1.0000 0.95300  0.28060  0.39510  Biso   1.000  H
  N651     1.0000 0.87900  0.21501  0.28601  Biso   1.000  N
  N652     1.0000 0.85458  0.16386  0.25481  Biso   1.000  N
  N653     1.0000 0.92174  0.29481  0.34881  Biso   1.000  N
  N654     1.0000 0.95823  0.33705  0.38149  Biso   1.000  N
  C819     1.0000 0.86290  0.27000  0.25090  Biso   1.000  C
  H655     1.0000 0.85610  0.28290  0.22820  Biso   1.000  H
  C820     1.0000 0.89080  0.34510  0.30220  Biso   1.000  C
  H656     1.0000 0.88820  0.37190  0.30250  Biso   1.000  H
  N655     1.0000 0.87480  0.28900  0.28080  Biso   1.000  N
  N656     1.0000 0.87040  0.32830  0.27530  Biso   1.000  N
  C821     1.0000 0.62558  0.17679  0.71483  Biso   1.000  C
  H657     1.0000 0.61570  0.16050  0.69580  Biso   1.000  H
  C822     1.0000 0.65413  0.19635  0.76502  Biso   1.000  C
  H658     1.0000 0.66810  0.19700  0.78810  Biso   1.000  H
  C823     1.0000 0.63980  0.22779  0.74674  Biso   1.000  C
  C824     1.0000 0.64960  0.26650  0.76170  Biso   1.000  C
  H659     1.0000 0.66480  0.26650  0.78390  Biso   1.000  H
  C825     1.0000 0.60150  0.32870  0.70570  Biso   1.000  C
  H660     1.0000 0.60030  0.34970  0.72260  Biso   1.000  H
  N657     1.0000 0.64060  0.30060  0.74900  Biso   1.000  N
  N658     1.0000 0.61980  0.29720  0.71520  Biso   1.000  N
  C826     1.0000 0.58270  0.33042  0.66770  Biso   1.000  C
  C827     1.0000 0.55960  0.35600  0.64800  Biso   1.000  C
  H661     1.0000 0.55650  0.38210  0.65400  Biso   1.000  H
  C828     1.0000 0.55437  0.30030  0.62175  Biso   1.000  C
  H662     1.0000 0.54700  0.28060  0.60490  Biso   1.000  H
  N659     1.0000 0.62100  0.21501  0.71399  Biso   1.000  N
  N660     1.0000 0.64542  0.16386  0.74519  Biso   1.000  N
  N661     1.0000 0.57826  0.29481  0.65119  Biso   1.000  N
  N662     1.0000 0.54177  0.33705  0.61851  Biso   1.000  N
  C829     1.0000 0.63710  0.27000  0.74910  Biso   1.000  C
  H663     1.0000 0.64390  0.28290  0.77180  Biso   1.000  H
  C830     1.0000 0.60920  0.34510  0.69780  Biso   1.000  C
  H664     1.0000 0.61180  0.37190  0.69750  Biso   1.000  H
  N663     1.0000 0.62520  0.28900  0.71920  Biso   1.000  N
  N664     1.0000 0.62960  0.32830  0.72470  Biso   1.000  N
  C831     1.0000 0.12558  0.67679  0.21483  Biso   1.000  C
  H665     1.0000 0.11570  0.66050  0.19580  Biso   1.000  H
  C832     1.0000 0.15413  0.69635  0.26502  Biso   1.000  C
  H666     1.0000 0.16810  0.69700  0.28810  Biso   1.000  H
  C833     1.0000 0.13980  0.72779  0.24674  Biso   1.000  C
  C834     1.0000 0.14960  0.76650  0.26170  Biso   1.000  C
  H667     1.0000 0.16480  0.76650  0.28390  Biso   1.000  H
  C835     1.0000 0.10150  0.82870  0.20570  Biso   1.000  C
  H668     1.0000 0.10030  0.84970  0.22260  Biso   1.000  H
  N665     1.0000 0.14060  0.80060  0.24900  Biso   1.000  N
  N666     1.0000 0.11980  0.79720  0.21520  Biso   1.000  N
  C836     1.0000 0.08270  0.83042  0.16770  Biso   1.000  C
  C837     1.0000 0.05960  0.85600  0.14800  Biso   1.000  C
  H669     1.0000 0.05650  0.88210  0.15400  Biso   1.000  H
  C838     1.0000 0.05437  0.80030  0.12175  Biso   1.000  C
  H670     1.0000 0.04700  0.78060  0.10490  Biso   1.000  H
  N667     1.0000 0.12100  0.71501  0.21399  Biso   1.000  N
  N668     1.0000 0.14542  0.66386  0.24519  Biso   1.000  N
  N669     1.0000 0.07826  0.79481  0.15119  Biso   1.000  N
  N670     1.0000 0.04177  0.83705  0.11851  Biso   1.000  N
  C839     1.0000 0.13710  0.77000  0.24910  Biso   1.000  C
  H671     1.0000 0.14390  0.78290  0.27180  Biso   1.000  H
  C840     1.0000 0.10920  0.84510  0.19780  Biso   1.000  C
  H672     1.0000 0.11180  0.87190  0.19750  Biso   1.000  H
  N671     1.0000 0.12520  0.78900  0.21920  Biso   1.000  N
  N672     1.0000 0.12960  0.82830  0.22470  Biso   1.000  N
  C841     1.0000 0.12558  0.32321  0.28517  Biso   1.000  C
  H673     1.0000 0.11570  0.33950  0.30420  Biso   1.000  H
  C842     1.0000 0.15413  0.30365  0.23498  Biso   1.000  C
  H674     1.0000 0.16810  0.30300  0.21190  Biso   1.000  H
  C843     1.0000 0.13980  0.27221  0.25326  Biso   1.000  C
  C844     1.0000 0.14960  0.23350  0.23830  Biso   1.000  C
  H675     1.0000 0.16480  0.23350  0.21610  Biso   1.000  H
  C845     1.0000 0.10150  0.17130  0.29430  Biso   1.000  C
  H676     1.0000 0.10030  0.15030  0.27740  Biso   1.000  H
  N673     1.0000 0.14060  0.19940  0.25100  Biso   1.000  N
  N674     1.0000 0.11980  0.20280  0.28480  Biso   1.000  N
  C846     1.0000 0.08270  0.16958  0.33230  Biso   1.000  C
  C847     1.0000 0.05960  0.14400  0.35200  Biso   1.000  C
  H677     1.0000 0.05650  0.11790  0.34600  Biso   1.000  H
  C848     1.0000 0.05437  0.19970  0.37825  Biso   1.000  C
  H678     1.0000 0.04700  0.21940  0.39510  Biso   1.000  H
  N675     1.0000 0.12100  0.28499  0.28601  Biso   1.000  N
  N676     1.0000 0.14542  0.33614  0.25481  Biso   1.000  N
  N677     1.0000 0.07826  0.20519  0.34881  Biso   1.000  N
  N678     1.0000 0.04177  0.16295  0.38149  Biso   1.000  N
  C849     1.0000 0.13710  0.23000  0.25090  Biso   1.000  C
  H679     1.0000 0.14390  0.21710  0.22820  Biso   1.000  H
  C850     1.0000 0.10920  0.15490  0.30220  Biso   1.000  C
  H680     1.0000 0.11180  0.12810  0.30250  Biso   1.000  H
  N679     1.0000 0.12520  0.21100  0.28080  Biso   1.000  N
  N680     1.0000 0.12960  0.17170  0.27530  Biso   1.000  N
  C851     1.0000 0.62558  0.82321  0.78517  Biso   1.000  C
  H681     1.0000 0.61570  0.83950  0.80420  Biso   1.000  H
  C852     1.0000 0.65413  0.80365  0.73498  Biso   1.000  C
  H682     1.0000 0.66810  0.80300  0.71190  Biso   1.000  H
  C853     1.0000 0.63980  0.77221  0.75326  Biso   1.000  C
  C854     1.0000 0.64960  0.73350  0.73830  Biso   1.000  C
  H683     1.0000 0.66480  0.73350  0.71610  Biso   1.000  H
  C855     1.0000 0.60150  0.67130  0.79430  Biso   1.000  C
  H684     1.0000 0.60030  0.65030  0.77740  Biso   1.000  H
  N681     1.0000 0.64060  0.69940  0.75100  Biso   1.000  N
  N682     1.0000 0.61980  0.70280  0.78480  Biso   1.000  N
  C856     1.0000 0.58270  0.66958  0.83230  Biso   1.000  C
  C857     1.0000 0.55960  0.64400  0.85200  Biso   1.000  C
  H685     1.0000 0.55650  0.61790  0.84600  Biso   1.000  H
  C858     1.0000 0.55437  0.69970  0.87825  Biso   1.000  C
  H686     1.0000 0.54700  0.71940  0.89510  Biso   1.000  H
  N683     1.0000 0.62100  0.78499  0.78601  Biso   1.000  N
  N684     1.0000 0.64542  0.83614  0.75481  Biso   1.000  N
  N685     1.0000 0.57826  0.70519  0.84881  Biso   1.000  N
  N686     1.0000 0.54177  0.66295  0.88149  Biso   1.000  N
  C859     1.0000 0.63710  0.73000  0.75090  Biso   1.000  C
  H687     1.0000 0.64390  0.71710  0.72820  Biso   1.000  H
  C860     1.0000 0.60920  0.65490  0.80220  Biso   1.000  C
  H688     1.0000 0.61180  0.62810  0.80250  Biso   1.000  H
  N687     1.0000 0.62520  0.71100  0.78080  Biso   1.000  N
  N688     1.0000 0.62960  0.67170  0.77530  Biso   1.000  N
  C861     1.0000 0.87442  0.82321  0.21483  Biso   1.000  C
  H689     1.0000 0.88430  0.83950  0.19580  Biso   1.000  H
  C862     1.0000 0.84587  0.80365  0.26502  Biso   1.000  C
  H690     1.0000 0.83190  0.80300  0.28810  Biso   1.000  H
  C863     1.0000 0.86020  0.77221  0.24674  Biso   1.000  C
  C864     1.0000 0.85040  0.73350  0.26170  Biso   1.000  C
  H691     1.0000 0.83520  0.73350  0.28390  Biso   1.000  H
  C865     1.0000 0.89850  0.67130  0.20570  Biso   1.000  C
  H692     1.0000 0.89970  0.65030  0.22260  Biso   1.000  H
  N689     1.0000 0.85940  0.69940  0.24900  Biso   1.000  N
  N690     1.0000 0.88020  0.70280  0.21520  Biso   1.000  N
  C866     1.0000 0.91730  0.66958  0.16770  Biso   1.000  C
  C867     1.0000 0.94040  0.64400  0.14800  Biso   1.000  C
  H693     1.0000 0.94350  0.61790  0.15400  Biso   1.000  H
  C868     1.0000 0.94563  0.69970  0.12175  Biso   1.000  C
  H694     1.0000 0.95300  0.71940  0.10490  Biso   1.000  H
  N691     1.0000 0.87900  0.78499  0.21399  Biso   1.000  N
  N692     1.0000 0.85458  0.83614  0.24519  Biso   1.000  N
  N693     1.0000 0.92174  0.70519  0.15119  Biso   1.000  N
  N694     1.0000 0.95823  0.66295  0.11851  Biso   1.000  N
  C869     1.0000 0.86290  0.73000  0.24910  Biso   1.000  C
  H695     1.0000 0.85610  0.71710  0.27180  Biso   1.000  H
  C870     1.0000 0.89080  0.65490  0.19780  Biso   1.000  C
  H696     1.0000 0.88820  0.62810  0.19750  Biso   1.000  H
  N695     1.0000 0.87480  0.71100  0.21920  Biso   1.000  N
  N696     1.0000 0.87040  0.67170  0.22470  Biso   1.000  N
  C871     1.0000 0.37442  0.32321  0.71483  Biso   1.000  C
  H697     1.0000 0.38430  0.33950  0.69580  Biso   1.000  H
  C872     1.0000 0.34587  0.30365  0.76502  Biso   1.000  C
  H698     1.0000 0.33190  0.30300  0.78810  Biso   1.000  H
  C873     1.0000 0.36020  0.27221  0.74674  Biso   1.000  C
  C874     1.0000 0.35040  0.23350  0.76170  Biso   1.000  C
  H699     1.0000 0.33520  0.23350  0.78390  Biso   1.000  H
  C875     1.0000 0.39850  0.17130  0.70570  Biso   1.000  C
  H700     1.0000 0.39970  0.15030  0.72260  Biso   1.000  H
  N697     1.0000 0.35940  0.19940  0.74900  Biso   1.000  N
  N698     1.0000 0.38020  0.20280  0.71520  Biso   1.000  N
  C876     1.0000 0.41730  0.16958  0.66770  Biso   1.000  C
  C877     1.0000 0.44040  0.14400  0.64800  Biso   1.000  C
  H701     1.0000 0.44350  0.11790  0.65400  Biso   1.000  H
  C878     1.0000 0.44563  0.19970  0.62175  Biso   1.000  C
  H702     1.0000 0.45300  0.21940  0.60490  Biso   1.000  H
  N699     1.0000 0.37900  0.28499  0.71399  Biso   1.000  N
  N700     1.0000 0.35458  0.33614  0.74519  Biso   1.000  N
  N701     1.0000 0.42174  0.20519  0.65119  Biso   1.000  N
  N702     1.0000 0.45823  0.16295  0.61851  Biso   1.000  N
  C879     1.0000 0.36290  0.23000  0.74910  Biso   1.000  C
  H703     1.0000 0.35610  0.21710  0.77180  Biso   1.000  H
  C880     1.0000 0.39080  0.15490  0.69780  Biso   1.000  C
  H704     1.0000 0.38820  0.12810  0.69750  Biso   1.000  H
  N703     1.0000 0.37480  0.21100  0.71920  Biso   1.000  N
  N704     1.0000 0.37040  0.17170  0.72470  Biso   1.000  N
  C881     1.0000 0.17679  0.71483  0.62558  Biso   1.000  C
  H705     1.0000 0.16050  0.69580  0.61570  Biso   1.000  H
  C882     1.0000 0.19635  0.76502  0.65413  Biso   1.000  C
  H706     1.0000 0.19700  0.78810  0.66810  Biso   1.000  H
  C883     1.0000 0.22779  0.74674  0.63980  Biso   1.000  C
  C884     1.0000 0.26650  0.76170  0.64960  Biso   1.000  C
  H707     1.0000 0.26650  0.78390  0.66480  Biso   1.000  H
  C885     1.0000 0.32870  0.70570  0.60150  Biso   1.000  C
  H708     1.0000 0.34970  0.72260  0.60030  Biso   1.000  H
  N705     1.0000 0.30060  0.74900  0.64060  Biso   1.000  N
  N706     1.0000 0.29720  0.71520  0.61980  Biso   1.000  N
  C886     1.0000 0.33042  0.66770  0.58270  Biso   1.000  C
  C887     1.0000 0.35600  0.64800  0.55960  Biso   1.000  C
  H709     1.0000 0.38210  0.65400  0.55650  Biso   1.000  H
  C888     1.0000 0.30030  0.62175  0.55437  Biso   1.000  C
  H710     1.0000 0.28060  0.60490  0.54700  Biso   1.000  H
  N707     1.0000 0.21501  0.71399  0.62100  Biso   1.000  N
  N708     1.0000 0.16386  0.74519  0.64542  Biso   1.000  N
  N709     1.0000 0.29481  0.65119  0.57826  Biso   1.000  N
  N710     1.0000 0.33705  0.61851  0.54177  Biso   1.000  N
  C889     1.0000 0.27000  0.74910  0.63710  Biso   1.000  C
  H711     1.0000 0.28290  0.77180  0.64390  Biso   1.000  H
  C890     1.0000 0.34510  0.69780  0.60920  Biso   1.000  C
  H712     1.0000 0.37190  0.69750  0.61180  Biso   1.000  H
  N711     1.0000 0.28900  0.71920  0.62520  Biso   1.000  N
  N712     1.0000 0.32830  0.72470  0.62960  Biso   1.000  N
  C891     1.0000 0.67679  0.21483  0.12558  Biso   1.000  C
  H713     1.0000 0.66050  0.19580  0.11570  Biso   1.000  H
  C892     1.0000 0.69635  0.26502  0.15413  Biso   1.000  C
  H714     1.0000 0.69700  0.28810  0.16810  Biso   1.000  H
  C893     1.0000 0.72779  0.24674  0.13980  Biso   1.000  C
  C894     1.0000 0.76650  0.26170  0.14960  Biso   1.000  C
  H715     1.0000 0.76650  0.28390  0.16480  Biso   1.000  H
  C895     1.0000 0.82870  0.20570  0.10150  Biso   1.000  C
  H716     1.0000 0.84970  0.22260  0.10030  Biso   1.000  H
  N713     1.0000 0.80060  0.24900  0.14060  Biso   1.000  N
  N714     1.0000 0.79720  0.21520  0.11980  Biso   1.000  N
  C896     1.0000 0.83042  0.16770  0.08270  Biso   1.000  C
  C897     1.0000 0.85600  0.14800  0.05960  Biso   1.000  C
  H717     1.0000 0.88210  0.15400  0.05650  Biso   1.000  H
  C898     1.0000 0.80030  0.12175  0.05437  Biso   1.000  C
  H718     1.0000 0.78060  0.10490  0.04700  Biso   1.000  H
  N715     1.0000 0.71501  0.21399  0.12100  Biso   1.000  N
  N716     1.0000 0.66386  0.24519  0.14542  Biso   1.000  N
  N717     1.0000 0.79481  0.15119  0.07826  Biso   1.000  N
  N718     1.0000 0.83705  0.11851  0.04177  Biso   1.000  N
  C899     1.0000 0.77000  0.24910  0.13710  Biso   1.000  C
  H719     1.0000 0.78290  0.27180  0.14390  Biso   1.000  H
  C900     1.0000 0.84510  0.19780  0.10920  Biso   1.000  C
  H720     1.0000 0.87190  0.19750  0.11180  Biso   1.000  H
  N719     1.0000 0.78900  0.21920  0.12520  Biso   1.000  N
  N720     1.0000 0.82830  0.22470  0.12960  Biso   1.000  N
  C901     1.0000 0.67679  0.78517  0.37442  Biso   1.000  C
  H721     1.0000 0.66050  0.80420  0.38430  Biso   1.000  H
  C902     1.0000 0.69635  0.73498  0.34587  Biso   1.000  C
  H722     1.0000 0.69700  0.71190  0.33190  Biso   1.000  H
  C903     1.0000 0.72779  0.75326  0.36020  Biso   1.000  C
  C904     1.0000 0.76650  0.73830  0.35040  Biso   1.000  C
  H723     1.0000 0.76650  0.71610  0.33520  Biso   1.000  H
  C905     1.0000 0.82870  0.79430  0.39850  Biso   1.000  C
  H724     1.0000 0.84970  0.77740  0.39970  Biso   1.000  H
  N721     1.0000 0.80060  0.75100  0.35940  Biso   1.000  N
  N722     1.0000 0.79720  0.78480  0.38020  Biso   1.000  N
  C906     1.0000 0.83042  0.83230  0.41730  Biso   1.000  C
  C907     1.0000 0.85600  0.85200  0.44040  Biso   1.000  C
  H725     1.0000 0.88210  0.84600  0.44350  Biso   1.000  H
  C908     1.0000 0.80030  0.87825  0.44563  Biso   1.000  C
  H726     1.0000 0.78060  0.89510  0.45300  Biso   1.000  H
  N723     1.0000 0.71501  0.78601  0.37900  Biso   1.000  N
  N724     1.0000 0.66386  0.75481  0.35458  Biso   1.000  N
  N725     1.0000 0.79481  0.84881  0.42174  Biso   1.000  N
  N726     1.0000 0.83705  0.88149  0.45823  Biso   1.000  N
  C909     1.0000 0.77000  0.75090  0.36290  Biso   1.000  C
  H727     1.0000 0.78290  0.72820  0.35610  Biso   1.000  H
  C910     1.0000 0.84510  0.80220  0.39080  Biso   1.000  C
  H728     1.0000 0.87190  0.80250  0.38820  Biso   1.000  H
  N727     1.0000 0.78900  0.78080  0.37480  Biso   1.000  N
  N728     1.0000 0.82830  0.77530  0.37040  Biso   1.000  N
  C911     1.0000 0.17679  0.28517  0.87442  Biso   1.000  C
  H729     1.0000 0.16050  0.30420  0.88430  Biso   1.000  H
  C912     1.0000 0.19635  0.23498  0.84587  Biso   1.000  C
  H730     1.0000 0.19700  0.21190  0.83190  Biso   1.000  H
  C913     1.0000 0.22779  0.25326  0.86020  Biso   1.000  C
  C914     1.0000 0.26650  0.23830  0.85040  Biso   1.000  C
  H731     1.0000 0.26650  0.21610  0.83520  Biso   1.000  H
  C915     1.0000 0.32870  0.29430  0.89850  Biso   1.000  C
  H732     1.0000 0.34970  0.27740  0.89970  Biso   1.000  H
  N729     1.0000 0.30060  0.25100  0.85940  Biso   1.000  N
  N730     1.0000 0.29720  0.28480  0.88020  Biso   1.000  N
  C916     1.0000 0.33042  0.33230  0.91730  Biso   1.000  C
  C917     1.0000 0.35600  0.35200  0.94040  Biso   1.000  C
  H733     1.0000 0.38210  0.34600  0.94350  Biso   1.000  H
  C918     1.0000 0.30030  0.37825  0.94563  Biso   1.000  C
  H734     1.0000 0.28060  0.39510  0.95300  Biso   1.000  H
  N731     1.0000 0.21501  0.28601  0.87900  Biso   1.000  N
  N732     1.0000 0.16386  0.25481  0.85458  Biso   1.000  N
  N733     1.0000 0.29481  0.34881  0.92174  Biso   1.000  N
  N734     1.0000 0.33705  0.38149  0.95823  Biso   1.000  N
  C919     1.0000 0.27000  0.25090  0.86290  Biso   1.000  C
  H735     1.0000 0.28290  0.22820  0.85610  Biso   1.000  H
  C920     1.0000 0.34510  0.30220  0.89080  Biso   1.000  C
  H736     1.0000 0.37190  0.30250  0.88820  Biso   1.000  H
  N735     1.0000 0.28900  0.28080  0.87480  Biso   1.000  N
  N736     1.0000 0.32830  0.27530  0.87040  Biso   1.000  N
  C921     1.0000 0.82321  0.21483  0.87442  Biso   1.000  C
  H737     1.0000 0.83950  0.19580  0.88430  Biso   1.000  H
  C922     1.0000 0.80365  0.26502  0.84587  Biso   1.000  C
  H738     1.0000 0.80300  0.28810  0.83190  Biso   1.000  H
  C923     1.0000 0.77221  0.24674  0.86020  Biso   1.000  C
  C924     1.0000 0.73350  0.26170  0.85040  Biso   1.000  C
  H739     1.0000 0.73350  0.28390  0.83520  Biso   1.000  H
  C925     1.0000 0.67130  0.20570  0.89850  Biso   1.000  C
  H740     1.0000 0.65030  0.22260  0.89970  Biso   1.000  H
  N737     1.0000 0.69940  0.24900  0.85940  Biso   1.000  N
  N738     1.0000 0.70280  0.21520  0.88020  Biso   1.000  N
  C926     1.0000 0.66958  0.16770  0.91730  Biso   1.000  C
  C927     1.0000 0.64400  0.14800  0.94040  Biso   1.000  C
  H741     1.0000 0.61790  0.15400  0.94350  Biso   1.000  H
  C928     1.0000 0.69970  0.12175  0.94563  Biso   1.000  C
  H742     1.0000 0.71940  0.10490  0.95300  Biso   1.000  H
  N739     1.0000 0.78499  0.21399  0.87900  Biso   1.000  N
  N740     1.0000 0.83614  0.24519  0.85458  Biso   1.000  N
  N741     1.0000 0.70519  0.15119  0.92174  Biso   1.000  N
  N742     1.0000 0.66295  0.11851  0.95823  Biso   1.000  N
  C929     1.0000 0.73000  0.24910  0.86290  Biso   1.000  C
  H743     1.0000 0.71710  0.27180  0.85610  Biso   1.000  H
  C930     1.0000 0.65490  0.19780  0.89080  Biso   1.000  C
  H744     1.0000 0.62810  0.19750  0.88820  Biso   1.000  H
  N743     1.0000 0.71100  0.21920  0.87480  Biso   1.000  N
  N744     1.0000 0.67170  0.22470  0.87040  Biso   1.000  N
  C931     1.0000 0.32321  0.71483  0.37442  Biso   1.000  C
  H745     1.0000 0.33950  0.69580  0.38430  Biso   1.000  H
  C932     1.0000 0.30365  0.76502  0.34587  Biso   1.000  C
  H746     1.0000 0.30300  0.78810  0.33190  Biso   1.000  H
  C933     1.0000 0.27221  0.74674  0.36020  Biso   1.000  C
  C934     1.0000 0.23350  0.76170  0.35040  Biso   1.000  C
  H747     1.0000 0.23350  0.78390  0.33520  Biso   1.000  H
  C935     1.0000 0.17130  0.70570  0.39850  Biso   1.000  C
  H748     1.0000 0.15030  0.72260  0.39970  Biso   1.000  H
  N745     1.0000 0.19940  0.74900  0.35940  Biso   1.000  N
  N746     1.0000 0.20280  0.71520  0.38020  Biso   1.000  N
  C936     1.0000 0.16958  0.66770  0.41730  Biso   1.000  C
  C937     1.0000 0.14400  0.64800  0.44040  Biso   1.000  C
  H749     1.0000 0.11790  0.65400  0.44350  Biso   1.000  H
  C938     1.0000 0.19970  0.62175  0.44563  Biso   1.000  C
  H750     1.0000 0.21940  0.60490  0.45300  Biso   1.000  H
  N747     1.0000 0.28499  0.71399  0.37900  Biso   1.000  N
  N748     1.0000 0.33614  0.74519  0.35458  Biso   1.000  N
  N749     1.0000 0.20519  0.65119  0.42174  Biso   1.000  N
  N750     1.0000 0.16295  0.61851  0.45823  Biso   1.000  N
  C939     1.0000 0.23000  0.74910  0.36290  Biso   1.000  C
  H751     1.0000 0.21710  0.77180  0.35610  Biso   1.000  H
  C940     1.0000 0.15490  0.69780  0.39080  Biso   1.000  C
  H752     1.0000 0.12810  0.69750  0.38820  Biso   1.000  H
  N751     1.0000 0.21100  0.71920  0.37480  Biso   1.000  N
  N752     1.0000 0.17170  0.72470  0.37040  Biso   1.000  N
  C941     1.0000 0.32321  0.28517  0.12558  Biso   1.000  C
  H753     1.0000 0.33950  0.30420  0.11570  Biso   1.000  H
  C942     1.0000 0.30365  0.23498  0.15413  Biso   1.000  C
  H754     1.0000 0.30300  0.21190  0.16810  Biso   1.000  H
  C943     1.0000 0.27221  0.25326  0.13980  Biso   1.000  C
  C944     1.0000 0.23350  0.23830  0.14960  Biso   1.000  C
  H755     1.0000 0.23350  0.21610  0.16480  Biso   1.000  H
  C945     1.0000 0.17130  0.29430  0.10150  Biso   1.000  C
  H756     1.0000 0.15030  0.27740  0.10030  Biso   1.000  H
  N753     1.0000 0.19940  0.25100  0.14060  Biso   1.000  N
  N754     1.0000 0.20280  0.28480  0.11980  Biso   1.000  N
  C946     1.0000 0.16958  0.33230  0.08270  Biso   1.000  C
  C947     1.0000 0.14400  0.35200  0.05960  Biso   1.000  C
  H757     1.0000 0.11790  0.34600  0.05650  Biso   1.000  H
  C948     1.0000 0.19970  0.37825  0.05437  Biso   1.000  C
  H758     1.0000 0.21940  0.39510  0.04700  Biso   1.000  H
  N755     1.0000 0.28499  0.28601  0.12100  Biso   1.000  N
  N756     1.0000 0.33614  0.25481  0.14542  Biso   1.000  N
  N757     1.0000 0.20519  0.34881  0.07826  Biso   1.000  N
  N758     1.0000 0.16295  0.38149  0.04177  Biso   1.000  N
  C949     1.0000 0.23000  0.25090  0.13710  Biso   1.000  C
  H759     1.0000 0.21710  0.22820  0.14390  Biso   1.000  H
  C950     1.0000 0.15490  0.30220  0.10920  Biso   1.000  C
  H760     1.0000 0.12810  0.30250  0.11180  Biso   1.000  H
  N759     1.0000 0.21100  0.28080  0.12520  Biso   1.000  N
  N760     1.0000 0.17170  0.27530  0.12960  Biso   1.000  N
  C951     1.0000 0.82321  0.78517  0.62558  Biso   1.000  C
  H761     1.0000 0.83950  0.80420  0.61570  Biso   1.000  H
  C952     1.0000 0.80365  0.73498  0.65413  Biso   1.000  C
  H762     1.0000 0.80300  0.71190  0.66810  Biso   1.000  H
  C953     1.0000 0.77221  0.75326  0.63980  Biso   1.000  C
  C954     1.0000 0.73350  0.73830  0.64960  Biso   1.000  C
  H763     1.0000 0.73350  0.71610  0.66480  Biso   1.000  H
  C955     1.0000 0.67130  0.79430  0.60150  Biso   1.000  C
  H764     1.0000 0.65030  0.77740  0.60030  Biso   1.000  H
  N761     1.0000 0.69940  0.75100  0.64060  Biso   1.000  N
  N762     1.0000 0.70280  0.78480  0.61980  Biso   1.000  N
  C956     1.0000 0.66958  0.83230  0.58270  Biso   1.000  C
  C957     1.0000 0.64400  0.85200  0.55960  Biso   1.000  C
  H765     1.0000 0.61790  0.84600  0.55650  Biso   1.000  H
  C958     1.0000 0.69970  0.87825  0.55437  Biso   1.000  C
  H766     1.0000 0.71940  0.89510  0.54700  Biso   1.000  H
  N763     1.0000 0.78499  0.78601  0.62100  Biso   1.000  N
  N764     1.0000 0.83614  0.75481  0.64542  Biso   1.000  N
  N765     1.0000 0.70519  0.84881  0.57826  Biso   1.000  N
  N766     1.0000 0.66295  0.88149  0.54177  Biso   1.000  N
  C959     1.0000 0.73000  0.75090  0.63710  Biso   1.000  C
  H767     1.0000 0.71710  0.72820  0.64390  Biso   1.000  H
  C960     1.0000 0.65490  0.80220  0.60920  Biso   1.000  C
  H768     1.0000 0.62810  0.80250  0.61180  Biso   1.000  H
  N767     1.0000 0.71100  0.78080  0.62520  Biso   1.000  N
  N768     1.0000 0.67170  0.77530  0.62960  Biso   1.000  N
