data_image0
_cell_length_a       18.6567
_cell_length_b       18.6567
_cell_length_c       38.6198
_cell_angle_alpha    90
_cell_angle_beta     90
_cell_angle_gamma    120

_symmetry_space_group_name_H-M    "P 1"
_symmetry_int_tables_number       1

loop_
  _symmetry_equiv_pos_as_xyz
  'x, y, z'

loop_
  _atom_site_label
  _atom_site_occupancy
  _atom_site_fract_x
  _atom_site_fract_y
  _atom_site_fract_z
  _atom_site_thermal_displace_type
  _atom_site_B_iso_or_equiv
  _atom_site_type_symbol
  O1       1.0000 0.48150  0.37194  0.99683  Biso   1.000  O
  O2       1.0000 0.44210  0.41130  0.04405  Biso   1.000  O
  O3       1.0000 0.44950  0.31650  0.14560  Biso   1.000  O
  C1       1.0000 0.45340  0.36100  0.02718  Biso   1.000  C
  C2       1.0000 0.43210  0.28000  0.04422  Biso   1.000  C
  C3       1.0000 0.40160  0.26480  0.07808  Biso   1.000  C
  H1       1.0000 0.39070  0.30250  0.08920  Biso   1.000  H
  C4       1.0000 0.40520  0.25310  0.15550  Biso   1.000  C
  C5       1.0000 0.38700  0.24010  0.19060  Biso   1.000  C
  H2       1.0000 0.41710  0.28380  0.20700  Biso   1.000  H
  C6       1.0000 0.49700  0.39340  0.16910  Biso   1.000  C
  H3       1.0000 0.54360  0.39340  0.18060  Biso   1.000  H
  H4       1.0000 0.46140  0.39690  0.18630  Biso   1.000  H
  H5       1.0000 0.41190  0.28830  0.14650  Biso   1.000  H
  H6       1.0000 0.38590  0.26540  0.20610  Biso   1.000  H
  C7       1.0000 0.37420  0.23350  0.15480  Biso   1.000  C
  C8       1.0000 0.31080  0.11170  0.14360  Biso   1.000  C
  O4       1.0000 0.14817  0.70527  0.33016  Biso   1.000  O
  O5       1.0000 0.10877  0.74463  0.37738  Biso   1.000  O
  O6       1.0000 0.11617  0.64983  0.47893  Biso   1.000  O
  C9       1.0000 0.12007  0.69433  0.36051  Biso   1.000  C
  C10      1.0000 0.09877  0.61333  0.37755  Biso   1.000  C
  C11      1.0000 0.06827  0.59813  0.41141  Biso   1.000  C
  H7       1.0000 0.05737  0.63583  0.42253  Biso   1.000  H
  C12      1.0000 0.07187  0.58643  0.48883  Biso   1.000  C
  C13      1.0000 0.05367  0.57343  0.52393  Biso   1.000  C
  H8       1.0000 0.08377  0.61713  0.54033  Biso   1.000  H
  C14      1.0000 0.16367  0.72673  0.50243  Biso   1.000  C
  H9       1.0000 0.21027  0.72673  0.51393  Biso   1.000  H
  H10      1.0000 0.12807  0.73023  0.51963  Biso   1.000  H
  H11      1.0000 0.07857  0.62163  0.47983  Biso   1.000  H
  H12      1.0000 0.05257  0.59873  0.53943  Biso   1.000  H
  C15      1.0000 0.04087  0.56683  0.48813  Biso   1.000  C
  C16      1.0000 0.97747  0.44503  0.47693  Biso   1.000  C
  O7       1.0000 0.81483  0.03861  0.66350  Biso   1.000  O
  O8       1.0000 0.77543  0.07797  0.71072  Biso   1.000  O
  O9       1.0000 0.78283  0.98317  0.81227  Biso   1.000  O
  C17      1.0000 0.78673  0.02767  0.69385  Biso   1.000  C
  C18      1.0000 0.76543  0.94667  0.71089  Biso   1.000  C
  C19      1.0000 0.73493  0.93147  0.74475  Biso   1.000  C
  H13      1.0000 0.72403  0.96917  0.75587  Biso   1.000  H
  C20      1.0000 0.73853  0.91977  0.82217  Biso   1.000  C
  C21      1.0000 0.72033  0.90677  0.85727  Biso   1.000  C
  H14      1.0000 0.75043  0.95047  0.87367  Biso   1.000  H
  C22      1.0000 0.83033  0.06007  0.83577  Biso   1.000  C
  H15      1.0000 0.87693  0.06007  0.84727  Biso   1.000  H
  H16      1.0000 0.79473  0.06357  0.85297  Biso   1.000  H
  H17      1.0000 0.74523  0.95497  0.81317  Biso   1.000  H
  H18      1.0000 0.71923  0.93207  0.87277  Biso   1.000  H
  C23      1.0000 0.70753  0.90017  0.82147  Biso   1.000  C
  C24      1.0000 0.64413  0.77837  0.81027  Biso   1.000  C
  O10      1.0000 0.62806  0.10956  0.99683  Biso   1.000  O
  O11      1.0000 0.58870  0.03080  0.04405  Biso   1.000  O
  O12      1.0000 0.68350  0.13300  0.14560  Biso   1.000  O
  C25      1.0000 0.63900  0.09240  0.02718  Biso   1.000  C
  C26      1.0000 0.72000  0.15210  0.04422  Biso   1.000  C
  C27      1.0000 0.73520  0.13680  0.07808  Biso   1.000  C
  H19      1.0000 0.69750  0.08820  0.08920  Biso   1.000  H
  C28      1.0000 0.74690  0.15210  0.15550  Biso   1.000  C
  C29      1.0000 0.75990  0.14690  0.19060  Biso   1.000  C
  H20      1.0000 0.71620  0.13330  0.20700  Biso   1.000  H
  C30      1.0000 0.60660  0.10360  0.16910  Biso   1.000  C
  H21      1.0000 0.60660  0.15020  0.18060  Biso   1.000  H
  H22      1.0000 0.60310  0.06450  0.18630  Biso   1.000  H
  H23      1.0000 0.71170  0.12360  0.14650  Biso   1.000  H
  H24      1.0000 0.73460  0.12050  0.20610  Biso   1.000  H
  C31      1.0000 0.76650  0.14070  0.15480  Biso   1.000  C
  C32      1.0000 0.88830  0.19910  0.14360  Biso   1.000  C
  O13      1.0000 0.29473  0.44289  0.33016  Biso   1.000  O
  O14      1.0000 0.25537  0.36413  0.37738  Biso   1.000  O
  O15      1.0000 0.35017  0.46633  0.47893  Biso   1.000  O
  C33      1.0000 0.30567  0.42573  0.36051  Biso   1.000  C
  C34      1.0000 0.38667  0.48543  0.37755  Biso   1.000  C
  C35      1.0000 0.40187  0.47013  0.41141  Biso   1.000  C
  H25      1.0000 0.36417  0.42153  0.42253  Biso   1.000  H
  C36      1.0000 0.41357  0.48543  0.48883  Biso   1.000  C
  C37      1.0000 0.42657  0.48023  0.52393  Biso   1.000  C
  H26      1.0000 0.38287  0.46663  0.54033  Biso   1.000  H
  C38      1.0000 0.27327  0.43693  0.50243  Biso   1.000  C
  H27      1.0000 0.27327  0.48353  0.51393  Biso   1.000  H
  H28      1.0000 0.26977  0.39783  0.51963  Biso   1.000  H
  H29      1.0000 0.37837  0.45693  0.47983  Biso   1.000  H
  H30      1.0000 0.40127  0.45383  0.53943  Biso   1.000  H
  C39      1.0000 0.43317  0.47403  0.48813  Biso   1.000  C
  C40      1.0000 0.55497  0.53243  0.47693  Biso   1.000  C
  O16      1.0000 0.96139  0.77623  0.66350  Biso   1.000  O
  O17      1.0000 0.92203  0.69747  0.71072  Biso   1.000  O
  O18      1.0000 0.01683  0.79967  0.81227  Biso   1.000  O
  C41      1.0000 0.97233  0.75907  0.69385  Biso   1.000  C
  C42      1.0000 0.05333  0.81877  0.71089  Biso   1.000  C
  C43      1.0000 0.06853  0.80347  0.74475  Biso   1.000  C
  H31      1.0000 0.03083  0.75487  0.75587  Biso   1.000  H
  C44      1.0000 0.08023  0.81877  0.82217  Biso   1.000  C
  C45      1.0000 0.09323  0.81357  0.85727  Biso   1.000  C
  H32      1.0000 0.04953  0.79997  0.87367  Biso   1.000  H
  C46      1.0000 0.93993  0.77027  0.83577  Biso   1.000  C
  H33      1.0000 0.93993  0.81687  0.84727  Biso   1.000  H
  H34      1.0000 0.93643  0.73117  0.85297  Biso   1.000  H
  H35      1.0000 0.04503  0.79027  0.81317  Biso   1.000  H
  H36      1.0000 0.06793  0.78717  0.87277  Biso   1.000  H
  C47      1.0000 0.09983  0.80737  0.82147  Biso   1.000  C
  C48      1.0000 0.22163  0.86577  0.81027  Biso   1.000  C
  O19      1.0000 0.89044  0.51850  0.99683  Biso   1.000  O
  O20      1.0000 0.96920  0.55790  0.04405  Biso   1.000  O
  O21      1.0000 0.86700  0.55050  0.14560  Biso   1.000  O
  C49      1.0000 0.90760  0.54660  0.02718  Biso   1.000  C
  C50      1.0000 0.84790  0.56790  0.04422  Biso   1.000  C
  C51      1.0000 0.86320  0.59840  0.07808  Biso   1.000  C
  H37      1.0000 0.91180  0.60930  0.08920  Biso   1.000  H
  C52      1.0000 0.84790  0.59480  0.15550  Biso   1.000  C
  C53      1.0000 0.85310  0.61300  0.19060  Biso   1.000  C
  H38      1.0000 0.86670  0.58290  0.20700  Biso   1.000  H
  C54      1.0000 0.89640  0.50300  0.16910  Biso   1.000  C
  H39      1.0000 0.84980  0.45640  0.18060  Biso   1.000  H
  H40      1.0000 0.93550  0.53860  0.18630  Biso   1.000  H
  H41      1.0000 0.87640  0.58810  0.14650  Biso   1.000  H
  H42      1.0000 0.87950  0.61410  0.20610  Biso   1.000  H
  C55      1.0000 0.85930  0.62580  0.15480  Biso   1.000  C
  C56      1.0000 0.80090  0.68920  0.14360  Biso   1.000  C
  O22      1.0000 0.55711  0.85183  0.33016  Biso   1.000  O
  O23      1.0000 0.63587  0.89123  0.37738  Biso   1.000  O
  O24      1.0000 0.53367  0.88383  0.47893  Biso   1.000  O
  C57      1.0000 0.57427  0.87993  0.36051  Biso   1.000  C
  C58      1.0000 0.51457  0.90123  0.37755  Biso   1.000  C
  C59      1.0000 0.52987  0.93173  0.41141  Biso   1.000  C
  H43      1.0000 0.57847  0.94263  0.42253  Biso   1.000  H
  C60      1.0000 0.51457  0.92813  0.48883  Biso   1.000  C
  C61      1.0000 0.51977  0.94633  0.52393  Biso   1.000  C
  H44      1.0000 0.53337  0.91623  0.54033  Biso   1.000  H
  C62      1.0000 0.56307  0.83633  0.50243  Biso   1.000  C
  H45      1.0000 0.51647  0.78973  0.51393  Biso   1.000  H
  H46      1.0000 0.60217  0.87193  0.51963  Biso   1.000  H
  H47      1.0000 0.54307  0.92143  0.47983  Biso   1.000  H
  H48      1.0000 0.54617  0.94743  0.53943  Biso   1.000  H
  C63      1.0000 0.52597  0.95913  0.48813  Biso   1.000  C
  C64      1.0000 0.46757  0.02253  0.47693  Biso   1.000  C
  O25      1.0000 0.22377  0.18517  0.66350  Biso   1.000  O
  O26      1.0000 0.30253  0.22457  0.71072  Biso   1.000  O
  O27      1.0000 0.20033  0.21717  0.81227  Biso   1.000  O
  C65      1.0000 0.24093  0.21327  0.69385  Biso   1.000  C
  C66      1.0000 0.18123  0.23457  0.71089  Biso   1.000  C
  C67      1.0000 0.19653  0.26507  0.74475  Biso   1.000  C
  H49      1.0000 0.24513  0.27597  0.75587  Biso   1.000  H
  C68      1.0000 0.18123  0.26147  0.82217  Biso   1.000  C
  C69      1.0000 0.18643  0.27967  0.85727  Biso   1.000  C
  H50      1.0000 0.20003  0.24957  0.87367  Biso   1.000  H
  C70      1.0000 0.22973  0.16967  0.83577  Biso   1.000  C
  H51      1.0000 0.18313  0.12307  0.84727  Biso   1.000  H
  H52      1.0000 0.26883  0.20527  0.85297  Biso   1.000  H
  H53      1.0000 0.20973  0.25477  0.81317  Biso   1.000  H
  H54      1.0000 0.21283  0.28077  0.87277  Biso   1.000  H
  C71      1.0000 0.19263  0.29247  0.82147  Biso   1.000  C
  C72      1.0000 0.13423  0.35587  0.81027  Biso   1.000  C
  O28      1.0000 0.37194  0.48150  0.00317  Biso   1.000  O
  O29      1.0000 0.41130  0.44210  0.95595  Biso   1.000  O
  O30      1.0000 0.31650  0.44950  0.85440  Biso   1.000  O
  C73      1.0000 0.36100  0.45340  0.97282  Biso   1.000  C
  C74      1.0000 0.28000  0.43210  0.95578  Biso   1.000  C
  C75      1.0000 0.26480  0.40160  0.92192  Biso   1.000  C
  H55      1.0000 0.30250  0.39070  0.91080  Biso   1.000  H
  C76      1.0000 0.25310  0.40520  0.84450  Biso   1.000  C
  C77      1.0000 0.24010  0.38700  0.80940  Biso   1.000  C
  H56      1.0000 0.28380  0.41710  0.79300  Biso   1.000  H
  C78      1.0000 0.39340  0.49700  0.83090  Biso   1.000  C
  H57      1.0000 0.39340  0.54360  0.81940  Biso   1.000  H
  H58      1.0000 0.39690  0.46140  0.81370  Biso   1.000  H
  H59      1.0000 0.28830  0.41190  0.85350  Biso   1.000  H
  H60      1.0000 0.26540  0.38590  0.79390  Biso   1.000  H
  C79      1.0000 0.23350  0.37420  0.84520  Biso   1.000  C
  C80      1.0000 0.11170  0.31080  0.85640  Biso   1.000  C
  O31      1.0000 0.03861  0.81483  0.33650  Biso   1.000  O
  O32      1.0000 0.07797  0.77543  0.28928  Biso   1.000  O
  O33      1.0000 0.98317  0.78283  0.18773  Biso   1.000  O
  C81      1.0000 0.02767  0.78673  0.30615  Biso   1.000  C
  C82      1.0000 0.94667  0.76543  0.28911  Biso   1.000  C
  C83      1.0000 0.93147  0.73493  0.25525  Biso   1.000  C
  H61      1.0000 0.96917  0.72403  0.24413  Biso   1.000  H
  C84      1.0000 0.91977  0.73853  0.17783  Biso   1.000  C
  C85      1.0000 0.90677  0.72033  0.14273  Biso   1.000  C
  H62      1.0000 0.95047  0.75043  0.12633  Biso   1.000  H
  C86      1.0000 0.06007  0.83033  0.16423  Biso   1.000  C
  H63      1.0000 0.06007  0.87693  0.15273  Biso   1.000  H
  H64      1.0000 0.06357  0.79473  0.14703  Biso   1.000  H
  H65      1.0000 0.95497  0.74523  0.18683  Biso   1.000  H
  H66      1.0000 0.93207  0.71923  0.12723  Biso   1.000  H
  C87      1.0000 0.90017  0.70753  0.17853  Biso   1.000  C
  C88      1.0000 0.77837  0.64413  0.18973  Biso   1.000  C
  O34      1.0000 0.70527  0.14817  0.66984  Biso   1.000  O
  O35      1.0000 0.74463  0.10877  0.62262  Biso   1.000  O
  O36      1.0000 0.64983  0.11617  0.52107  Biso   1.000  O
  C89      1.0000 0.69433  0.12007  0.63949  Biso   1.000  C
  C90      1.0000 0.61333  0.09877  0.62245  Biso   1.000  C
  C91      1.0000 0.59813  0.06827  0.58859  Biso   1.000  C
  H67      1.0000 0.63583  0.05737  0.57747  Biso   1.000  H
  C92      1.0000 0.58643  0.07187  0.51117  Biso   1.000  C
  C93      1.0000 0.57343  0.05367  0.47607  Biso   1.000  C
  H68      1.0000 0.61713  0.08377  0.45967  Biso   1.000  H
  C94      1.0000 0.72673  0.16367  0.49757  Biso   1.000  C
  H69      1.0000 0.72673  0.21027  0.48607  Biso   1.000  H
  H70      1.0000 0.73023  0.12807  0.48037  Biso   1.000  H
  H71      1.0000 0.62163  0.07857  0.52017  Biso   1.000  H
  H72      1.0000 0.59873  0.05257  0.46057  Biso   1.000  H
  C95      1.0000 0.56683  0.04087  0.51187  Biso   1.000  C
  C96      1.0000 0.44503  0.97747  0.52307  Biso   1.000  C
  O37      1.0000 0.10956  0.62806  0.00317  Biso   1.000  O
  O38      1.0000 0.03080  0.58870  0.95595  Biso   1.000  O
  O39      1.0000 0.13300  0.68350  0.85440  Biso   1.000  O
  C97      1.0000 0.09240  0.63900  0.97282  Biso   1.000  C
  C98      1.0000 0.15210  0.72000  0.95578  Biso   1.000  C
  C99      1.0000 0.13680  0.73520  0.92192  Biso   1.000  C
  H73      1.0000 0.08820  0.69750  0.91080  Biso   1.000  H
  C100     1.0000 0.15210  0.74690  0.84450  Biso   1.000  C
  C101     1.0000 0.14690  0.75990  0.80940  Biso   1.000  C
  H74      1.0000 0.13330  0.71620  0.79300  Biso   1.000  H
  C102     1.0000 0.10360  0.60660  0.83090  Biso   1.000  C
  H75      1.0000 0.15020  0.60660  0.81940  Biso   1.000  H
  H76      1.0000 0.06450  0.60310  0.81370  Biso   1.000  H
  H77      1.0000 0.12360  0.71170  0.85350  Biso   1.000  H
  H78      1.0000 0.12050  0.73460  0.79390  Biso   1.000  H
  C103     1.0000 0.14070  0.76650  0.84520  Biso   1.000  C
  C104     1.0000 0.19910  0.88830  0.85640  Biso   1.000  C
  O40      1.0000 0.77623  0.96139  0.33650  Biso   1.000  O
  O41      1.0000 0.69747  0.92203  0.28928  Biso   1.000  O
  O42      1.0000 0.79967  0.01683  0.18773  Biso   1.000  O
  C105     1.0000 0.75907  0.97233  0.30615  Biso   1.000  C
  C106     1.0000 0.81877  0.05333  0.28911  Biso   1.000  C
  C107     1.0000 0.80347  0.06853  0.25525  Biso   1.000  C
  H79      1.0000 0.75487  0.03083  0.24413  Biso   1.000  H
  C108     1.0000 0.81877  0.08023  0.17783  Biso   1.000  C
  C109     1.0000 0.81357  0.09323  0.14273  Biso   1.000  C
  H80      1.0000 0.79997  0.04953  0.12633  Biso   1.000  H
  C110     1.0000 0.77027  0.93993  0.16423  Biso   1.000  C
  H81      1.0000 0.81687  0.93993  0.15273  Biso   1.000  H
  H82      1.0000 0.73117  0.93643  0.14703  Biso   1.000  H
  H83      1.0000 0.79027  0.04503  0.18683  Biso   1.000  H
  H84      1.0000 0.78717  0.06793  0.12723  Biso   1.000  H
  C111     1.0000 0.80737  0.09983  0.17853  Biso   1.000  C
  C112     1.0000 0.86577  0.22163  0.18973  Biso   1.000  C
  O43      1.0000 0.44289  0.29473  0.66984  Biso   1.000  O
  O44      1.0000 0.36413  0.25537  0.62262  Biso   1.000  O
  O45      1.0000 0.46633  0.35017  0.52107  Biso   1.000  O
  C113     1.0000 0.42573  0.30567  0.63949  Biso   1.000  C
  C114     1.0000 0.48543  0.38667  0.62245  Biso   1.000  C
  C115     1.0000 0.47013  0.40187  0.58859  Biso   1.000  C
  H85      1.0000 0.42153  0.36417  0.57747  Biso   1.000  H
  C116     1.0000 0.48543  0.41357  0.51117  Biso   1.000  C
  C117     1.0000 0.48023  0.42657  0.47607  Biso   1.000  C
  H86      1.0000 0.46663  0.38287  0.45967  Biso   1.000  H
  C118     1.0000 0.43693  0.27327  0.49757  Biso   1.000  C
  H87      1.0000 0.48353  0.27327  0.48607  Biso   1.000  H
  H88      1.0000 0.39783  0.26977  0.48037  Biso   1.000  H
  H89      1.0000 0.45693  0.37837  0.52017  Biso   1.000  H
  H90      1.0000 0.45383  0.40127  0.46057  Biso   1.000  H
  C119     1.0000 0.47403  0.43317  0.51187  Biso   1.000  C
  C120     1.0000 0.53243  0.55497  0.52307  Biso   1.000  C
  O46      1.0000 0.51850  0.89044  0.00317  Biso   1.000  O
  O47      1.0000 0.55790  0.96920  0.95595  Biso   1.000  O
  O48      1.0000 0.55050  0.86700  0.85440  Biso   1.000  O
  C121     1.0000 0.54660  0.90760  0.97282  Biso   1.000  C
  C122     1.0000 0.56790  0.84790  0.95578  Biso   1.000  C
  C123     1.0000 0.59840  0.86320  0.92192  Biso   1.000  C
  H91      1.0000 0.60930  0.91180  0.91080  Biso   1.000  H
  C124     1.0000 0.59480  0.84790  0.84450  Biso   1.000  C
  C125     1.0000 0.61300  0.85310  0.80940  Biso   1.000  C
  H92      1.0000 0.58290  0.86670  0.79300  Biso   1.000  H
  C126     1.0000 0.50300  0.89640  0.83090  Biso   1.000  C
  H93      1.0000 0.45640  0.84980  0.81940  Biso   1.000  H
  H94      1.0000 0.53860  0.93550  0.81370  Biso   1.000  H
  H95      1.0000 0.58810  0.87640  0.85350  Biso   1.000  H
  H96      1.0000 0.61410  0.87950  0.79390  Biso   1.000  H
  C127     1.0000 0.62580  0.85930  0.84520  Biso   1.000  C
  C128     1.0000 0.68920  0.80090  0.85640  Biso   1.000  C
  O49      1.0000 0.18517  0.22377  0.33650  Biso   1.000  O
  O50      1.0000 0.22457  0.30253  0.28928  Biso   1.000  O
  O51      1.0000 0.21717  0.20033  0.18773  Biso   1.000  O
  C129     1.0000 0.21327  0.24093  0.30615  Biso   1.000  C
  C130     1.0000 0.23457  0.18123  0.28911  Biso   1.000  C
  C131     1.0000 0.26507  0.19653  0.25525  Biso   1.000  C
  H97      1.0000 0.27597  0.24513  0.24413  Biso   1.000  H
  C132     1.0000 0.26147  0.18123  0.17783  Biso   1.000  C
  C133     1.0000 0.27967  0.18643  0.14273  Biso   1.000  C
  H98      1.0000 0.24957  0.20003  0.12633  Biso   1.000  H
  C134     1.0000 0.16967  0.22973  0.16423  Biso   1.000  C
  H99      1.0000 0.12307  0.18313  0.15273  Biso   1.000  H
  H100     1.0000 0.20527  0.26883  0.14703  Biso   1.000  H
  H101     1.0000 0.25477  0.20973  0.18683  Biso   1.000  H
  H102     1.0000 0.28077  0.21283  0.12723  Biso   1.000  H
  C135     1.0000 0.29247  0.19263  0.17853  Biso   1.000  C
  C136     1.0000 0.35587  0.13423  0.18973  Biso   1.000  C
  O52      1.0000 0.85183  0.55711  0.66984  Biso   1.000  O
  O53      1.0000 0.89123  0.63587  0.62262  Biso   1.000  O
  O54      1.0000 0.88383  0.53367  0.52107  Biso   1.000  O
  C137     1.0000 0.87993  0.57427  0.63949  Biso   1.000  C
  C138     1.0000 0.90123  0.51457  0.62245  Biso   1.000  C
  C139     1.0000 0.93173  0.52987  0.58859  Biso   1.000  C
  H103     1.0000 0.94263  0.57847  0.57747  Biso   1.000  H
  C140     1.0000 0.92813  0.51457  0.51117  Biso   1.000  C
  C141     1.0000 0.94633  0.51977  0.47607  Biso   1.000  C
  H104     1.0000 0.91623  0.53337  0.45967  Biso   1.000  H
  C142     1.0000 0.83633  0.56307  0.49757  Biso   1.000  C
  H105     1.0000 0.78973  0.51647  0.48607  Biso   1.000  H
  H106     1.0000 0.87193  0.60217  0.48037  Biso   1.000  H
  H107     1.0000 0.92143  0.54307  0.52017  Biso   1.000  H
  H108     1.0000 0.94743  0.54617  0.46057  Biso   1.000  H
  C143     1.0000 0.95913  0.52597  0.51187  Biso   1.000  C
  C144     1.0000 0.02253  0.46757  0.52307  Biso   1.000  C
  O55      1.0000 0.51850  0.62806  0.00317  Biso   1.000  O
  O56      1.0000 0.55790  0.58870  0.95595  Biso   1.000  O
  O57      1.0000 0.55050  0.68350  0.85440  Biso   1.000  O
  C145     1.0000 0.54660  0.63900  0.97282  Biso   1.000  C
  C146     1.0000 0.56790  0.72000  0.95578  Biso   1.000  C
  C147     1.0000 0.59840  0.73520  0.92192  Biso   1.000  C
  H109     1.0000 0.60930  0.69750  0.91080  Biso   1.000  H
  C148     1.0000 0.59480  0.74690  0.84450  Biso   1.000  C
  C149     1.0000 0.61300  0.75990  0.80940  Biso   1.000  C
  H110     1.0000 0.58290  0.71620  0.79300  Biso   1.000  H
  C150     1.0000 0.50300  0.60660  0.83090  Biso   1.000  C
  H111     1.0000 0.45640  0.60660  0.81940  Biso   1.000  H
  H112     1.0000 0.53860  0.60310  0.81370  Biso   1.000  H
  H113     1.0000 0.58810  0.71170  0.85350  Biso   1.000  H
  H114     1.0000 0.61410  0.73460  0.79390  Biso   1.000  H
  C151     1.0000 0.62580  0.76650  0.84520  Biso   1.000  C
  C152     1.0000 0.68920  0.88830  0.85640  Biso   1.000  C
  O58      1.0000 0.18517  0.96139  0.33650  Biso   1.000  O
  O59      1.0000 0.22457  0.92203  0.28928  Biso   1.000  O
  O60      1.0000 0.21717  0.01683  0.18773  Biso   1.000  O
  C153     1.0000 0.21327  0.97233  0.30615  Biso   1.000  C
  C154     1.0000 0.23457  0.05333  0.28911  Biso   1.000  C
  C155     1.0000 0.26507  0.06853  0.25525  Biso   1.000  C
  H115     1.0000 0.27597  0.03083  0.24413  Biso   1.000  H
  C156     1.0000 0.26147  0.08023  0.17783  Biso   1.000  C
  C157     1.0000 0.27967  0.09323  0.14273  Biso   1.000  C
  H116     1.0000 0.24957  0.04953  0.12633  Biso   1.000  H
  C158     1.0000 0.16967  0.93993  0.16423  Biso   1.000  C
  H117     1.0000 0.12307  0.93993  0.15273  Biso   1.000  H
  H118     1.0000 0.20527  0.93643  0.14703  Biso   1.000  H
  H119     1.0000 0.25477  0.04503  0.18683  Biso   1.000  H
  H120     1.0000 0.28077  0.06793  0.12723  Biso   1.000  H
  C159     1.0000 0.29247  0.09983  0.17853  Biso   1.000  C
  C160     1.0000 0.35587  0.22163  0.18973  Biso   1.000  C
  O61      1.0000 0.85183  0.29473  0.66984  Biso   1.000  O
  O62      1.0000 0.89123  0.25537  0.62262  Biso   1.000  O
  O63      1.0000 0.88383  0.35017  0.52107  Biso   1.000  O
  C161     1.0000 0.87993  0.30567  0.63949  Biso   1.000  C
  C162     1.0000 0.90123  0.38667  0.62245  Biso   1.000  C
  C163     1.0000 0.93173  0.40187  0.58859  Biso   1.000  C
  H121     1.0000 0.94263  0.36417  0.57747  Biso   1.000  H
  C164     1.0000 0.92813  0.41357  0.51117  Biso   1.000  C
  C165     1.0000 0.94633  0.42657  0.47607  Biso   1.000  C
  H122     1.0000 0.91623  0.38287  0.45967  Biso   1.000  H
  C166     1.0000 0.83633  0.27327  0.49757  Biso   1.000  C
  H123     1.0000 0.78973  0.27327  0.48607  Biso   1.000  H
  H124     1.0000 0.87193  0.26977  0.48037  Biso   1.000  H
  H125     1.0000 0.92143  0.37837  0.52017  Biso   1.000  H
  H126     1.0000 0.94743  0.40127  0.46057  Biso   1.000  H
  C167     1.0000 0.95913  0.43317  0.51187  Biso   1.000  C
  C168     1.0000 0.02253  0.55497  0.52307  Biso   1.000  C
  O64      1.0000 0.37194  0.89044  0.00317  Biso   1.000  O
  O65      1.0000 0.41130  0.96920  0.95595  Biso   1.000  O
  O66      1.0000 0.31650  0.86700  0.85440  Biso   1.000  O
  C169     1.0000 0.36100  0.90760  0.97282  Biso   1.000  C
  C170     1.0000 0.28000  0.84790  0.95578  Biso   1.000  C
  C171     1.0000 0.26480  0.86320  0.92192  Biso   1.000  C
  H127     1.0000 0.30250  0.91180  0.91080  Biso   1.000  H
  C172     1.0000 0.25310  0.84790  0.84450  Biso   1.000  C
  C173     1.0000 0.24010  0.85310  0.80940  Biso   1.000  C
  H128     1.0000 0.28380  0.86670  0.79300  Biso   1.000  H
  C174     1.0000 0.39340  0.89640  0.83090  Biso   1.000  C
  H129     1.0000 0.39340  0.84980  0.81940  Biso   1.000  H
  H130     1.0000 0.39690  0.93550  0.81370  Biso   1.000  H
  H131     1.0000 0.28830  0.87640  0.85350  Biso   1.000  H
  H132     1.0000 0.26540  0.87950  0.79390  Biso   1.000  H
  C175     1.0000 0.23350  0.85930  0.84520  Biso   1.000  C
  C176     1.0000 0.11170  0.80090  0.85640  Biso   1.000  C
  O67      1.0000 0.03861  0.22377  0.33650  Biso   1.000  O
  O68      1.0000 0.07797  0.30253  0.28928  Biso   1.000  O
  O69      1.0000 0.98317  0.20033  0.18773  Biso   1.000  O
  C177     1.0000 0.02767  0.24093  0.30615  Biso   1.000  C
  C178     1.0000 0.94667  0.18123  0.28911  Biso   1.000  C
  C179     1.0000 0.93147  0.19653  0.25525  Biso   1.000  C
  H133     1.0000 0.96917  0.24513  0.24413  Biso   1.000  H
  C180     1.0000 0.91977  0.18123  0.17783  Biso   1.000  C
  C181     1.0000 0.90677  0.18643  0.14273  Biso   1.000  C
  H134     1.0000 0.95047  0.20003  0.12633  Biso   1.000  H
  C182     1.0000 0.06007  0.22973  0.16423  Biso   1.000  C
  H135     1.0000 0.06007  0.18313  0.15273  Biso   1.000  H
  H136     1.0000 0.06357  0.26883  0.14703  Biso   1.000  H
  H137     1.0000 0.95497  0.20973  0.18683  Biso   1.000  H
  H138     1.0000 0.93207  0.21283  0.12723  Biso   1.000  H
  C183     1.0000 0.90017  0.19263  0.17853  Biso   1.000  C
  C184     1.0000 0.77837  0.13423  0.18973  Biso   1.000  C
  O70      1.0000 0.70527  0.55711  0.66984  Biso   1.000  O
  O71      1.0000 0.74463  0.63587  0.62262  Biso   1.000  O
  O72      1.0000 0.64983  0.53367  0.52107  Biso   1.000  O
  C185     1.0000 0.69433  0.57427  0.63949  Biso   1.000  C
  C186     1.0000 0.61333  0.51457  0.62245  Biso   1.000  C
  C187     1.0000 0.59813  0.52987  0.58859  Biso   1.000  C
  H139     1.0000 0.63583  0.57847  0.57747  Biso   1.000  H
  C188     1.0000 0.58643  0.51457  0.51117  Biso   1.000  C
  C189     1.0000 0.57343  0.51977  0.47607  Biso   1.000  C
  H140     1.0000 0.61713  0.53337  0.45967  Biso   1.000  H
  C190     1.0000 0.72673  0.56307  0.49757  Biso   1.000  C
  H141     1.0000 0.72673  0.51647  0.48607  Biso   1.000  H
  H142     1.0000 0.73023  0.60217  0.48037  Biso   1.000  H
  H143     1.0000 0.62163  0.54307  0.52017  Biso   1.000  H
  H144     1.0000 0.59873  0.54617  0.46057  Biso   1.000  H
  C191     1.0000 0.56683  0.52597  0.51187  Biso   1.000  C
  C192     1.0000 0.44503  0.46757  0.52307  Biso   1.000  C
  O73      1.0000 0.10956  0.48150  0.00317  Biso   1.000  O
  O74      1.0000 0.03080  0.44210  0.95595  Biso   1.000  O
  O75      1.0000 0.13300  0.44950  0.85440  Biso   1.000  O
  C193     1.0000 0.09240  0.45340  0.97282  Biso   1.000  C
  C194     1.0000 0.15210  0.43210  0.95578  Biso   1.000  C
  C195     1.0000 0.13680  0.40160  0.92192  Biso   1.000  C
  H145     1.0000 0.08820  0.39070  0.91080  Biso   1.000  H
  C196     1.0000 0.15210  0.40520  0.84450  Biso   1.000  C
  C197     1.0000 0.14690  0.38700  0.80940  Biso   1.000  C
  H146     1.0000 0.13330  0.41710  0.79300  Biso   1.000  H
  C198     1.0000 0.10360  0.49700  0.83090  Biso   1.000  C
  H147     1.0000 0.15020  0.54360  0.81940  Biso   1.000  H
  H148     1.0000 0.06450  0.46140  0.81370  Biso   1.000  H
  H149     1.0000 0.12360  0.41190  0.85350  Biso   1.000  H
  H150     1.0000 0.12050  0.38590  0.79390  Biso   1.000  H
  C199     1.0000 0.14070  0.37420  0.84520  Biso   1.000  C
  C200     1.0000 0.19910  0.31080  0.85640  Biso   1.000  C
  O76      1.0000 0.77623  0.81483  0.33650  Biso   1.000  O
  O77      1.0000 0.69747  0.77543  0.28928  Biso   1.000  O
  O78      1.0000 0.79967  0.78283  0.18773  Biso   1.000  O
  C201     1.0000 0.75907  0.78673  0.30615  Biso   1.000  C
  C202     1.0000 0.81877  0.76543  0.28911  Biso   1.000  C
  C203     1.0000 0.80347  0.73493  0.25525  Biso   1.000  C
  H151     1.0000 0.75487  0.72403  0.24413  Biso   1.000  H
  C204     1.0000 0.81877  0.73853  0.17783  Biso   1.000  C
  C205     1.0000 0.81357  0.72033  0.14273  Biso   1.000  C
  H152     1.0000 0.79997  0.75043  0.12633  Biso   1.000  H
  C206     1.0000 0.77027  0.83033  0.16423  Biso   1.000  C
  H153     1.0000 0.81687  0.87693  0.15273  Biso   1.000  H
  H154     1.0000 0.73117  0.79473  0.14703  Biso   1.000  H
  H155     1.0000 0.79027  0.74523  0.18683  Biso   1.000  H
  H156     1.0000 0.78717  0.71923  0.12723  Biso   1.000  H
  C207     1.0000 0.80737  0.70753  0.17853  Biso   1.000  C
  C208     1.0000 0.86577  0.64413  0.18973  Biso   1.000  C
  O79      1.0000 0.44289  0.14817  0.66984  Biso   1.000  O
  O80      1.0000 0.36413  0.10877  0.62262  Biso   1.000  O
  O81      1.0000 0.46633  0.11617  0.52107  Biso   1.000  O
  C209     1.0000 0.42573  0.12007  0.63949  Biso   1.000  C
  C210     1.0000 0.48543  0.09877  0.62245  Biso   1.000  C
  C211     1.0000 0.47013  0.06827  0.58859  Biso   1.000  C
  H157     1.0000 0.42153  0.05737  0.57747  Biso   1.000  H
  C212     1.0000 0.48543  0.07187  0.51117  Biso   1.000  C
  C213     1.0000 0.48023  0.05367  0.47607  Biso   1.000  C
  H158     1.0000 0.46663  0.08377  0.45967  Biso   1.000  H
  C214     1.0000 0.43693  0.16367  0.49757  Biso   1.000  C
  H159     1.0000 0.48353  0.21027  0.48607  Biso   1.000  H
  H160     1.0000 0.39783  0.12807  0.48037  Biso   1.000  H
  H161     1.0000 0.45693  0.07857  0.52017  Biso   1.000  H
  H162     1.0000 0.45383  0.05257  0.46057  Biso   1.000  H
  C215     1.0000 0.47403  0.04087  0.51187  Biso   1.000  C
  C216     1.0000 0.53243  0.97747  0.52307  Biso   1.000  C
  O82      1.0000 0.62806  0.51850  0.99683  Biso   1.000  O
  O83      1.0000 0.58870  0.55790  0.04405  Biso   1.000  O
  O84      1.0000 0.68350  0.55050  0.14560  Biso   1.000  O
  C217     1.0000 0.63900  0.54660  0.02718  Biso   1.000  C
  C218     1.0000 0.72000  0.56790  0.04422  Biso   1.000  C
  C219     1.0000 0.73520  0.59840  0.07808  Biso   1.000  C
  H163     1.0000 0.69750  0.60930  0.08920  Biso   1.000  H
  C220     1.0000 0.74690  0.59480  0.15550  Biso   1.000  C
  C221     1.0000 0.75990  0.61300  0.19060  Biso   1.000  C
  H164     1.0000 0.71620  0.58290  0.20700  Biso   1.000  H
  C222     1.0000 0.60660  0.50300  0.16910  Biso   1.000  C
  H165     1.0000 0.60660  0.45640  0.18060  Biso   1.000  H
  H166     1.0000 0.60310  0.53860  0.18630  Biso   1.000  H
  H167     1.0000 0.71170  0.58810  0.14650  Biso   1.000  H
  H168     1.0000 0.73460  0.61410  0.20610  Biso   1.000  H
  C223     1.0000 0.76650  0.62580  0.15480  Biso   1.000  C
  C224     1.0000 0.88830  0.68920  0.14360  Biso   1.000  C
  O85      1.0000 0.29473  0.85183  0.33016  Biso   1.000  O
  O86      1.0000 0.25537  0.89123  0.37738  Biso   1.000  O
  O87      1.0000 0.35017  0.88383  0.47893  Biso   1.000  O
  C225     1.0000 0.30567  0.87993  0.36051  Biso   1.000  C
  C226     1.0000 0.38667  0.90123  0.37755  Biso   1.000  C
  C227     1.0000 0.40187  0.93173  0.41141  Biso   1.000  C
  H169     1.0000 0.36417  0.94263  0.42253  Biso   1.000  H
  C228     1.0000 0.41357  0.92813  0.48883  Biso   1.000  C
  C229     1.0000 0.42657  0.94633  0.52393  Biso   1.000  C
  H170     1.0000 0.38287  0.91623  0.54033  Biso   1.000  H
  C230     1.0000 0.27327  0.83633  0.50243  Biso   1.000  C
  H171     1.0000 0.27327  0.78973  0.51393  Biso   1.000  H
  H172     1.0000 0.26977  0.87193  0.51963  Biso   1.000  H
  H173     1.0000 0.37837  0.92143  0.47983  Biso   1.000  H
  H174     1.0000 0.40127  0.94743  0.53943  Biso   1.000  H
  C231     1.0000 0.43317  0.95913  0.48813  Biso   1.000  C
  C232     1.0000 0.55497  0.02253  0.47693  Biso   1.000  C
  O88      1.0000 0.96139  0.18517  0.66350  Biso   1.000  O
  O89      1.0000 0.92203  0.22457  0.71072  Biso   1.000  O
  O90      1.0000 0.01683  0.21717  0.81227  Biso   1.000  O
  C233     1.0000 0.97233  0.21327  0.69385  Biso   1.000  C
  C234     1.0000 0.05333  0.23457  0.71089  Biso   1.000  C
  C235     1.0000 0.06853  0.26507  0.74475  Biso   1.000  C
  H175     1.0000 0.03083  0.27597  0.75587  Biso   1.000  H
  C236     1.0000 0.08023  0.26147  0.82217  Biso   1.000  C
  C237     1.0000 0.09323  0.27967  0.85727  Biso   1.000  C
  H176     1.0000 0.04953  0.24957  0.87367  Biso   1.000  H
  C238     1.0000 0.93993  0.16967  0.83577  Biso   1.000  C
  H177     1.0000 0.93993  0.12307  0.84727  Biso   1.000  H
  H178     1.0000 0.93643  0.20527  0.85297  Biso   1.000  H
  H179     1.0000 0.04503  0.25477  0.81317  Biso   1.000  H
  H180     1.0000 0.06793  0.28077  0.87277  Biso   1.000  H
  C239     1.0000 0.09983  0.29247  0.82147  Biso   1.000  C
  C240     1.0000 0.22163  0.35587  0.81027  Biso   1.000  C
  O91      1.0000 0.89044  0.37194  0.99683  Biso   1.000  O
  O92      1.0000 0.96920  0.41130  0.04405  Biso   1.000  O
  O93      1.0000 0.86700  0.31650  0.14560  Biso   1.000  O
  C241     1.0000 0.90760  0.36100  0.02718  Biso   1.000  C
  C242     1.0000 0.84790  0.28000  0.04422  Biso   1.000  C
  C243     1.0000 0.86320  0.26480  0.07808  Biso   1.000  C
  H181     1.0000 0.91180  0.30250  0.08920  Biso   1.000  H
  C244     1.0000 0.84790  0.25310  0.15550  Biso   1.000  C
  C245     1.0000 0.85310  0.24010  0.19060  Biso   1.000  C
  H182     1.0000 0.86670  0.28380  0.20700  Biso   1.000  H
  C246     1.0000 0.89640  0.39340  0.16910  Biso   1.000  C
  H183     1.0000 0.84980  0.39340  0.18060  Biso   1.000  H
  H184     1.0000 0.93550  0.39690  0.18630  Biso   1.000  H
  H185     1.0000 0.87640  0.28830  0.14650  Biso   1.000  H
  H186     1.0000 0.87950  0.26540  0.20610  Biso   1.000  H
  C247     1.0000 0.85930  0.23350  0.15480  Biso   1.000  C
  C248     1.0000 0.80090  0.11170  0.14360  Biso   1.000  C
  O94      1.0000 0.55711  0.70527  0.33016  Biso   1.000  O
  O95      1.0000 0.63587  0.74463  0.37738  Biso   1.000  O
  O96      1.0000 0.53367  0.64983  0.47893  Biso   1.000  O
  C249     1.0000 0.57427  0.69433  0.36051  Biso   1.000  C
  C250     1.0000 0.51457  0.61333  0.37755  Biso   1.000  C
  C251     1.0000 0.52987  0.59813  0.41141  Biso   1.000  C
  H187     1.0000 0.57847  0.63583  0.42253  Biso   1.000  H
  C252     1.0000 0.51457  0.58643  0.48883  Biso   1.000  C
  C253     1.0000 0.51977  0.57343  0.52393  Biso   1.000  C
  H188     1.0000 0.53337  0.61713  0.54033  Biso   1.000  H
  C254     1.0000 0.56307  0.72673  0.50243  Biso   1.000  C
  H189     1.0000 0.51647  0.72673  0.51393  Biso   1.000  H
  H190     1.0000 0.60217  0.73023  0.51963  Biso   1.000  H
  H191     1.0000 0.54307  0.62163  0.47983  Biso   1.000  H
  H192     1.0000 0.54617  0.59873  0.53943  Biso   1.000  H
  C255     1.0000 0.52597  0.56683  0.48813  Biso   1.000  C
  C256     1.0000 0.46757  0.44503  0.47693  Biso   1.000  C
  O97      1.0000 0.22377  0.03861  0.66350  Biso   1.000  O
  O98      1.0000 0.30253  0.07797  0.71072  Biso   1.000  O
  O99      1.0000 0.20033  0.98317  0.81227  Biso   1.000  O
  C257     1.0000 0.24093  0.02767  0.69385  Biso   1.000  C
  C258     1.0000 0.18123  0.94667  0.71089  Biso   1.000  C
  C259     1.0000 0.19653  0.93147  0.74475  Biso   1.000  C
  H193     1.0000 0.24513  0.96917  0.75587  Biso   1.000  H
  C260     1.0000 0.18123  0.91977  0.82217  Biso   1.000  C
  C261     1.0000 0.18643  0.90677  0.85727  Biso   1.000  C
  H194     1.0000 0.20003  0.95047  0.87367  Biso   1.000  H
  C262     1.0000 0.22973  0.06007  0.83577  Biso   1.000  C
  H195     1.0000 0.18313  0.06007  0.84727  Biso   1.000  H
  H196     1.0000 0.26883  0.06357  0.85297  Biso   1.000  H
  H197     1.0000 0.20973  0.95497  0.81317  Biso   1.000  H
  H198     1.0000 0.21283  0.93207  0.87277  Biso   1.000  H
  C263     1.0000 0.19263  0.90017  0.82147  Biso   1.000  C
  C264     1.0000 0.13423  0.77837  0.81027  Biso   1.000  C
  O100     1.0000 0.48150  0.10956  0.99683  Biso   1.000  O
  O101     1.0000 0.44210  0.03080  0.04405  Biso   1.000  O
  O102     1.0000 0.44950  0.13300  0.14560  Biso   1.000  O
  C265     1.0000 0.45340  0.09240  0.02718  Biso   1.000  C
  C266     1.0000 0.43210  0.15210  0.04422  Biso   1.000  C
  C267     1.0000 0.40160  0.13680  0.07808  Biso   1.000  C
  H199     1.0000 0.39070  0.08820  0.08920  Biso   1.000  H
  C268     1.0000 0.40520  0.15210  0.15550  Biso   1.000  C
  C269     1.0000 0.38700  0.14690  0.19060  Biso   1.000  C
  H200     1.0000 0.41710  0.13330  0.20700  Biso   1.000  H
  C270     1.0000 0.49700  0.10360  0.16910  Biso   1.000  C
  H201     1.0000 0.54360  0.15020  0.18060  Biso   1.000  H
  H202     1.0000 0.46140  0.06450  0.18630  Biso   1.000  H
  H203     1.0000 0.41190  0.12360  0.14650  Biso   1.000  H
  H204     1.0000 0.38590  0.12050  0.20610  Biso   1.000  H
  C271     1.0000 0.37420  0.14070  0.15480  Biso   1.000  C
  C272     1.0000 0.31080  0.19910  0.14360  Biso   1.000  C
  O103     1.0000 0.14817  0.44289  0.33016  Biso   1.000  O
  O104     1.0000 0.10877  0.36413  0.37738  Biso   1.000  O
  O105     1.0000 0.11617  0.46633  0.47893  Biso   1.000  O
  C273     1.0000 0.12007  0.42573  0.36051  Biso   1.000  C
  C274     1.0000 0.09877  0.48543  0.37755  Biso   1.000  C
  C275     1.0000 0.06827  0.47013  0.41141  Biso   1.000  C
  H205     1.0000 0.05737  0.42153  0.42253  Biso   1.000  H
  C276     1.0000 0.07187  0.48543  0.48883  Biso   1.000  C
  C277     1.0000 0.05367  0.48023  0.52393  Biso   1.000  C
  H206     1.0000 0.08377  0.46663  0.54033  Biso   1.000  H
  C278     1.0000 0.16367  0.43693  0.50243  Biso   1.000  C
  H207     1.0000 0.21027  0.48353  0.51393  Biso   1.000  H
  H208     1.0000 0.12807  0.39783  0.51963  Biso   1.000  H
  H209     1.0000 0.07857  0.45693  0.47983  Biso   1.000  H
  H210     1.0000 0.05257  0.45383  0.53943  Biso   1.000  H
  C279     1.0000 0.04087  0.47403  0.48813  Biso   1.000  C
  C280     1.0000 0.97747  0.53243  0.47693  Biso   1.000  C
  O106     1.0000 0.81483  0.77623  0.66350  Biso   1.000  O
  O107     1.0000 0.77543  0.69747  0.71072  Biso   1.000  O
  O108     1.0000 0.78283  0.79967  0.81227  Biso   1.000  O
  C281     1.0000 0.78673  0.75907  0.69385  Biso   1.000  C
  C282     1.0000 0.76543  0.81877  0.71089  Biso   1.000  C
  C283     1.0000 0.73493  0.80347  0.74475  Biso   1.000  C
  H211     1.0000 0.72403  0.75487  0.75587  Biso   1.000  H
  C284     1.0000 0.73853  0.81877  0.82217  Biso   1.000  C
  C285     1.0000 0.72033  0.81357  0.85727  Biso   1.000  C
  H212     1.0000 0.75043  0.79997  0.87367  Biso   1.000  H
  C286     1.0000 0.83033  0.77027  0.83577  Biso   1.000  C
  H213     1.0000 0.87693  0.81687  0.84727  Biso   1.000  H
  H214     1.0000 0.79473  0.73117  0.85297  Biso   1.000  H
  H215     1.0000 0.74523  0.79027  0.81317  Biso   1.000  H
  H216     1.0000 0.71923  0.78717  0.87277  Biso   1.000  H
  C287     1.0000 0.70753  0.80737  0.82147  Biso   1.000  C
  C288     1.0000 0.64413  0.86577  0.81027  Biso   1.000  C
  Cu1      1.0000 0.52323  0.47677  0.97237  Biso   1.000  Cu
  C289     1.0000 0.52970  0.47030  0.14000  Biso   1.000  C
  H217     1.0000 0.54180  0.45820  0.11700  Biso   1.000  H
  H218     1.0000 0.49960  0.50040  0.13960  Biso   1.000  H
  Cu2      1.0000 0.18990  0.81010  0.30571  Biso   1.000  Cu
  C290     1.0000 0.19637  0.80363  0.47333  Biso   1.000  C
  H219     1.0000 0.20847  0.79153  0.45033  Biso   1.000  H
  H220     1.0000 0.16627  0.83373  0.47293  Biso   1.000  H
  Cu3      1.0000 0.85657  0.14343  0.63904  Biso   1.000  Cu
  C291     1.0000 0.86303  0.13697  0.80667  Biso   1.000  C
  H221     1.0000 0.87513  0.12487  0.78367  Biso   1.000  H
  H222     1.0000 0.83293  0.16707  0.80627  Biso   1.000  H
  Cu4      1.0000 0.52323  0.04646  0.97237  Biso   1.000  Cu
  C292     1.0000 0.52970  0.05940  0.14000  Biso   1.000  C
  H223     1.0000 0.54180  0.08360  0.11700  Biso   1.000  H
  H224     1.0000 0.49960  0.99920  0.13960  Biso   1.000  H
  Cu5      1.0000 0.18990  0.37980  0.30571  Biso   1.000  Cu
  C293     1.0000 0.19637  0.39273  0.47333  Biso   1.000  C
  H225     1.0000 0.20847  0.41693  0.45033  Biso   1.000  H
  H226     1.0000 0.16627  0.33253  0.47293  Biso   1.000  H
  Cu6      1.0000 0.85657  0.71313  0.63904  Biso   1.000  Cu
  C294     1.0000 0.86303  0.72607  0.80667  Biso   1.000  C
  H227     1.0000 0.87513  0.75027  0.78367  Biso   1.000  H
  H228     1.0000 0.83293  0.66587  0.80627  Biso   1.000  H
  Cu7      1.0000 0.95354  0.47677  0.97237  Biso   1.000  Cu
  C295     1.0000 0.94060  0.47030  0.14000  Biso   1.000  C
  H229     1.0000 0.91640  0.45820  0.11700  Biso   1.000  H
  H230     1.0000 0.00080  0.50040  0.13960  Biso   1.000  H
  Cu8      1.0000 0.62020  0.81010  0.30571  Biso   1.000  Cu
  C296     1.0000 0.60727  0.80363  0.47333  Biso   1.000  C
  H231     1.0000 0.58307  0.79153  0.45033  Biso   1.000  H
  H232     1.0000 0.66747  0.83373  0.47293  Biso   1.000  H
  Cu9      1.0000 0.28687  0.14343  0.63904  Biso   1.000  Cu
  C297     1.0000 0.27393  0.13697  0.80667  Biso   1.000  C
  H233     1.0000 0.24973  0.12487  0.78367  Biso   1.000  H
  H234     1.0000 0.33413  0.16707  0.80627  Biso   1.000  H
  Cu10     1.0000 0.47677  0.52323  0.02762  Biso   1.000  Cu
  C298     1.0000 0.47030  0.52970  0.86000  Biso   1.000  C
  H235     1.0000 0.45820  0.54180  0.88300  Biso   1.000  H
  H236     1.0000 0.50040  0.49960  0.86040  Biso   1.000  H
  Cu11     1.0000 0.14343  0.85657  0.36096  Biso   1.000  Cu
  C299     1.0000 0.13697  0.86303  0.19333  Biso   1.000  C
  H237     1.0000 0.12487  0.87513  0.21633  Biso   1.000  H
  H238     1.0000 0.16707  0.83293  0.19373  Biso   1.000  H
  Cu12     1.0000 0.81010  0.18990  0.69429  Biso   1.000  Cu
  C300     1.0000 0.80363  0.19637  0.52667  Biso   1.000  C
  H239     1.0000 0.79153  0.20847  0.54967  Biso   1.000  H
  H240     1.0000 0.83373  0.16627  0.52707  Biso   1.000  H
  Cu13     1.0000 0.04646  0.52323  0.02762  Biso   1.000  Cu
  C301     1.0000 0.05940  0.52970  0.86000  Biso   1.000  C
  H241     1.0000 0.08360  0.54180  0.88300  Biso   1.000  H
  H242     1.0000 0.99920  0.49960  0.86040  Biso   1.000  H
  Cu14     1.0000 0.71313  0.85657  0.36096  Biso   1.000  Cu
  C302     1.0000 0.72607  0.86303  0.19333  Biso   1.000  C
  H243     1.0000 0.75027  0.87513  0.21633  Biso   1.000  H
  H244     1.0000 0.66587  0.83293  0.19373  Biso   1.000  H
  Cu15     1.0000 0.37980  0.18990  0.69429  Biso   1.000  Cu
  C303     1.0000 0.39273  0.19637  0.52667  Biso   1.000  C
  H245     1.0000 0.41693  0.20847  0.54967  Biso   1.000  H
  H246     1.0000 0.33253  0.16627  0.52707  Biso   1.000  H
  Cu16     1.0000 0.47677  0.95354  0.02762  Biso   1.000  Cu
  C304     1.0000 0.47030  0.94060  0.86000  Biso   1.000  C
  H247     1.0000 0.45820  0.91640  0.88300  Biso   1.000  H
  H248     1.0000 0.50040  0.00080  0.86040  Biso   1.000  H
  Cu17     1.0000 0.14343  0.28687  0.36096  Biso   1.000  Cu
  C305     1.0000 0.13697  0.27393  0.19333  Biso   1.000  C
  H249     1.0000 0.12487  0.24973  0.21633  Biso   1.000  H
  H250     1.0000 0.16707  0.33413  0.19373  Biso   1.000  H
  Cu18     1.0000 0.81010  0.62020  0.69429  Biso   1.000  Cu
  C306     1.0000 0.80363  0.60727  0.52667  Biso   1.000  C
  H251     1.0000 0.79153  0.58307  0.54967  Biso   1.000  H
  H252     1.0000 0.83373  0.66747  0.52707  Biso   1.000  H
  C307     1.0000 0.44690  0.22345  0.02739  Biso   1.000  C
  H253     1.0000 0.46670  0.23335  0.00480  Biso   1.000  H
  C308     1.0000 0.38770  0.19385  0.09512  Biso   1.000  C
  C309     1.0000 0.37380  0.18690  0.13280  Biso   1.000  C
  C310     1.0000 0.32610  0.16305  0.20180  Biso   1.000  C
  C311     1.0000 0.11357  0.55678  0.36072  Biso   1.000  C
  H254     1.0000 0.13337  0.56668  0.33813  Biso   1.000  H
  C312     1.0000 0.05437  0.52718  0.42845  Biso   1.000  C
  C313     1.0000 0.04047  0.52023  0.46613  Biso   1.000  C
  C314     1.0000 0.99277  0.49638  0.53513  Biso   1.000  C
  C315     1.0000 0.78023  0.89012  0.69406  Biso   1.000  C
  H255     1.0000 0.80003  0.90002  0.67147  Biso   1.000  H
  C316     1.0000 0.72103  0.86052  0.76179  Biso   1.000  C
  C317     1.0000 0.70713  0.85357  0.79947  Biso   1.000  C
  C318     1.0000 0.65943  0.82972  0.86847  Biso   1.000  C
  C319     1.0000 0.77655  0.22345  0.02739  Biso   1.000  C
  H256     1.0000 0.76665  0.23335  0.00480  Biso   1.000  H
  C320     1.0000 0.80615  0.19385  0.09512  Biso   1.000  C
  C321     1.0000 0.81310  0.18690  0.13280  Biso   1.000  C
  C322     1.0000 0.83695  0.16305  0.20180  Biso   1.000  C
  C323     1.0000 0.44322  0.55678  0.36072  Biso   1.000  C
  H257     1.0000 0.43332  0.56668  0.33813  Biso   1.000  H
  C324     1.0000 0.47282  0.52718  0.42845  Biso   1.000  C
  C325     1.0000 0.47977  0.52023  0.46613  Biso   1.000  C
  C326     1.0000 0.50362  0.49638  0.53513  Biso   1.000  C
  C327     1.0000 0.10988  0.89012  0.69406  Biso   1.000  C
  H258     1.0000 0.09998  0.90002  0.67147  Biso   1.000  H
  C328     1.0000 0.13948  0.86052  0.76179  Biso   1.000  C
  C329     1.0000 0.14643  0.85357  0.79947  Biso   1.000  C
  C330     1.0000 0.17028  0.82972  0.86847  Biso   1.000  C
  C331     1.0000 0.77655  0.55310  0.02739  Biso   1.000  C
  H259     1.0000 0.76665  0.53330  0.00480  Biso   1.000  H
  C332     1.0000 0.80615  0.61230  0.09512  Biso   1.000  C
  C333     1.0000 0.81310  0.62620  0.13280  Biso   1.000  C
  C334     1.0000 0.83695  0.67390  0.20180  Biso   1.000  C
  C335     1.0000 0.44322  0.88643  0.36072  Biso   1.000  C
  H260     1.0000 0.43332  0.86663  0.33813  Biso   1.000  H
  C336     1.0000 0.47282  0.94563  0.42845  Biso   1.000  C
  C337     1.0000 0.47977  0.95953  0.46613  Biso   1.000  C
  C338     1.0000 0.50362  0.00723  0.53513  Biso   1.000  C
  C339     1.0000 0.10988  0.21977  0.69406  Biso   1.000  C
  H261     1.0000 0.09998  0.19997  0.67147  Biso   1.000  H
  C340     1.0000 0.13948  0.27897  0.76179  Biso   1.000  C
  C341     1.0000 0.14643  0.29287  0.79947  Biso   1.000  C
  C342     1.0000 0.17028  0.34057  0.86847  Biso   1.000  C
  C343     1.0000 0.22345  0.44690  0.97261  Biso   1.000  C
  H262     1.0000 0.23335  0.46670  0.99520  Biso   1.000  H
  C344     1.0000 0.19385  0.38770  0.90488  Biso   1.000  C
  C345     1.0000 0.18690  0.37380  0.86720  Biso   1.000  C
  C346     1.0000 0.16305  0.32610  0.79820  Biso   1.000  C
  C347     1.0000 0.89012  0.78023  0.30594  Biso   1.000  C
  H263     1.0000 0.90002  0.80003  0.32853  Biso   1.000  H
  C348     1.0000 0.86052  0.72103  0.23821  Biso   1.000  C
  C349     1.0000 0.85357  0.70713  0.20053  Biso   1.000  C
  C350     1.0000 0.82972  0.65943  0.13153  Biso   1.000  C
  C351     1.0000 0.55678  0.11357  0.63928  Biso   1.000  C
  H264     1.0000 0.56668  0.13337  0.66187  Biso   1.000  H
  C352     1.0000 0.52718  0.05437  0.57155  Biso   1.000  C
  C353     1.0000 0.52023  0.04047  0.53387  Biso   1.000  C
  C354     1.0000 0.49638  0.99277  0.46487  Biso   1.000  C
  C355     1.0000 0.22345  0.77655  0.97261  Biso   1.000  C
  H265     1.0000 0.23335  0.76665  0.99520  Biso   1.000  H
  C356     1.0000 0.19385  0.80615  0.90488  Biso   1.000  C
  C357     1.0000 0.18690  0.81310  0.86720  Biso   1.000  C
  C358     1.0000 0.16305  0.83695  0.79820  Biso   1.000  C
  C359     1.0000 0.89012  0.10988  0.30594  Biso   1.000  C
  H266     1.0000 0.90002  0.09998  0.32853  Biso   1.000  H
  C360     1.0000 0.86052  0.13948  0.23821  Biso   1.000  C
  C361     1.0000 0.85357  0.14643  0.20053  Biso   1.000  C
  C362     1.0000 0.82972  0.17028  0.13153  Biso   1.000  C
  C363     1.0000 0.55678  0.44322  0.63928  Biso   1.000  C
  H267     1.0000 0.56668  0.43332  0.66187  Biso   1.000  H
  C364     1.0000 0.52718  0.47282  0.57155  Biso   1.000  C
  C365     1.0000 0.52023  0.47977  0.53387  Biso   1.000  C
  C366     1.0000 0.49638  0.50362  0.46487  Biso   1.000  C
  C367     1.0000 0.55310  0.77655  0.97261  Biso   1.000  C
  H268     1.0000 0.53330  0.76665  0.99520  Biso   1.000  H
  C368     1.0000 0.61230  0.80615  0.90488  Biso   1.000  C
  C369     1.0000 0.62620  0.81310  0.86720  Biso   1.000  C
  C370     1.0000 0.67390  0.83695  0.79820  Biso   1.000  C
  C371     1.0000 0.21977  0.10988  0.30594  Biso   1.000  C
  H269     1.0000 0.19997  0.09998  0.32853  Biso   1.000  H
  C372     1.0000 0.27897  0.13948  0.23821  Biso   1.000  C
  C373     1.0000 0.29287  0.14643  0.20053  Biso   1.000  C
  C374     1.0000 0.34057  0.17028  0.13153  Biso   1.000  C
  C375     1.0000 0.88643  0.44322  0.63928  Biso   1.000  C
  H270     1.0000 0.86663  0.43332  0.66187  Biso   1.000  H
  C376     1.0000 0.94563  0.47282  0.57155  Biso   1.000  C
  C377     1.0000 0.95953  0.47977  0.53387  Biso   1.000  C
  C378     1.0000 0.00723  0.50362  0.46487  Biso   1.000  C
