data_image0
_cell_length_a       30.4128
_cell_length_b       30.4128
_cell_length_c       30.4128
_cell_angle_alpha    90
_cell_angle_beta     90
_cell_angle_gamma    90

_symmetry_space_group_name_H-M    "P 1"
_symmetry_int_tables_number       1

loop_
  _symmetry_equiv_pos_as_xyz
  'x, y, z'

loop_
  _atom_site_label
  _atom_site_occupancy
  _atom_site_fract_x
  _atom_site_fract_y
  _atom_site_fract_z
  _atom_site_thermal_displace_type
  _atom_site_B_iso_or_equiv
  _atom_site_type_symbol
  O1       1.0000 0.22750  0.29140  0.45490  Biso   1.000  O
  O2       1.0000 0.28010  0.34330  0.45530  Biso   1.000  O
  O3       1.0000 0.08390  0.41530  0.33780  Biso   1.000  O
  C1       1.0000 0.03960  0.35260  0.32980  Biso   1.000  C
  C2       1.0000 0.24460  0.32660  0.44140  Biso   1.000  C
  C3       1.0000 0.22060  0.35130  0.40700  Biso   1.000  C
  C4       1.0000 0.17900  0.33840  0.39390  Biso   1.000  C
  H1       1.0000 0.16530  0.31480  0.40770  Biso   1.000  H
  C5       1.0000 0.08280  0.37520  0.33800  Biso   1.000  C
  O4       1.0000 0.72750  0.79140  0.95490  Biso   1.000  O
  O5       1.0000 0.78010  0.84330  0.95530  Biso   1.000  O
  O6       1.0000 0.58390  0.91530  0.83780  Biso   1.000  O
  C6       1.0000 0.53960  0.85260  0.82980  Biso   1.000  C
  C7       1.0000 0.74460  0.82660  0.94140  Biso   1.000  C
  C8       1.0000 0.72060  0.85130  0.90700  Biso   1.000  C
  C9       1.0000 0.67900  0.83840  0.89390  Biso   1.000  C
  H2       1.0000 0.66530  0.81480  0.90770  Biso   1.000  H
  C10      1.0000 0.58280  0.87520  0.83800  Biso   1.000  C
  O7       1.0000 0.77250  0.70860  0.45490  Biso   1.000  O
  O8       1.0000 0.71990  0.65670  0.45530  Biso   1.000  O
  O9       1.0000 0.91610  0.58470  0.33780  Biso   1.000  O
  C11      1.0000 0.96040  0.64740  0.32980  Biso   1.000  C
  C12      1.0000 0.75540  0.67340  0.44140  Biso   1.000  C
  C13      1.0000 0.77940  0.64870  0.40700  Biso   1.000  C
  C14      1.0000 0.82100  0.66160  0.39390  Biso   1.000  C
  H3       1.0000 0.83470  0.68520  0.40770  Biso   1.000  H
  C15      1.0000 0.91720  0.62480  0.33800  Biso   1.000  C
  O10      1.0000 0.27250  0.20860  0.95490  Biso   1.000  O
  O11      1.0000 0.21990  0.15670  0.95530  Biso   1.000  O
  O12      1.0000 0.41610  0.08470  0.83780  Biso   1.000  O
  C16      1.0000 0.46040  0.14740  0.82980  Biso   1.000  C
  C17      1.0000 0.25540  0.17340  0.94140  Biso   1.000  C
  C18      1.0000 0.27940  0.14870  0.90700  Biso   1.000  C
  C19      1.0000 0.32100  0.16160  0.89390  Biso   1.000  C
  H4       1.0000 0.33470  0.18520  0.90770  Biso   1.000  H
  C20      1.0000 0.41720  0.12480  0.83800  Biso   1.000  C
  O13      1.0000 0.77250  0.29140  0.54510  Biso   1.000  O
  O14      1.0000 0.71990  0.34330  0.54470  Biso   1.000  O
  O15      1.0000 0.91610  0.41530  0.66220  Biso   1.000  O
  C21      1.0000 0.96040  0.35260  0.67020  Biso   1.000  C
  C22      1.0000 0.75540  0.32660  0.55860  Biso   1.000  C
  C23      1.0000 0.77940  0.35130  0.59300  Biso   1.000  C
  C24      1.0000 0.82100  0.33840  0.60610  Biso   1.000  C
  H5       1.0000 0.83470  0.31480  0.59230  Biso   1.000  H
  C25      1.0000 0.91720  0.37520  0.66200  Biso   1.000  C
  O16      1.0000 0.27250  0.79140  0.04510  Biso   1.000  O
  O17      1.0000 0.21990  0.84330  0.04470  Biso   1.000  O
  O18      1.0000 0.41610  0.91530  0.16220  Biso   1.000  O
  C26      1.0000 0.46040  0.85260  0.17020  Biso   1.000  C
  C27      1.0000 0.25540  0.82660  0.05860  Biso   1.000  C
  C28      1.0000 0.27940  0.85130  0.09300  Biso   1.000  C
  C29      1.0000 0.32100  0.83840  0.10610  Biso   1.000  C
  H6       1.0000 0.33470  0.81480  0.09230  Biso   1.000  H
  C30      1.0000 0.41720  0.87520  0.16200  Biso   1.000  C
  O19      1.0000 0.22750  0.70860  0.54510  Biso   1.000  O
  O20      1.0000 0.28010  0.65670  0.54470  Biso   1.000  O
  O21      1.0000 0.08390  0.58470  0.66220  Biso   1.000  O
  C31      1.0000 0.03960  0.64740  0.67020  Biso   1.000  C
  C32      1.0000 0.24460  0.67340  0.55860  Biso   1.000  C
  C33      1.0000 0.22060  0.64870  0.59300  Biso   1.000  C
  C34      1.0000 0.17900  0.66160  0.60610  Biso   1.000  C
  H7       1.0000 0.16530  0.68520  0.59230  Biso   1.000  H
  C35      1.0000 0.08280  0.62480  0.66200  Biso   1.000  C
  O22      1.0000 0.72750  0.20860  0.04510  Biso   1.000  O
  O23      1.0000 0.78010  0.15670  0.04470  Biso   1.000  O
  O24      1.0000 0.58390  0.08470  0.16220  Biso   1.000  O
  C36      1.0000 0.53960  0.14740  0.17020  Biso   1.000  C
  C37      1.0000 0.74460  0.17340  0.05860  Biso   1.000  C
  C38      1.0000 0.72060  0.14870  0.09300  Biso   1.000  C
  C39      1.0000 0.67900  0.16160  0.10610  Biso   1.000  C
  H8       1.0000 0.66530  0.18520  0.09230  Biso   1.000  H
  C40      1.0000 0.58280  0.12480  0.16200  Biso   1.000  C
  O25      1.0000 0.45490  0.22750  0.29140  Biso   1.000  O
  O26      1.0000 0.45530  0.28010  0.34330  Biso   1.000  O
  O27      1.0000 0.33780  0.08390  0.41530  Biso   1.000  O
  C41      1.0000 0.32980  0.03960  0.35260  Biso   1.000  C
  C42      1.0000 0.44140  0.24460  0.32660  Biso   1.000  C
  C43      1.0000 0.40700  0.22060  0.35130  Biso   1.000  C
  C44      1.0000 0.39390  0.17900  0.33840  Biso   1.000  C
  H9       1.0000 0.40770  0.16530  0.31480  Biso   1.000  H
  C45      1.0000 0.33800  0.08280  0.37520  Biso   1.000  C
  O28      1.0000 0.95490  0.72750  0.79140  Biso   1.000  O
  O29      1.0000 0.95530  0.78010  0.84330  Biso   1.000  O
  O30      1.0000 0.83780  0.58390  0.91530  Biso   1.000  O
  C46      1.0000 0.82980  0.53960  0.85260  Biso   1.000  C
  C47      1.0000 0.94140  0.74460  0.82660  Biso   1.000  C
  C48      1.0000 0.90700  0.72060  0.85130  Biso   1.000  C
  C49      1.0000 0.89390  0.67900  0.83840  Biso   1.000  C
  H10      1.0000 0.90770  0.66530  0.81480  Biso   1.000  H
  C50      1.0000 0.83800  0.58280  0.87520  Biso   1.000  C
  O31      1.0000 0.45490  0.77250  0.70860  Biso   1.000  O
  O32      1.0000 0.45530  0.71990  0.65670  Biso   1.000  O
  O33      1.0000 0.33780  0.91610  0.58470  Biso   1.000  O
  C51      1.0000 0.32980  0.96040  0.64740  Biso   1.000  C
  C52      1.0000 0.44140  0.75540  0.67340  Biso   1.000  C
  C53      1.0000 0.40700  0.77940  0.64870  Biso   1.000  C
  C54      1.0000 0.39390  0.82100  0.66160  Biso   1.000  C
  H11      1.0000 0.40770  0.83470  0.68520  Biso   1.000  H
  C55      1.0000 0.33800  0.91720  0.62480  Biso   1.000  C
  O34      1.0000 0.95490  0.27250  0.20860  Biso   1.000  O
  O35      1.0000 0.95530  0.21990  0.15670  Biso   1.000  O
  O36      1.0000 0.83780  0.41610  0.08470  Biso   1.000  O
  C56      1.0000 0.82980  0.46040  0.14740  Biso   1.000  C
  C57      1.0000 0.94140  0.25540  0.17340  Biso   1.000  C
  C58      1.0000 0.90700  0.27940  0.14870  Biso   1.000  C
  C59      1.0000 0.89390  0.32100  0.16160  Biso   1.000  C
  H12      1.0000 0.90770  0.33470  0.18520  Biso   1.000  H
  C60      1.0000 0.83800  0.41720  0.12480  Biso   1.000  C
  O37      1.0000 0.54510  0.77250  0.29140  Biso   1.000  O
  O38      1.0000 0.54470  0.71990  0.34330  Biso   1.000  O
  O39      1.0000 0.66220  0.91610  0.41530  Biso   1.000  O
  C61      1.0000 0.67020  0.96040  0.35260  Biso   1.000  C
  C62      1.0000 0.55860  0.75540  0.32660  Biso   1.000  C
  C63      1.0000 0.59300  0.77940  0.35130  Biso   1.000  C
  C64      1.0000 0.60610  0.82100  0.33840  Biso   1.000  C
  H13      1.0000 0.59230  0.83470  0.31480  Biso   1.000  H
  C65      1.0000 0.66200  0.91720  0.37520  Biso   1.000  C
  O40      1.0000 0.04510  0.27250  0.79140  Biso   1.000  O
  O41      1.0000 0.04470  0.21990  0.84330  Biso   1.000  O
  O42      1.0000 0.16220  0.41610  0.91530  Biso   1.000  O
  C66      1.0000 0.17020  0.46040  0.85260  Biso   1.000  C
  C67      1.0000 0.05860  0.25540  0.82660  Biso   1.000  C
  C68      1.0000 0.09300  0.27940  0.85130  Biso   1.000  C
  C69      1.0000 0.10610  0.32100  0.83840  Biso   1.000  C
  H14      1.0000 0.09230  0.33470  0.81480  Biso   1.000  H
  C70      1.0000 0.16200  0.41720  0.87520  Biso   1.000  C
  O43      1.0000 0.54510  0.22750  0.70860  Biso   1.000  O
  O44      1.0000 0.54470  0.28010  0.65670  Biso   1.000  O
  O45      1.0000 0.66220  0.08390  0.58470  Biso   1.000  O
  C71      1.0000 0.67020  0.03960  0.64740  Biso   1.000  C
  C72      1.0000 0.55860  0.24460  0.67340  Biso   1.000  C
  C73      1.0000 0.59300  0.22060  0.64870  Biso   1.000  C
  C74      1.0000 0.60610  0.17900  0.66160  Biso   1.000  C
  H15      1.0000 0.59230  0.16530  0.68520  Biso   1.000  H
  C75      1.0000 0.66200  0.08280  0.62480  Biso   1.000  C
  O46      1.0000 0.04510  0.72750  0.20860  Biso   1.000  O
  O47      1.0000 0.04470  0.78010  0.15670  Biso   1.000  O
  O48      1.0000 0.16220  0.58390  0.08470  Biso   1.000  O
  C76      1.0000 0.17020  0.53960  0.14740  Biso   1.000  C
  C77      1.0000 0.05860  0.74460  0.17340  Biso   1.000  C
  C78      1.0000 0.09300  0.72060  0.14870  Biso   1.000  C
  C79      1.0000 0.10610  0.67900  0.16160  Biso   1.000  C
  H16      1.0000 0.09230  0.66530  0.18520  Biso   1.000  H
  C80      1.0000 0.16200  0.58280  0.12480  Biso   1.000  C
  O49      1.0000 0.29140  0.45490  0.22750  Biso   1.000  O
  O50      1.0000 0.34330  0.45530  0.28010  Biso   1.000  O
  O51      1.0000 0.41530  0.33780  0.08390  Biso   1.000  O
  C81      1.0000 0.35260  0.32980  0.03960  Biso   1.000  C
  C82      1.0000 0.32660  0.44140  0.24460  Biso   1.000  C
  C83      1.0000 0.35130  0.40700  0.22060  Biso   1.000  C
  C84      1.0000 0.33840  0.39390  0.17900  Biso   1.000  C
  H17      1.0000 0.31480  0.40770  0.16530  Biso   1.000  H
  C85      1.0000 0.37520  0.33800  0.08280  Biso   1.000  C
  O52      1.0000 0.79140  0.95490  0.72750  Biso   1.000  O
  O53      1.0000 0.84330  0.95530  0.78010  Biso   1.000  O
  O54      1.0000 0.91530  0.83780  0.58390  Biso   1.000  O
  C86      1.0000 0.85260  0.82980  0.53960  Biso   1.000  C
  C87      1.0000 0.82660  0.94140  0.74460  Biso   1.000  C
  C88      1.0000 0.85130  0.90700  0.72060  Biso   1.000  C
  C89      1.0000 0.83840  0.89390  0.67900  Biso   1.000  C
  H18      1.0000 0.81480  0.90770  0.66530  Biso   1.000  H
  C90      1.0000 0.87520  0.83800  0.58280  Biso   1.000  C
  O55      1.0000 0.70860  0.45490  0.77250  Biso   1.000  O
  O56      1.0000 0.65670  0.45530  0.71990  Biso   1.000  O
  O57      1.0000 0.58470  0.33780  0.91610  Biso   1.000  O
  C91      1.0000 0.64740  0.32980  0.96040  Biso   1.000  C
  C92      1.0000 0.67340  0.44140  0.75540  Biso   1.000  C
  C93      1.0000 0.64870  0.40700  0.77940  Biso   1.000  C
  C94      1.0000 0.66160  0.39390  0.82100  Biso   1.000  C
  H19      1.0000 0.68520  0.40770  0.83470  Biso   1.000  H
  C95      1.0000 0.62480  0.33800  0.91720  Biso   1.000  C
  O58      1.0000 0.20860  0.95490  0.27250  Biso   1.000  O
  O59      1.0000 0.15670  0.95530  0.21990  Biso   1.000  O
  O60      1.0000 0.08470  0.83780  0.41610  Biso   1.000  O
  C96      1.0000 0.14740  0.82980  0.46040  Biso   1.000  C
  C97      1.0000 0.17340  0.94140  0.25540  Biso   1.000  C
  C98      1.0000 0.14870  0.90700  0.27940  Biso   1.000  C
  C99      1.0000 0.16160  0.89390  0.32100  Biso   1.000  C
  H20      1.0000 0.18520  0.90770  0.33470  Biso   1.000  H
  C100     1.0000 0.12480  0.83800  0.41720  Biso   1.000  C
  O61      1.0000 0.29140  0.54510  0.77250  Biso   1.000  O
  O62      1.0000 0.34330  0.54470  0.71990  Biso   1.000  O
  O63      1.0000 0.41530  0.66220  0.91610  Biso   1.000  O
  C101     1.0000 0.35260  0.67020  0.96040  Biso   1.000  C
  C102     1.0000 0.32660  0.55860  0.75540  Biso   1.000  C
  C103     1.0000 0.35130  0.59300  0.77940  Biso   1.000  C
  C104     1.0000 0.33840  0.60610  0.82100  Biso   1.000  C
  H21      1.0000 0.31480  0.59230  0.83470  Biso   1.000  H
  C105     1.0000 0.37520  0.66200  0.91720  Biso   1.000  C
  O64      1.0000 0.79140  0.04510  0.27250  Biso   1.000  O
  O65      1.0000 0.84330  0.04470  0.21990  Biso   1.000  O
  O66      1.0000 0.91530  0.16220  0.41610  Biso   1.000  O
  C106     1.0000 0.85260  0.17020  0.46040  Biso   1.000  C
  C107     1.0000 0.82660  0.05860  0.25540  Biso   1.000  C
  C108     1.0000 0.85130  0.09300  0.27940  Biso   1.000  C
  C109     1.0000 0.83840  0.10610  0.32100  Biso   1.000  C
  H22      1.0000 0.81480  0.09230  0.33470  Biso   1.000  H
  C110     1.0000 0.87520  0.16200  0.41720  Biso   1.000  C
  O67      1.0000 0.70860  0.54510  0.22750  Biso   1.000  O
  O68      1.0000 0.65670  0.54470  0.28010  Biso   1.000  O
  O69      1.0000 0.58470  0.66220  0.08390  Biso   1.000  O
  C111     1.0000 0.64740  0.67020  0.03960  Biso   1.000  C
  C112     1.0000 0.67340  0.55860  0.24460  Biso   1.000  C
  C113     1.0000 0.64870  0.59300  0.22060  Biso   1.000  C
  C114     1.0000 0.66160  0.60610  0.17900  Biso   1.000  C
  H23      1.0000 0.68520  0.59230  0.16530  Biso   1.000  H
  C115     1.0000 0.62480  0.66200  0.08280  Biso   1.000  C
  O70      1.0000 0.20860  0.04510  0.72750  Biso   1.000  O
  O71      1.0000 0.15670  0.04470  0.78010  Biso   1.000  O
  O72      1.0000 0.08470  0.16220  0.58390  Biso   1.000  O
  C116     1.0000 0.14740  0.17020  0.53960  Biso   1.000  C
  C117     1.0000 0.17340  0.05860  0.74460  Biso   1.000  C
  C118     1.0000 0.14870  0.09300  0.72060  Biso   1.000  C
  C119     1.0000 0.16160  0.10610  0.67900  Biso   1.000  C
  H24      1.0000 0.18520  0.09230  0.66530  Biso   1.000  H
  C120     1.0000 0.12480  0.16200  0.58280  Biso   1.000  C
  O73      1.0000 0.29140  0.22750  0.54510  Biso   1.000  O
  O74      1.0000 0.34330  0.28010  0.54470  Biso   1.000  O
  O75      1.0000 0.41530  0.08390  0.66220  Biso   1.000  O
  C121     1.0000 0.35260  0.03960  0.67020  Biso   1.000  C
  C122     1.0000 0.32660  0.24460  0.55860  Biso   1.000  C
  C123     1.0000 0.35130  0.22060  0.59300  Biso   1.000  C
  C124     1.0000 0.33840  0.17900  0.60610  Biso   1.000  C
  H25      1.0000 0.31480  0.16530  0.59230  Biso   1.000  H
  C125     1.0000 0.37520  0.08280  0.66200  Biso   1.000  C
  O76      1.0000 0.79140  0.72750  0.04510  Biso   1.000  O
  O77      1.0000 0.84330  0.78010  0.04470  Biso   1.000  O
  O78      1.0000 0.91530  0.58390  0.16220  Biso   1.000  O
  C126     1.0000 0.85260  0.53960  0.17020  Biso   1.000  C
  C127     1.0000 0.82660  0.74460  0.05860  Biso   1.000  C
  C128     1.0000 0.85130  0.72060  0.09300  Biso   1.000  C
  C129     1.0000 0.83840  0.67900  0.10610  Biso   1.000  C
  H26      1.0000 0.81480  0.66530  0.09230  Biso   1.000  H
  C130     1.0000 0.87520  0.58280  0.16200  Biso   1.000  C
  O79      1.0000 0.70860  0.77250  0.54510  Biso   1.000  O
  O80      1.0000 0.65670  0.71990  0.54470  Biso   1.000  O
  O81      1.0000 0.58470  0.91610  0.66220  Biso   1.000  O
  C131     1.0000 0.64740  0.96040  0.67020  Biso   1.000  C
  C132     1.0000 0.67340  0.75540  0.55860  Biso   1.000  C
  C133     1.0000 0.64870  0.77940  0.59300  Biso   1.000  C
  C134     1.0000 0.66160  0.82100  0.60610  Biso   1.000  C
  H27      1.0000 0.68520  0.83470  0.59230  Biso   1.000  H
  C135     1.0000 0.62480  0.91720  0.66200  Biso   1.000  C
  O82      1.0000 0.20860  0.27250  0.04510  Biso   1.000  O
  O83      1.0000 0.15670  0.21990  0.04470  Biso   1.000  O
  O84      1.0000 0.08470  0.41610  0.16220  Biso   1.000  O
  C136     1.0000 0.14740  0.46040  0.17020  Biso   1.000  C
  C137     1.0000 0.17340  0.25540  0.05860  Biso   1.000  C
  C138     1.0000 0.14870  0.27940  0.09300  Biso   1.000  C
  C139     1.0000 0.16160  0.32100  0.10610  Biso   1.000  C
  H28      1.0000 0.18520  0.33470  0.09230  Biso   1.000  H
  C140     1.0000 0.12480  0.41720  0.16200  Biso   1.000  C
  O85      1.0000 0.29140  0.77250  0.45490  Biso   1.000  O
  O86      1.0000 0.34330  0.71990  0.45530  Biso   1.000  O
  O87      1.0000 0.41530  0.91610  0.33780  Biso   1.000  O
  C141     1.0000 0.35260  0.96040  0.32980  Biso   1.000  C
  C142     1.0000 0.32660  0.75540  0.44140  Biso   1.000  C
  C143     1.0000 0.35130  0.77940  0.40700  Biso   1.000  C
  C144     1.0000 0.33840  0.82100  0.39390  Biso   1.000  C
  H29      1.0000 0.31480  0.83470  0.40770  Biso   1.000  H
  C145     1.0000 0.37520  0.91720  0.33800  Biso   1.000  C
  O88      1.0000 0.79140  0.27250  0.95490  Biso   1.000  O
  O89      1.0000 0.84330  0.21990  0.95530  Biso   1.000  O
  O90      1.0000 0.91530  0.41610  0.83780  Biso   1.000  O
  C146     1.0000 0.85260  0.46040  0.82980  Biso   1.000  C
  C147     1.0000 0.82660  0.25540  0.94140  Biso   1.000  C
  C148     1.0000 0.85130  0.27940  0.90700  Biso   1.000  C
  C149     1.0000 0.83840  0.32100  0.89390  Biso   1.000  C
  H30      1.0000 0.81480  0.33470  0.90770  Biso   1.000  H
  C150     1.0000 0.87520  0.41720  0.83800  Biso   1.000  C
  O91      1.0000 0.70860  0.22750  0.45490  Biso   1.000  O
  O92      1.0000 0.65670  0.28010  0.45530  Biso   1.000  O
  O93      1.0000 0.58470  0.08390  0.33780  Biso   1.000  O
  C151     1.0000 0.64740  0.03960  0.32980  Biso   1.000  C
  C152     1.0000 0.67340  0.24460  0.44140  Biso   1.000  C
  C153     1.0000 0.64870  0.22060  0.40700  Biso   1.000  C
  C154     1.0000 0.66160  0.17900  0.39390  Biso   1.000  C
  H31      1.0000 0.68520  0.16530  0.40770  Biso   1.000  H
  C155     1.0000 0.62480  0.08280  0.33800  Biso   1.000  C
  O94      1.0000 0.20860  0.72750  0.95490  Biso   1.000  O
  O95      1.0000 0.15670  0.78010  0.95530  Biso   1.000  O
  O96      1.0000 0.08470  0.58390  0.83780  Biso   1.000  O
  C156     1.0000 0.14740  0.53960  0.82980  Biso   1.000  C
  C157     1.0000 0.17340  0.74460  0.94140  Biso   1.000  C
  C158     1.0000 0.14870  0.72060  0.90700  Biso   1.000  C
  C159     1.0000 0.16160  0.67900  0.89390  Biso   1.000  C
  H32      1.0000 0.18520  0.66530  0.90770  Biso   1.000  H
  C160     1.0000 0.12480  0.58280  0.83800  Biso   1.000  C
  O97      1.0000 0.22750  0.45490  0.70860  Biso   1.000  O
  O98      1.0000 0.28010  0.45530  0.65670  Biso   1.000  O
  O99      1.0000 0.08390  0.33780  0.58470  Biso   1.000  O
  C161     1.0000 0.03960  0.32980  0.64740  Biso   1.000  C
  C162     1.0000 0.24460  0.44140  0.67340  Biso   1.000  C
  C163     1.0000 0.22060  0.40700  0.64870  Biso   1.000  C
  C164     1.0000 0.17900  0.39390  0.66160  Biso   1.000  C
  H33      1.0000 0.16530  0.40770  0.68520  Biso   1.000  H
  C165     1.0000 0.08280  0.33800  0.62480  Biso   1.000  C
  O100     1.0000 0.72750  0.95490  0.20860  Biso   1.000  O
  O101     1.0000 0.78010  0.95530  0.15670  Biso   1.000  O
  O102     1.0000 0.58390  0.83780  0.08470  Biso   1.000  O
  C166     1.0000 0.53960  0.82980  0.14740  Biso   1.000  C
  C167     1.0000 0.74460  0.94140  0.17340  Biso   1.000  C
  C168     1.0000 0.72060  0.90700  0.14870  Biso   1.000  C
  C169     1.0000 0.67900  0.89390  0.16160  Biso   1.000  C
  H34      1.0000 0.66530  0.90770  0.18520  Biso   1.000  H
  C170     1.0000 0.58280  0.83800  0.12480  Biso   1.000  C
  O103     1.0000 0.77250  0.45490  0.29140  Biso   1.000  O
  O104     1.0000 0.71990  0.45530  0.34330  Biso   1.000  O
  O105     1.0000 0.91610  0.33780  0.41530  Biso   1.000  O
  C171     1.0000 0.96040  0.32980  0.35260  Biso   1.000  C
  C172     1.0000 0.75540  0.44140  0.32660  Biso   1.000  C
  C173     1.0000 0.77940  0.40700  0.35130  Biso   1.000  C
  C174     1.0000 0.82100  0.39390  0.33840  Biso   1.000  C
  H35      1.0000 0.83470  0.40770  0.31480  Biso   1.000  H
  C175     1.0000 0.91720  0.33800  0.37520  Biso   1.000  C
  O106     1.0000 0.27250  0.95490  0.79140  Biso   1.000  O
  O107     1.0000 0.21990  0.95530  0.84330  Biso   1.000  O
  O108     1.0000 0.41610  0.83780  0.91530  Biso   1.000  O
  C176     1.0000 0.46040  0.82980  0.85260  Biso   1.000  C
  C177     1.0000 0.25540  0.94140  0.82660  Biso   1.000  C
  C178     1.0000 0.27940  0.90700  0.85130  Biso   1.000  C
  C179     1.0000 0.32100  0.89390  0.83840  Biso   1.000  C
  H36      1.0000 0.33470  0.90770  0.81480  Biso   1.000  H
  C180     1.0000 0.41720  0.83800  0.87520  Biso   1.000  C
  O109     1.0000 0.77250  0.54510  0.70860  Biso   1.000  O
  O110     1.0000 0.71990  0.54470  0.65670  Biso   1.000  O
  O111     1.0000 0.91610  0.66220  0.58470  Biso   1.000  O
  C181     1.0000 0.96040  0.67020  0.64740  Biso   1.000  C
  C182     1.0000 0.75540  0.55860  0.67340  Biso   1.000  C
  C183     1.0000 0.77940  0.59300  0.64870  Biso   1.000  C
  C184     1.0000 0.82100  0.60610  0.66160  Biso   1.000  C
  H37      1.0000 0.83470  0.59230  0.68520  Biso   1.000  H
  C185     1.0000 0.91720  0.66200  0.62480  Biso   1.000  C
  O112     1.0000 0.27250  0.04510  0.20860  Biso   1.000  O
  O113     1.0000 0.21990  0.04470  0.15670  Biso   1.000  O
  O114     1.0000 0.41610  0.16220  0.08470  Biso   1.000  O
  C186     1.0000 0.46040  0.17020  0.14740  Biso   1.000  C
  C187     1.0000 0.25540  0.05860  0.17340  Biso   1.000  C
  C188     1.0000 0.27940  0.09300  0.14870  Biso   1.000  C
  C189     1.0000 0.32100  0.10610  0.16160  Biso   1.000  C
  H38      1.0000 0.33470  0.09230  0.18520  Biso   1.000  H
  C190     1.0000 0.41720  0.16200  0.12480  Biso   1.000  C
  O115     1.0000 0.22750  0.54510  0.29140  Biso   1.000  O
  O116     1.0000 0.28010  0.54470  0.34330  Biso   1.000  O
  O117     1.0000 0.08390  0.66220  0.41530  Biso   1.000  O
  C191     1.0000 0.03960  0.67020  0.35260  Biso   1.000  C
  C192     1.0000 0.24460  0.55860  0.32660  Biso   1.000  C
  C193     1.0000 0.22060  0.59300  0.35130  Biso   1.000  C
  C194     1.0000 0.17900  0.60610  0.33840  Biso   1.000  C
  H39      1.0000 0.16530  0.59230  0.31480  Biso   1.000  H
  C195     1.0000 0.08280  0.66200  0.37520  Biso   1.000  C
  O118     1.0000 0.72750  0.04510  0.79140  Biso   1.000  O
  O119     1.0000 0.78010  0.04470  0.84330  Biso   1.000  O
  O120     1.0000 0.58390  0.16220  0.91530  Biso   1.000  O
  C196     1.0000 0.53960  0.17020  0.85260  Biso   1.000  C
  C197     1.0000 0.74460  0.05860  0.82660  Biso   1.000  C
  C198     1.0000 0.72060  0.09300  0.85130  Biso   1.000  C
  C199     1.0000 0.67900  0.10610  0.83840  Biso   1.000  C
  H40      1.0000 0.66530  0.09230  0.81480  Biso   1.000  H
  C200     1.0000 0.58280  0.16200  0.87520  Biso   1.000  C
  O121     1.0000 0.45490  0.29140  0.77250  Biso   1.000  O
  O122     1.0000 0.45530  0.34330  0.71990  Biso   1.000  O
  O123     1.0000 0.33780  0.41530  0.91610  Biso   1.000  O
  C201     1.0000 0.32980  0.35260  0.96040  Biso   1.000  C
  C202     1.0000 0.44140  0.32660  0.75540  Biso   1.000  C
  C203     1.0000 0.40700  0.35130  0.77940  Biso   1.000  C
  C204     1.0000 0.39390  0.33840  0.82100  Biso   1.000  C
  H41      1.0000 0.40770  0.31480  0.83470  Biso   1.000  H
  C205     1.0000 0.33800  0.37520  0.91720  Biso   1.000  C
  O124     1.0000 0.95490  0.79140  0.27250  Biso   1.000  O
  O125     1.0000 0.95530  0.84330  0.21990  Biso   1.000  O
  O126     1.0000 0.83780  0.91530  0.41610  Biso   1.000  O
  C206     1.0000 0.82980  0.85260  0.46040  Biso   1.000  C
  C207     1.0000 0.94140  0.82660  0.25540  Biso   1.000  C
  C208     1.0000 0.90700  0.85130  0.27940  Biso   1.000  C
  C209     1.0000 0.89390  0.83840  0.32100  Biso   1.000  C
  H42      1.0000 0.90770  0.81480  0.33470  Biso   1.000  H
  C210     1.0000 0.83800  0.87520  0.41720  Biso   1.000  C
  O127     1.0000 0.45490  0.70860  0.22750  Biso   1.000  O
  O128     1.0000 0.45530  0.65670  0.28010  Biso   1.000  O
  O129     1.0000 0.33780  0.58470  0.08390  Biso   1.000  O
  C211     1.0000 0.32980  0.64740  0.03960  Biso   1.000  C
  C212     1.0000 0.44140  0.67340  0.24460  Biso   1.000  C
  C213     1.0000 0.40700  0.64870  0.22060  Biso   1.000  C
  C214     1.0000 0.39390  0.66160  0.17900  Biso   1.000  C
  H43      1.0000 0.40770  0.68520  0.16530  Biso   1.000  H
  C215     1.0000 0.33800  0.62480  0.08280  Biso   1.000  C
  O130     1.0000 0.95490  0.20860  0.72750  Biso   1.000  O
  O131     1.0000 0.95530  0.15670  0.78010  Biso   1.000  O
  O132     1.0000 0.83780  0.08470  0.58390  Biso   1.000  O
  C216     1.0000 0.82980  0.14740  0.53960  Biso   1.000  C
  C217     1.0000 0.94140  0.17340  0.74460  Biso   1.000  C
  C218     1.0000 0.90700  0.14870  0.72060  Biso   1.000  C
  C219     1.0000 0.89390  0.16160  0.67900  Biso   1.000  C
  H44      1.0000 0.90770  0.18520  0.66530  Biso   1.000  H
  C220     1.0000 0.83800  0.12480  0.58280  Biso   1.000  C
  O133     1.0000 0.54510  0.29140  0.22750  Biso   1.000  O
  O134     1.0000 0.54470  0.34330  0.28010  Biso   1.000  O
  O135     1.0000 0.66220  0.41530  0.08390  Biso   1.000  O
  C221     1.0000 0.67020  0.35260  0.03960  Biso   1.000  C
  C222     1.0000 0.55860  0.32660  0.24460  Biso   1.000  C
  C223     1.0000 0.59300  0.35130  0.22060  Biso   1.000  C
  C224     1.0000 0.60610  0.33840  0.17900  Biso   1.000  C
  H45      1.0000 0.59230  0.31480  0.16530  Biso   1.000  H
  C225     1.0000 0.66200  0.37520  0.08280  Biso   1.000  C
  O136     1.0000 0.04510  0.79140  0.72750  Biso   1.000  O
  O137     1.0000 0.04470  0.84330  0.78010  Biso   1.000  O
  O138     1.0000 0.16220  0.91530  0.58390  Biso   1.000  O
  C226     1.0000 0.17020  0.85260  0.53960  Biso   1.000  C
  C227     1.0000 0.05860  0.82660  0.74460  Biso   1.000  C
  C228     1.0000 0.09300  0.85130  0.72060  Biso   1.000  C
  C229     1.0000 0.10610  0.83840  0.67900  Biso   1.000  C
  H46      1.0000 0.09230  0.81480  0.66530  Biso   1.000  H
  C230     1.0000 0.16200  0.87520  0.58280  Biso   1.000  C
  O139     1.0000 0.54510  0.70860  0.77250  Biso   1.000  O
  O140     1.0000 0.54470  0.65670  0.71990  Biso   1.000  O
  O141     1.0000 0.66220  0.58470  0.91610  Biso   1.000  O
  C231     1.0000 0.67020  0.64740  0.96040  Biso   1.000  C
  C232     1.0000 0.55860  0.67340  0.75540  Biso   1.000  C
  C233     1.0000 0.59300  0.64870  0.77940  Biso   1.000  C
  C234     1.0000 0.60610  0.66160  0.82100  Biso   1.000  C
  H47      1.0000 0.59230  0.68520  0.83470  Biso   1.000  H
  C235     1.0000 0.66200  0.62480  0.91720  Biso   1.000  C
  O142     1.0000 0.04510  0.20860  0.27250  Biso   1.000  O
  O143     1.0000 0.04470  0.15670  0.21990  Biso   1.000  O
  O144     1.0000 0.16220  0.08470  0.41610  Biso   1.000  O
  C236     1.0000 0.17020  0.14740  0.46040  Biso   1.000  C
  C237     1.0000 0.05860  0.17340  0.25540  Biso   1.000  C
  C238     1.0000 0.09300  0.14870  0.27940  Biso   1.000  C
  C239     1.0000 0.10610  0.16160  0.32100  Biso   1.000  C
  H48      1.0000 0.09230  0.18520  0.33470  Biso   1.000  H
  C240     1.0000 0.16200  0.12480  0.41720  Biso   1.000  C
  O145     1.0000 0.77250  0.70860  0.54510  Biso   1.000  O
  O146     1.0000 0.71990  0.65670  0.54470  Biso   1.000  O
  O147     1.0000 0.91610  0.58470  0.66220  Biso   1.000  O
  C241     1.0000 0.96040  0.64740  0.67020  Biso   1.000  C
  C242     1.0000 0.75540  0.67340  0.55860  Biso   1.000  C
  C243     1.0000 0.77940  0.64870  0.59300  Biso   1.000  C
  C244     1.0000 0.82100  0.66160  0.60610  Biso   1.000  C
  H49      1.0000 0.83470  0.68520  0.59230  Biso   1.000  H
  C245     1.0000 0.91720  0.62480  0.66200  Biso   1.000  C
  O148     1.0000 0.27250  0.20860  0.04510  Biso   1.000  O
  O149     1.0000 0.21990  0.15670  0.04470  Biso   1.000  O
  O150     1.0000 0.41610  0.08470  0.16220  Biso   1.000  O
  C246     1.0000 0.46040  0.14740  0.17020  Biso   1.000  C
  C247     1.0000 0.25540  0.17340  0.05860  Biso   1.000  C
  C248     1.0000 0.27940  0.14870  0.09300  Biso   1.000  C
  C249     1.0000 0.32100  0.16160  0.10610  Biso   1.000  C
  H50      1.0000 0.33470  0.18520  0.09230  Biso   1.000  H
  C250     1.0000 0.41720  0.12480  0.16200  Biso   1.000  C
  O151     1.0000 0.22750  0.29140  0.54510  Biso   1.000  O
  O152     1.0000 0.28010  0.34330  0.54470  Biso   1.000  O
  O153     1.0000 0.08390  0.41530  0.66220  Biso   1.000  O
  C251     1.0000 0.03960  0.35260  0.67020  Biso   1.000  C
  C252     1.0000 0.24460  0.32660  0.55860  Biso   1.000  C
  C253     1.0000 0.22060  0.35130  0.59300  Biso   1.000  C
  C254     1.0000 0.17900  0.33840  0.60610  Biso   1.000  C
  H51      1.0000 0.16530  0.31480  0.59230  Biso   1.000  H
  C255     1.0000 0.08280  0.37520  0.66200  Biso   1.000  C
  O154     1.0000 0.72750  0.79140  0.04510  Biso   1.000  O
  O155     1.0000 0.78010  0.84330  0.04470  Biso   1.000  O
  O156     1.0000 0.58390  0.91530  0.16220  Biso   1.000  O
  C256     1.0000 0.53960  0.85260  0.17020  Biso   1.000  C
  C257     1.0000 0.74460  0.82660  0.05860  Biso   1.000  C
  C258     1.0000 0.72060  0.85130  0.09300  Biso   1.000  C
  C259     1.0000 0.67900  0.83840  0.10610  Biso   1.000  C
  H52      1.0000 0.66530  0.81480  0.09230  Biso   1.000  H
  C260     1.0000 0.58280  0.87520  0.16200  Biso   1.000  C
  O157     1.0000 0.22750  0.70860  0.45490  Biso   1.000  O
  O158     1.0000 0.28010  0.65670  0.45530  Biso   1.000  O
  O159     1.0000 0.08390  0.58470  0.33780  Biso   1.000  O
  C261     1.0000 0.03960  0.64740  0.32980  Biso   1.000  C
  C262     1.0000 0.24460  0.67340  0.44140  Biso   1.000  C
  C263     1.0000 0.22060  0.64870  0.40700  Biso   1.000  C
  C264     1.0000 0.17900  0.66160  0.39390  Biso   1.000  C
  H53      1.0000 0.16530  0.68520  0.40770  Biso   1.000  H
  C265     1.0000 0.08280  0.62480  0.33800  Biso   1.000  C
  O160     1.0000 0.72750  0.20860  0.95490  Biso   1.000  O
  O161     1.0000 0.78010  0.15670  0.95530  Biso   1.000  O
  O162     1.0000 0.58390  0.08470  0.83780  Biso   1.000  O
  C266     1.0000 0.53960  0.14740  0.82980  Biso   1.000  C
  C267     1.0000 0.74460  0.17340  0.94140  Biso   1.000  C
  C268     1.0000 0.72060  0.14870  0.90700  Biso   1.000  C
  C269     1.0000 0.67900  0.16160  0.89390  Biso   1.000  C
  H54      1.0000 0.66530  0.18520  0.90770  Biso   1.000  H
  C270     1.0000 0.58280  0.12480  0.83800  Biso   1.000  C
  O163     1.0000 0.77250  0.29140  0.45490  Biso   1.000  O
  O164     1.0000 0.71990  0.34330  0.45530  Biso   1.000  O
  O165     1.0000 0.91610  0.41530  0.33780  Biso   1.000  O
  C271     1.0000 0.96040  0.35260  0.32980  Biso   1.000  C
  C272     1.0000 0.75540  0.32660  0.44140  Biso   1.000  C
  C273     1.0000 0.77940  0.35130  0.40700  Biso   1.000  C
  C274     1.0000 0.82100  0.33840  0.39390  Biso   1.000  C
  H55      1.0000 0.83470  0.31480  0.40770  Biso   1.000  H
  C275     1.0000 0.91720  0.37520  0.33800  Biso   1.000  C
  O166     1.0000 0.27250  0.79140  0.95490  Biso   1.000  O
  O167     1.0000 0.21990  0.84330  0.95530  Biso   1.000  O
  O168     1.0000 0.41610  0.91530  0.83780  Biso   1.000  O
  C276     1.0000 0.46040  0.85260  0.82980  Biso   1.000  C
  C277     1.0000 0.25540  0.82660  0.94140  Biso   1.000  C
  C278     1.0000 0.27940  0.85130  0.90700  Biso   1.000  C
  C279     1.0000 0.32100  0.83840  0.89390  Biso   1.000  C
  H56      1.0000 0.33470  0.81480  0.90770  Biso   1.000  H
  C280     1.0000 0.41720  0.87520  0.83800  Biso   1.000  C
  O169     1.0000 0.54510  0.77250  0.70860  Biso   1.000  O
  O170     1.0000 0.54470  0.71990  0.65670  Biso   1.000  O
  O171     1.0000 0.66220  0.91610  0.58470  Biso   1.000  O
  C281     1.0000 0.67020  0.96040  0.64740  Biso   1.000  C
  C282     1.0000 0.55860  0.75540  0.67340  Biso   1.000  C
  C283     1.0000 0.59300  0.77940  0.64870  Biso   1.000  C
  C284     1.0000 0.60610  0.82100  0.66160  Biso   1.000  C
  H57      1.0000 0.59230  0.83470  0.68520  Biso   1.000  H
  C285     1.0000 0.66200  0.91720  0.62480  Biso   1.000  C
  O172     1.0000 0.04510  0.27250  0.20860  Biso   1.000  O
  O173     1.0000 0.04470  0.21990  0.15670  Biso   1.000  O
  O174     1.0000 0.16220  0.41610  0.08470  Biso   1.000  O
  C286     1.0000 0.17020  0.46040  0.14740  Biso   1.000  C
  C287     1.0000 0.05860  0.25540  0.17340  Biso   1.000  C
  C288     1.0000 0.09300  0.27940  0.14870  Biso   1.000  C
  C289     1.0000 0.10610  0.32100  0.16160  Biso   1.000  C
  H58      1.0000 0.09230  0.33470  0.18520  Biso   1.000  H
  C290     1.0000 0.16200  0.41720  0.12480  Biso   1.000  C
  O175     1.0000 0.54510  0.22750  0.29140  Biso   1.000  O
  O176     1.0000 0.54470  0.28010  0.34330  Biso   1.000  O
  O177     1.0000 0.66220  0.08390  0.41530  Biso   1.000  O
  C291     1.0000 0.67020  0.03960  0.35260  Biso   1.000  C
  C292     1.0000 0.55860  0.24460  0.32660  Biso   1.000  C
  C293     1.0000 0.59300  0.22060  0.35130  Biso   1.000  C
  C294     1.0000 0.60610  0.17900  0.33840  Biso   1.000  C
  H59      1.0000 0.59230  0.16530  0.31480  Biso   1.000  H
  C295     1.0000 0.66200  0.08280  0.37520  Biso   1.000  C
  O178     1.0000 0.04510  0.72750  0.79140  Biso   1.000  O
  O179     1.0000 0.04470  0.78010  0.84330  Biso   1.000  O
  O180     1.0000 0.16220  0.58390  0.91530  Biso   1.000  O
  C296     1.0000 0.17020  0.53960  0.85260  Biso   1.000  C
  C297     1.0000 0.05860  0.74460  0.82660  Biso   1.000  C
  C298     1.0000 0.09300  0.72060  0.85130  Biso   1.000  C
  C299     1.0000 0.10610  0.67900  0.83840  Biso   1.000  C
  H60      1.0000 0.09230  0.66530  0.81480  Biso   1.000  H
  C300     1.0000 0.16200  0.58280  0.87520  Biso   1.000  C
  O181     1.0000 0.45490  0.22750  0.70860  Biso   1.000  O
  O182     1.0000 0.45530  0.28010  0.65670  Biso   1.000  O
  O183     1.0000 0.33780  0.08390  0.58470  Biso   1.000  O
  C301     1.0000 0.32980  0.03960  0.64740  Biso   1.000  C
  C302     1.0000 0.44140  0.24460  0.67340  Biso   1.000  C
  C303     1.0000 0.40700  0.22060  0.64870  Biso   1.000  C
  C304     1.0000 0.39390  0.17900  0.66160  Biso   1.000  C
  H61      1.0000 0.40770  0.16530  0.68520  Biso   1.000  H
  C305     1.0000 0.33800  0.08280  0.62480  Biso   1.000  C
  O184     1.0000 0.95490  0.72750  0.20860  Biso   1.000  O
  O185     1.0000 0.95530  0.78010  0.15670  Biso   1.000  O
  O186     1.0000 0.83780  0.58390  0.08470  Biso   1.000  O
  C306     1.0000 0.82980  0.53960  0.14740  Biso   1.000  C
  C307     1.0000 0.94140  0.74460  0.17340  Biso   1.000  C
  C308     1.0000 0.90700  0.72060  0.14870  Biso   1.000  C
  C309     1.0000 0.89390  0.67900  0.16160  Biso   1.000  C
  H62      1.0000 0.90770  0.66530  0.18520  Biso   1.000  H
  C310     1.0000 0.83800  0.58280  0.12480  Biso   1.000  C
  O187     1.0000 0.45490  0.77250  0.29140  Biso   1.000  O
  O188     1.0000 0.45530  0.71990  0.34330  Biso   1.000  O
  O189     1.0000 0.33780  0.91610  0.41530  Biso   1.000  O
  C311     1.0000 0.32980  0.96040  0.35260  Biso   1.000  C
  C312     1.0000 0.44140  0.75540  0.32660  Biso   1.000  C
  C313     1.0000 0.40700  0.77940  0.35130  Biso   1.000  C
  C314     1.0000 0.39390  0.82100  0.33840  Biso   1.000  C
  H63      1.0000 0.40770  0.83470  0.31480  Biso   1.000  H
  C315     1.0000 0.33800  0.91720  0.37520  Biso   1.000  C
  O190     1.0000 0.95490  0.27250  0.79140  Biso   1.000  O
  O191     1.0000 0.95530  0.21990  0.84330  Biso   1.000  O
  O192     1.0000 0.83780  0.41610  0.91530  Biso   1.000  O
  C316     1.0000 0.82980  0.46040  0.85260  Biso   1.000  C
  C317     1.0000 0.94140  0.25540  0.82660  Biso   1.000  C
  C318     1.0000 0.90700  0.27940  0.85130  Biso   1.000  C
  C319     1.0000 0.89390  0.32100  0.83840  Biso   1.000  C
  H64      1.0000 0.90770  0.33470  0.81480  Biso   1.000  H
  C320     1.0000 0.83800  0.41720  0.87520  Biso   1.000  C
  O193     1.0000 0.70860  0.54510  0.77250  Biso   1.000  O
  O194     1.0000 0.65670  0.54470  0.71990  Biso   1.000  O
  O195     1.0000 0.58470  0.66220  0.91610  Biso   1.000  O
  C321     1.0000 0.64740  0.67020  0.96040  Biso   1.000  C
  C322     1.0000 0.67340  0.55860  0.75540  Biso   1.000  C
  C323     1.0000 0.64870  0.59300  0.77940  Biso   1.000  C
  C324     1.0000 0.66160  0.60610  0.82100  Biso   1.000  C
  H65      1.0000 0.68520  0.59230  0.83470  Biso   1.000  H
  C325     1.0000 0.62480  0.66200  0.91720  Biso   1.000  C
  O196     1.0000 0.20860  0.04510  0.27250  Biso   1.000  O
  O197     1.0000 0.15670  0.04470  0.21990  Biso   1.000  O
  O198     1.0000 0.08470  0.16220  0.41610  Biso   1.000  O
  C326     1.0000 0.14740  0.17020  0.46040  Biso   1.000  C
  C327     1.0000 0.17340  0.05860  0.25540  Biso   1.000  C
  C328     1.0000 0.14870  0.09300  0.27940  Biso   1.000  C
  C329     1.0000 0.16160  0.10610  0.32100  Biso   1.000  C
  H66      1.0000 0.18520  0.09230  0.33470  Biso   1.000  H
  C330     1.0000 0.12480  0.16200  0.41720  Biso   1.000  C
  O199     1.0000 0.29140  0.54510  0.22750  Biso   1.000  O
  O200     1.0000 0.34330  0.54470  0.28010  Biso   1.000  O
  O201     1.0000 0.41530  0.66220  0.08390  Biso   1.000  O
  C331     1.0000 0.35260  0.67020  0.03960  Biso   1.000  C
  C332     1.0000 0.32660  0.55860  0.24460  Biso   1.000  C
  C333     1.0000 0.35130  0.59300  0.22060  Biso   1.000  C
  C334     1.0000 0.33840  0.60610  0.17900  Biso   1.000  C
  H67      1.0000 0.31480  0.59230  0.16530  Biso   1.000  H
  C335     1.0000 0.37520  0.66200  0.08280  Biso   1.000  C
  O202     1.0000 0.79140  0.04510  0.72750  Biso   1.000  O
  O203     1.0000 0.84330  0.04470  0.78010  Biso   1.000  O
  O204     1.0000 0.91530  0.16220  0.58390  Biso   1.000  O
  C336     1.0000 0.85260  0.17020  0.53960  Biso   1.000  C
  C337     1.0000 0.82660  0.05860  0.74460  Biso   1.000  C
  C338     1.0000 0.85130  0.09300  0.72060  Biso   1.000  C
  C339     1.0000 0.83840  0.10610  0.67900  Biso   1.000  C
  H68      1.0000 0.81480  0.09230  0.66530  Biso   1.000  H
  C340     1.0000 0.87520  0.16200  0.58280  Biso   1.000  C
  O205     1.0000 0.70860  0.45490  0.22750  Biso   1.000  O
  O206     1.0000 0.65670  0.45530  0.28010  Biso   1.000  O
  O207     1.0000 0.58470  0.33780  0.08390  Biso   1.000  O
  C341     1.0000 0.64740  0.32980  0.03960  Biso   1.000  C
  C342     1.0000 0.67340  0.44140  0.24460  Biso   1.000  C
  C343     1.0000 0.64870  0.40700  0.22060  Biso   1.000  C
  C344     1.0000 0.66160  0.39390  0.17900  Biso   1.000  C
  H69      1.0000 0.68520  0.40770  0.16530  Biso   1.000  H
  C345     1.0000 0.62480  0.33800  0.08280  Biso   1.000  C
  O208     1.0000 0.20860  0.95490  0.72750  Biso   1.000  O
  O209     1.0000 0.15670  0.95530  0.78010  Biso   1.000  O
  O210     1.0000 0.08470  0.83780  0.58390  Biso   1.000  O
  C346     1.0000 0.14740  0.82980  0.53960  Biso   1.000  C
  C347     1.0000 0.17340  0.94140  0.74460  Biso   1.000  C
  C348     1.0000 0.14870  0.90700  0.72060  Biso   1.000  C
  C349     1.0000 0.16160  0.89390  0.67900  Biso   1.000  C
  H70      1.0000 0.18520  0.90770  0.66530  Biso   1.000  H
  C350     1.0000 0.12480  0.83800  0.58280  Biso   1.000  C
  O211     1.0000 0.29140  0.45490  0.77250  Biso   1.000  O
  O212     1.0000 0.34330  0.45530  0.71990  Biso   1.000  O
  O213     1.0000 0.41530  0.33780  0.91610  Biso   1.000  O
  C351     1.0000 0.35260  0.32980  0.96040  Biso   1.000  C
  C352     1.0000 0.32660  0.44140  0.75540  Biso   1.000  C
  C353     1.0000 0.35130  0.40700  0.77940  Biso   1.000  C
  C354     1.0000 0.33840  0.39390  0.82100  Biso   1.000  C
  H71      1.0000 0.31480  0.40770  0.83470  Biso   1.000  H
  C355     1.0000 0.37520  0.33800  0.91720  Biso   1.000  C
  O214     1.0000 0.79140  0.95490  0.27250  Biso   1.000  O
  O215     1.0000 0.84330  0.95530  0.21990  Biso   1.000  O
  O216     1.0000 0.91530  0.83780  0.41610  Biso   1.000  O
  C356     1.0000 0.85260  0.82980  0.46040  Biso   1.000  C
  C357     1.0000 0.82660  0.94140  0.25540  Biso   1.000  C
  C358     1.0000 0.85130  0.90700  0.27940  Biso   1.000  C
  C359     1.0000 0.83840  0.89390  0.32100  Biso   1.000  C
  H72      1.0000 0.81480  0.90770  0.33470  Biso   1.000  H
  C360     1.0000 0.87520  0.83800  0.41720  Biso   1.000  C
  O217     1.0000 0.70860  0.77250  0.45490  Biso   1.000  O
  O218     1.0000 0.65670  0.71990  0.45530  Biso   1.000  O
  O219     1.0000 0.58470  0.91610  0.33780  Biso   1.000  O
  C361     1.0000 0.64740  0.96040  0.32980  Biso   1.000  C
  C362     1.0000 0.67340  0.75540  0.44140  Biso   1.000  C
  C363     1.0000 0.64870  0.77940  0.40700  Biso   1.000  C
  C364     1.0000 0.66160  0.82100  0.39390  Biso   1.000  C
  H73      1.0000 0.68520  0.83470  0.40770  Biso   1.000  H
  C365     1.0000 0.62480  0.91720  0.33800  Biso   1.000  C
  O220     1.0000 0.20860  0.27250  0.95490  Biso   1.000  O
  O221     1.0000 0.15670  0.21990  0.95530  Biso   1.000  O
  O222     1.0000 0.08470  0.41610  0.83780  Biso   1.000  O
  C366     1.0000 0.14740  0.46040  0.82980  Biso   1.000  C
  C367     1.0000 0.17340  0.25540  0.94140  Biso   1.000  C
  C368     1.0000 0.14870  0.27940  0.90700  Biso   1.000  C
  C369     1.0000 0.16160  0.32100  0.89390  Biso   1.000  C
  H74      1.0000 0.18520  0.33470  0.90770  Biso   1.000  H
  C370     1.0000 0.12480  0.41720  0.83800  Biso   1.000  C
  O223     1.0000 0.29140  0.22750  0.45490  Biso   1.000  O
  O224     1.0000 0.34330  0.28010  0.45530  Biso   1.000  O
  O225     1.0000 0.41530  0.08390  0.33780  Biso   1.000  O
  C371     1.0000 0.35260  0.03960  0.32980  Biso   1.000  C
  C372     1.0000 0.32660  0.24460  0.44140  Biso   1.000  C
  C373     1.0000 0.35130  0.22060  0.40700  Biso   1.000  C
  C374     1.0000 0.33840  0.17900  0.39390  Biso   1.000  C
  H75      1.0000 0.31480  0.16530  0.40770  Biso   1.000  H
  C375     1.0000 0.37520  0.08280  0.33800  Biso   1.000  C
  O226     1.0000 0.79140  0.72750  0.95490  Biso   1.000  O
  O227     1.0000 0.84330  0.78010  0.95530  Biso   1.000  O
  O228     1.0000 0.91530  0.58390  0.83780  Biso   1.000  O
  C376     1.0000 0.85260  0.53960  0.82980  Biso   1.000  C
  C377     1.0000 0.82660  0.74460  0.94140  Biso   1.000  C
  C378     1.0000 0.85130  0.72060  0.90700  Biso   1.000  C
  C379     1.0000 0.83840  0.67900  0.89390  Biso   1.000  C
  H76      1.0000 0.81480  0.66530  0.90770  Biso   1.000  H
  C380     1.0000 0.87520  0.58280  0.83800  Biso   1.000  C
  O229     1.0000 0.70860  0.22750  0.54510  Biso   1.000  O
  O230     1.0000 0.65670  0.28010  0.54470  Biso   1.000  O
  O231     1.0000 0.58470  0.08390  0.66220  Biso   1.000  O
  C381     1.0000 0.64740  0.03960  0.67020  Biso   1.000  C
  C382     1.0000 0.67340  0.24460  0.55860  Biso   1.000  C
  C383     1.0000 0.64870  0.22060  0.59300  Biso   1.000  C
  C384     1.0000 0.66160  0.17900  0.60610  Biso   1.000  C
  H77      1.0000 0.68520  0.16530  0.59230  Biso   1.000  H
  C385     1.0000 0.62480  0.08280  0.66200  Biso   1.000  C
  O232     1.0000 0.20860  0.72750  0.04510  Biso   1.000  O
  O233     1.0000 0.15670  0.78010  0.04470  Biso   1.000  O
  O234     1.0000 0.08470  0.58390  0.16220  Biso   1.000  O
  C386     1.0000 0.14740  0.53960  0.17020  Biso   1.000  C
  C387     1.0000 0.17340  0.74460  0.05860  Biso   1.000  C
  C388     1.0000 0.14870  0.72060  0.09300  Biso   1.000  C
  C389     1.0000 0.16160  0.67900  0.10610  Biso   1.000  C
  H78      1.0000 0.18520  0.66530  0.09230  Biso   1.000  H
  C390     1.0000 0.12480  0.58280  0.16200  Biso   1.000  C
  O235     1.0000 0.29140  0.77250  0.54510  Biso   1.000  O
  O236     1.0000 0.34330  0.71990  0.54470  Biso   1.000  O
  O237     1.0000 0.41530  0.91610  0.66220  Biso   1.000  O
  C391     1.0000 0.35260  0.96040  0.67020  Biso   1.000  C
  C392     1.0000 0.32660  0.75540  0.55860  Biso   1.000  C
  C393     1.0000 0.35130  0.77940  0.59300  Biso   1.000  C
  C394     1.0000 0.33840  0.82100  0.60610  Biso   1.000  C
  H79      1.0000 0.31480  0.83470  0.59230  Biso   1.000  H
  C395     1.0000 0.37520  0.91720  0.66200  Biso   1.000  C
  O238     1.0000 0.79140  0.27250  0.04510  Biso   1.000  O
  O239     1.0000 0.84330  0.21990  0.04470  Biso   1.000  O
  O240     1.0000 0.91530  0.41610  0.16220  Biso   1.000  O
  C396     1.0000 0.85260  0.46040  0.17020  Biso   1.000  C
  C397     1.0000 0.82660  0.25540  0.05860  Biso   1.000  C
  C398     1.0000 0.85130  0.27940  0.09300  Biso   1.000  C
  C399     1.0000 0.83840  0.32100  0.10610  Biso   1.000  C
  H80      1.0000 0.81480  0.33470  0.09230  Biso   1.000  H
  C400     1.0000 0.87520  0.41720  0.16200  Biso   1.000  C
  O241     1.0000 0.77250  0.54510  0.29140  Biso   1.000  O
  O242     1.0000 0.71990  0.54470  0.34330  Biso   1.000  O
  O243     1.0000 0.91610  0.66220  0.41530  Biso   1.000  O
  C401     1.0000 0.96040  0.67020  0.35260  Biso   1.000  C
  C402     1.0000 0.75540  0.55860  0.32660  Biso   1.000  C
  C403     1.0000 0.77940  0.59300  0.35130  Biso   1.000  C
  C404     1.0000 0.82100  0.60610  0.33840  Biso   1.000  C
  H81      1.0000 0.83470  0.59230  0.31480  Biso   1.000  H
  C405     1.0000 0.91720  0.66200  0.37520  Biso   1.000  C
  O244     1.0000 0.27250  0.04510  0.79140  Biso   1.000  O
  O245     1.0000 0.21990  0.04470  0.84330  Biso   1.000  O
  O246     1.0000 0.41610  0.16220  0.91530  Biso   1.000  O
  C406     1.0000 0.46040  0.17020  0.85260  Biso   1.000  C
  C407     1.0000 0.25540  0.05860  0.82660  Biso   1.000  C
  C408     1.0000 0.27940  0.09300  0.85130  Biso   1.000  C
  C409     1.0000 0.32100  0.10610  0.83840  Biso   1.000  C
  H82      1.0000 0.33470  0.09230  0.81480  Biso   1.000  H
  C410     1.0000 0.41720  0.16200  0.87520  Biso   1.000  C
  O247     1.0000 0.22750  0.54510  0.70860  Biso   1.000  O
  O248     1.0000 0.28010  0.54470  0.65670  Biso   1.000  O
  O249     1.0000 0.08390  0.66220  0.58470  Biso   1.000  O
  C411     1.0000 0.03960  0.67020  0.64740  Biso   1.000  C
  C412     1.0000 0.24460  0.55860  0.67340  Biso   1.000  C
  C413     1.0000 0.22060  0.59300  0.64870  Biso   1.000  C
  C414     1.0000 0.17900  0.60610  0.66160  Biso   1.000  C
  H83      1.0000 0.16530  0.59230  0.68520  Biso   1.000  H
  C415     1.0000 0.08280  0.66200  0.62480  Biso   1.000  C
  O250     1.0000 0.72750  0.04510  0.20860  Biso   1.000  O
  O251     1.0000 0.78010  0.04470  0.15670  Biso   1.000  O
  O252     1.0000 0.58390  0.16220  0.08470  Biso   1.000  O
  C416     1.0000 0.53960  0.17020  0.14740  Biso   1.000  C
  C417     1.0000 0.74460  0.05860  0.17340  Biso   1.000  C
  C418     1.0000 0.72060  0.09300  0.14870  Biso   1.000  C
  C419     1.0000 0.67900  0.10610  0.16160  Biso   1.000  C
  H84      1.0000 0.66530  0.09230  0.18520  Biso   1.000  H
  C420     1.0000 0.58280  0.16200  0.12480  Biso   1.000  C
  O253     1.0000 0.22750  0.45490  0.29140  Biso   1.000  O
  O254     1.0000 0.28010  0.45530  0.34330  Biso   1.000  O
  O255     1.0000 0.08390  0.33780  0.41530  Biso   1.000  O
  C421     1.0000 0.03960  0.32980  0.35260  Biso   1.000  C
  C422     1.0000 0.24460  0.44140  0.32660  Biso   1.000  C
  C423     1.0000 0.22060  0.40700  0.35130  Biso   1.000  C
  C424     1.0000 0.17900  0.39390  0.33840  Biso   1.000  C
  H85      1.0000 0.16530  0.40770  0.31480  Biso   1.000  H
  C425     1.0000 0.08280  0.33800  0.37520  Biso   1.000  C
  O256     1.0000 0.72750  0.95490  0.79140  Biso   1.000  O
  O257     1.0000 0.78010  0.95530  0.84330  Biso   1.000  O
  O258     1.0000 0.58390  0.83780  0.91530  Biso   1.000  O
  C426     1.0000 0.53960  0.82980  0.85260  Biso   1.000  C
  C427     1.0000 0.74460  0.94140  0.82660  Biso   1.000  C
  C428     1.0000 0.72060  0.90700  0.85130  Biso   1.000  C
  C429     1.0000 0.67900  0.89390  0.83840  Biso   1.000  C
  H86      1.0000 0.66530  0.90770  0.81480  Biso   1.000  H
  C430     1.0000 0.58280  0.83800  0.87520  Biso   1.000  C
  O259     1.0000 0.77250  0.45490  0.70860  Biso   1.000  O
  O260     1.0000 0.71990  0.45530  0.65670  Biso   1.000  O
  O261     1.0000 0.91610  0.33780  0.58470  Biso   1.000  O
  C431     1.0000 0.96040  0.32980  0.64740  Biso   1.000  C
  C432     1.0000 0.75540  0.44140  0.67340  Biso   1.000  C
  C433     1.0000 0.77940  0.40700  0.64870  Biso   1.000  C
  C434     1.0000 0.82100  0.39390  0.66160  Biso   1.000  C
  H87      1.0000 0.83470  0.40770  0.68520  Biso   1.000  H
  C435     1.0000 0.91720  0.33800  0.62480  Biso   1.000  C
  O262     1.0000 0.27250  0.95490  0.20860  Biso   1.000  O
  O263     1.0000 0.21990  0.95530  0.15670  Biso   1.000  O
  O264     1.0000 0.41610  0.83780  0.08470  Biso   1.000  O
  C436     1.0000 0.46040  0.82980  0.14740  Biso   1.000  C
  C437     1.0000 0.25540  0.94140  0.17340  Biso   1.000  C
  C438     1.0000 0.27940  0.90700  0.14870  Biso   1.000  C
  C439     1.0000 0.32100  0.89390  0.16160  Biso   1.000  C
  H88      1.0000 0.33470  0.90770  0.18520  Biso   1.000  H
  C440     1.0000 0.41720  0.83800  0.12480  Biso   1.000  C
  O265     1.0000 0.54510  0.70860  0.22750  Biso   1.000  O
  O266     1.0000 0.54470  0.65670  0.28010  Biso   1.000  O
  O267     1.0000 0.66220  0.58470  0.08390  Biso   1.000  O
  C441     1.0000 0.67020  0.64740  0.03960  Biso   1.000  C
  C442     1.0000 0.55860  0.67340  0.24460  Biso   1.000  C
  C443     1.0000 0.59300  0.64870  0.22060  Biso   1.000  C
  C444     1.0000 0.60610  0.66160  0.17900  Biso   1.000  C
  H89      1.0000 0.59230  0.68520  0.16530  Biso   1.000  H
  C445     1.0000 0.66200  0.62480  0.08280  Biso   1.000  C
  O268     1.0000 0.04510  0.20860  0.72750  Biso   1.000  O
  O269     1.0000 0.04470  0.15670  0.78010  Biso   1.000  O
  O270     1.0000 0.16220  0.08470  0.58390  Biso   1.000  O
  C446     1.0000 0.17020  0.14740  0.53960  Biso   1.000  C
  C447     1.0000 0.05860  0.17340  0.74460  Biso   1.000  C
  C448     1.0000 0.09300  0.14870  0.72060  Biso   1.000  C
  C449     1.0000 0.10610  0.16160  0.67900  Biso   1.000  C
  H90      1.0000 0.09230  0.18520  0.66530  Biso   1.000  H
  C450     1.0000 0.16200  0.12480  0.58280  Biso   1.000  C
  O271     1.0000 0.54510  0.29140  0.77250  Biso   1.000  O
  O272     1.0000 0.54470  0.34330  0.71990  Biso   1.000  O
  O273     1.0000 0.66220  0.41530  0.91610  Biso   1.000  O
  C451     1.0000 0.67020  0.35260  0.96040  Biso   1.000  C
  C452     1.0000 0.55860  0.32660  0.75540  Biso   1.000  C
  C453     1.0000 0.59300  0.35130  0.77940  Biso   1.000  C
  C454     1.0000 0.60610  0.33840  0.82100  Biso   1.000  C
  H91      1.0000 0.59230  0.31480  0.83470  Biso   1.000  H
  C455     1.0000 0.66200  0.37520  0.91720  Biso   1.000  C
  O274     1.0000 0.04510  0.79140  0.27250  Biso   1.000  O
  O275     1.0000 0.04470  0.84330  0.21990  Biso   1.000  O
  O276     1.0000 0.16220  0.91530  0.41610  Biso   1.000  O
  C456     1.0000 0.17020  0.85260  0.46040  Biso   1.000  C
  C457     1.0000 0.05860  0.82660  0.25540  Biso   1.000  C
  C458     1.0000 0.09300  0.85130  0.27940  Biso   1.000  C
  C459     1.0000 0.10610  0.83840  0.32100  Biso   1.000  C
  H92      1.0000 0.09230  0.81480  0.33470  Biso   1.000  H
  C460     1.0000 0.16200  0.87520  0.41720  Biso   1.000  C
  O277     1.0000 0.45490  0.70860  0.77250  Biso   1.000  O
  O278     1.0000 0.45530  0.65670  0.71990  Biso   1.000  O
  O279     1.0000 0.33780  0.58470  0.91610  Biso   1.000  O
  C461     1.0000 0.32980  0.64740  0.96040  Biso   1.000  C
  C462     1.0000 0.44140  0.67340  0.75540  Biso   1.000  C
  C463     1.0000 0.40700  0.64870  0.77940  Biso   1.000  C
  C464     1.0000 0.39390  0.66160  0.82100  Biso   1.000  C
  H93      1.0000 0.40770  0.68520  0.83470  Biso   1.000  H
  C465     1.0000 0.33800  0.62480  0.91720  Biso   1.000  C
  O280     1.0000 0.95490  0.20860  0.27250  Biso   1.000  O
  O281     1.0000 0.95530  0.15670  0.21990  Biso   1.000  O
  O282     1.0000 0.83780  0.08470  0.41610  Biso   1.000  O
  C466     1.0000 0.82980  0.14740  0.46040  Biso   1.000  C
  C467     1.0000 0.94140  0.17340  0.25540  Biso   1.000  C
  C468     1.0000 0.90700  0.14870  0.27940  Biso   1.000  C
  C469     1.0000 0.89390  0.16160  0.32100  Biso   1.000  C
  H94      1.0000 0.90770  0.18520  0.33470  Biso   1.000  H
  C470     1.0000 0.83800  0.12480  0.41720  Biso   1.000  C
  O283     1.0000 0.45490  0.29140  0.22750  Biso   1.000  O
  O284     1.0000 0.45530  0.34330  0.28010  Biso   1.000  O
  O285     1.0000 0.33780  0.41530  0.08390  Biso   1.000  O
  C471     1.0000 0.32980  0.35260  0.03960  Biso   1.000  C
  C472     1.0000 0.44140  0.32660  0.24460  Biso   1.000  C
  C473     1.0000 0.40700  0.35130  0.22060  Biso   1.000  C
  C474     1.0000 0.39390  0.33840  0.17900  Biso   1.000  C
  H95      1.0000 0.40770  0.31480  0.16530  Biso   1.000  H
  C475     1.0000 0.33800  0.37520  0.08280  Biso   1.000  C
  O286     1.0000 0.95490  0.79140  0.72750  Biso   1.000  O
  O287     1.0000 0.95530  0.84330  0.78010  Biso   1.000  O
  O288     1.0000 0.83780  0.91530  0.58390  Biso   1.000  O
  C476     1.0000 0.82980  0.85260  0.53960  Biso   1.000  C
  C477     1.0000 0.94140  0.82660  0.74460  Biso   1.000  C
  C478     1.0000 0.90700  0.85130  0.72060  Biso   1.000  C
  C479     1.0000 0.89390  0.83840  0.67900  Biso   1.000  C
  H96      1.0000 0.90770  0.81480  0.66530  Biso   1.000  H
  C480     1.0000 0.83800  0.87520  0.58280  Biso   1.000  C
  Cu1      1.0000 0.00000  0.18366  0.18366  Biso   1.000  Cu
  Cu2      1.0000 0.00000  0.24516  0.24516  Biso   1.000  Cu
  N1       1.0000 0.00000  0.29500  0.29500  Biso   1.000  N
  Cu3      1.0000 0.50000  0.68366  0.68366  Biso   1.000  Cu
  Cu4      1.0000 0.50000  0.74516  0.74516  Biso   1.000  Cu
  N2       1.0000 0.50000  0.79500  0.79500  Biso   1.000  N
  Cu5      1.0000 0.00000  0.81634  0.18366  Biso   1.000  Cu
  Cu6      1.0000 0.00000  0.75484  0.24516  Biso   1.000  Cu
  N3       1.0000 0.00000  0.70500  0.29500  Biso   1.000  N
  Cu7      1.0000 0.50000  0.31634  0.68366  Biso   1.000  Cu
  Cu8      1.0000 0.50000  0.25484  0.74516  Biso   1.000  Cu
  N4       1.0000 0.50000  0.20500  0.79500  Biso   1.000  N
  Cu9      1.0000 0.00000  0.18366  0.81634  Biso   1.000  Cu
  Cu10     1.0000 0.00000  0.24516  0.75484  Biso   1.000  Cu
  N5       1.0000 0.00000  0.29500  0.70500  Biso   1.000  N
  Cu11     1.0000 0.50000  0.68366  0.31634  Biso   1.000  Cu
  Cu12     1.0000 0.50000  0.74516  0.25484  Biso   1.000  Cu
  N6       1.0000 0.50000  0.79500  0.20500  Biso   1.000  N
  Cu13     1.0000 0.00000  0.81634  0.81634  Biso   1.000  Cu
  Cu14     1.0000 0.00000  0.75484  0.75484  Biso   1.000  Cu
  N7       1.0000 0.00000  0.70500  0.70500  Biso   1.000  N
  Cu15     1.0000 0.50000  0.31634  0.31634  Biso   1.000  Cu
  Cu16     1.0000 0.50000  0.25484  0.25484  Biso   1.000  Cu
  N8       1.0000 0.50000  0.20500  0.20500  Biso   1.000  N
  Cu17     1.0000 0.18366  0.00000  0.18366  Biso   1.000  Cu
  Cu18     1.0000 0.24516  0.00000  0.24516  Biso   1.000  Cu
  N9       1.0000 0.29500  0.00000  0.29500  Biso   1.000  N
  Cu19     1.0000 0.68366  0.50000  0.68366  Biso   1.000  Cu
  Cu20     1.0000 0.74516  0.50000  0.74516  Biso   1.000  Cu
  N10      1.0000 0.79500  0.50000  0.79500  Biso   1.000  N
  Cu21     1.0000 0.18366  0.00000  0.81634  Biso   1.000  Cu
  Cu22     1.0000 0.24516  0.00000  0.75484  Biso   1.000  Cu
  N11      1.0000 0.29500  0.00000  0.70500  Biso   1.000  N
  Cu23     1.0000 0.68366  0.50000  0.31634  Biso   1.000  Cu
  Cu24     1.0000 0.74516  0.50000  0.25484  Biso   1.000  Cu
  N12      1.0000 0.79500  0.50000  0.20500  Biso   1.000  N
  Cu25     1.0000 0.81634  0.00000  0.18366  Biso   1.000  Cu
  Cu26     1.0000 0.75484  0.00000  0.24516  Biso   1.000  Cu
  N13      1.0000 0.70500  0.00000  0.29500  Biso   1.000  N
  Cu27     1.0000 0.31634  0.50000  0.68366  Biso   1.000  Cu
  Cu28     1.0000 0.25484  0.50000  0.74516  Biso   1.000  Cu
  N14      1.0000 0.20500  0.50000  0.79500  Biso   1.000  N
  Cu29     1.0000 0.81634  0.00000  0.81634  Biso   1.000  Cu
  Cu30     1.0000 0.75484  0.00000  0.75484  Biso   1.000  Cu
  N15      1.0000 0.70500  0.00000  0.70500  Biso   1.000  N
  Cu31     1.0000 0.31634  0.50000  0.31634  Biso   1.000  Cu
  Cu32     1.0000 0.25484  0.50000  0.25484  Biso   1.000  Cu
  N16      1.0000 0.20500  0.50000  0.20500  Biso   1.000  N
  Cu33     1.0000 0.18366  0.18366  0.00000  Biso   1.000  Cu
  Cu34     1.0000 0.24516  0.24516  0.00000  Biso   1.000  Cu
  N17      1.0000 0.29500  0.29500  0.00000  Biso   1.000  N
  Cu35     1.0000 0.68366  0.68366  0.50000  Biso   1.000  Cu
  Cu36     1.0000 0.74516  0.74516  0.50000  Biso   1.000  Cu
  N18      1.0000 0.79500  0.79500  0.50000  Biso   1.000  N
  Cu37     1.0000 0.81634  0.18366  0.00000  Biso   1.000  Cu
  Cu38     1.0000 0.75484  0.24516  0.00000  Biso   1.000  Cu
  N19      1.0000 0.70500  0.29500  0.00000  Biso   1.000  N
  Cu39     1.0000 0.31634  0.68366  0.50000  Biso   1.000  Cu
  Cu40     1.0000 0.25484  0.74516  0.50000  Biso   1.000  Cu
  N20      1.0000 0.20500  0.79500  0.50000  Biso   1.000  N
  Cu41     1.0000 0.18366  0.81634  0.00000  Biso   1.000  Cu
  Cu42     1.0000 0.24516  0.75484  0.00000  Biso   1.000  Cu
  N21      1.0000 0.29500  0.70500  0.00000  Biso   1.000  N
  Cu43     1.0000 0.68366  0.31634  0.50000  Biso   1.000  Cu
  Cu44     1.0000 0.74516  0.25484  0.50000  Biso   1.000  Cu
  N22      1.0000 0.79500  0.20500  0.50000  Biso   1.000  N
  Cu45     1.0000 0.81634  0.81634  0.00000  Biso   1.000  Cu
  Cu46     1.0000 0.75484  0.75484  0.00000  Biso   1.000  Cu
  N23      1.0000 0.70500  0.70500  0.00000  Biso   1.000  N
  Cu47     1.0000 0.31634  0.31634  0.50000  Biso   1.000  Cu
  Cu48     1.0000 0.25484  0.25484  0.50000  Biso   1.000  Cu
  N24      1.0000 0.20500  0.20500  0.50000  Biso   1.000  N
  N25      1.0000 0.11490  0.34770  0.34770  Biso   1.000  N
  H97      1.0000 0.11550  0.32680  0.32680  Biso   1.000  H
  C481     1.0000 0.03700  0.30940  0.30940  Biso   1.000  C
  H98      1.0000 0.06500  0.29990  0.29990  Biso   1.000  H
  C482     1.0000 0.24240  0.38450  0.38450  Biso   1.000  C
  H99      1.0000 0.27130  0.39160  0.39160  Biso   1.000  H
  C483     1.0000 0.15780  0.36050  0.36050  Biso   1.000  C
  N26      1.0000 0.61490  0.84770  0.84770  Biso   1.000  N
  H100     1.0000 0.61550  0.82680  0.82680  Biso   1.000  H
  C484     1.0000 0.53700  0.80940  0.80940  Biso   1.000  C
  H101     1.0000 0.56500  0.79990  0.79990  Biso   1.000  H
  C485     1.0000 0.74240  0.88450  0.88450  Biso   1.000  C
  H102     1.0000 0.77130  0.89160  0.89160  Biso   1.000  H
  C486     1.0000 0.65780  0.86050  0.86050  Biso   1.000  C
  N27      1.0000 0.88510  0.65230  0.34770  Biso   1.000  N
  H103     1.0000 0.88450  0.67320  0.32680  Biso   1.000  H
  C487     1.0000 0.96300  0.69060  0.30940  Biso   1.000  C
  H104     1.0000 0.93500  0.70010  0.29990  Biso   1.000  H
  C488     1.0000 0.75760  0.61550  0.38450  Biso   1.000  C
  H105     1.0000 0.72870  0.60840  0.39160  Biso   1.000  H
  C489     1.0000 0.84220  0.63950  0.36050  Biso   1.000  C
  N28      1.0000 0.38510  0.15230  0.84770  Biso   1.000  N
  H106     1.0000 0.38450  0.17320  0.82680  Biso   1.000  H
  C490     1.0000 0.46300  0.19060  0.80940  Biso   1.000  C
  H107     1.0000 0.43500  0.20010  0.79990  Biso   1.000  H
  C491     1.0000 0.25760  0.11550  0.88450  Biso   1.000  C
  H108     1.0000 0.22870  0.10840  0.89160  Biso   1.000  H
  C492     1.0000 0.34220  0.13950  0.86050  Biso   1.000  C
  N29      1.0000 0.88510  0.34770  0.65230  Biso   1.000  N
  H109     1.0000 0.88450  0.32680  0.67320  Biso   1.000  H
  C493     1.0000 0.96300  0.30940  0.69060  Biso   1.000  C
  H110     1.0000 0.93500  0.29990  0.70010  Biso   1.000  H
  C494     1.0000 0.75760  0.38450  0.61550  Biso   1.000  C
  H111     1.0000 0.72870  0.39160  0.60840  Biso   1.000  H
  C495     1.0000 0.84220  0.36050  0.63950  Biso   1.000  C
  N30      1.0000 0.38510  0.84770  0.15230  Biso   1.000  N
  H112     1.0000 0.38450  0.82680  0.17320  Biso   1.000  H
  C496     1.0000 0.46300  0.80940  0.19060  Biso   1.000  C
  H113     1.0000 0.43500  0.79990  0.20010  Biso   1.000  H
  C497     1.0000 0.25760  0.88450  0.11550  Biso   1.000  C
  H114     1.0000 0.22870  0.89160  0.10840  Biso   1.000  H
  C498     1.0000 0.34220  0.86050  0.13950  Biso   1.000  C
  N31      1.0000 0.11490  0.65230  0.65230  Biso   1.000  N
  H115     1.0000 0.11550  0.67320  0.67320  Biso   1.000  H
  C499     1.0000 0.03700  0.69060  0.69060  Biso   1.000  C
  H116     1.0000 0.06500  0.70010  0.70010  Biso   1.000  H
  C500     1.0000 0.24240  0.61550  0.61550  Biso   1.000  C
  H117     1.0000 0.27130  0.60840  0.60840  Biso   1.000  H
  C501     1.0000 0.15780  0.63950  0.63950  Biso   1.000  C
  N32      1.0000 0.61490  0.15230  0.15230  Biso   1.000  N
  H118     1.0000 0.61550  0.17320  0.17320  Biso   1.000  H
  C502     1.0000 0.53700  0.19060  0.19060  Biso   1.000  C
  H119     1.0000 0.56500  0.20010  0.20010  Biso   1.000  H
  C503     1.0000 0.74240  0.11550  0.11550  Biso   1.000  C
  H120     1.0000 0.77130  0.10840  0.10840  Biso   1.000  H
  C504     1.0000 0.65780  0.13950  0.13950  Biso   1.000  C
  N33      1.0000 0.34770  0.11490  0.34770  Biso   1.000  N
  H121     1.0000 0.32680  0.11550  0.32680  Biso   1.000  H
  C505     1.0000 0.30940  0.03700  0.30940  Biso   1.000  C
  H122     1.0000 0.29990  0.06500  0.29990  Biso   1.000  H
  C506     1.0000 0.38450  0.24240  0.38450  Biso   1.000  C
  H123     1.0000 0.39160  0.27130  0.39160  Biso   1.000  H
  C507     1.0000 0.36050  0.15780  0.36050  Biso   1.000  C
  N34      1.0000 0.84770  0.61490  0.84770  Biso   1.000  N
  H124     1.0000 0.82680  0.61550  0.82680  Biso   1.000  H
  C508     1.0000 0.80940  0.53700  0.80940  Biso   1.000  C
  H125     1.0000 0.79990  0.56500  0.79990  Biso   1.000  H
  C509     1.0000 0.88450  0.74240  0.88450  Biso   1.000  C
  H126     1.0000 0.89160  0.77130  0.89160  Biso   1.000  H
  C510     1.0000 0.86050  0.65780  0.86050  Biso   1.000  C
  N35      1.0000 0.34770  0.88510  0.65230  Biso   1.000  N
  H127     1.0000 0.32680  0.88450  0.67320  Biso   1.000  H
  C511     1.0000 0.30940  0.96300  0.69060  Biso   1.000  C
  H128     1.0000 0.29990  0.93500  0.70010  Biso   1.000  H
  C512     1.0000 0.38450  0.75760  0.61550  Biso   1.000  C
  H129     1.0000 0.39160  0.72870  0.60840  Biso   1.000  H
  C513     1.0000 0.36050  0.84220  0.63950  Biso   1.000  C
  N36      1.0000 0.84770  0.38510  0.15230  Biso   1.000  N
  H130     1.0000 0.82680  0.38450  0.17320  Biso   1.000  H
  C514     1.0000 0.80940  0.46300  0.19060  Biso   1.000  C
  H131     1.0000 0.79990  0.43500  0.20010  Biso   1.000  H
  C515     1.0000 0.88450  0.25760  0.11550  Biso   1.000  C
  H132     1.0000 0.89160  0.22870  0.10840  Biso   1.000  H
  C516     1.0000 0.86050  0.34220  0.13950  Biso   1.000  C
  N37      1.0000 0.65230  0.88510  0.34770  Biso   1.000  N
  H133     1.0000 0.67320  0.88450  0.32680  Biso   1.000  H
  C517     1.0000 0.69060  0.96300  0.30940  Biso   1.000  C
  H134     1.0000 0.70010  0.93500  0.29990  Biso   1.000  H
  C518     1.0000 0.61550  0.75760  0.38450  Biso   1.000  C
  H135     1.0000 0.60840  0.72870  0.39160  Biso   1.000  H
  C519     1.0000 0.63950  0.84220  0.36050  Biso   1.000  C
  N38      1.0000 0.15230  0.38510  0.84770  Biso   1.000  N
  H136     1.0000 0.17320  0.38450  0.82680  Biso   1.000  H
  C520     1.0000 0.19060  0.46300  0.80940  Biso   1.000  C
  H137     1.0000 0.20010  0.43500  0.79990  Biso   1.000  H
  C521     1.0000 0.11550  0.25760  0.88450  Biso   1.000  C
  H138     1.0000 0.10840  0.22870  0.89160  Biso   1.000  H
  C522     1.0000 0.13950  0.34220  0.86050  Biso   1.000  C
  N39      1.0000 0.65230  0.11490  0.65230  Biso   1.000  N
  H139     1.0000 0.67320  0.11550  0.67320  Biso   1.000  H
  C523     1.0000 0.69060  0.03700  0.69060  Biso   1.000  C
  H140     1.0000 0.70010  0.06500  0.70010  Biso   1.000  H
  C524     1.0000 0.61550  0.24240  0.61550  Biso   1.000  C
  H141     1.0000 0.60840  0.27130  0.60840  Biso   1.000  H
  C525     1.0000 0.63950  0.15780  0.63950  Biso   1.000  C
  N40      1.0000 0.15230  0.61490  0.15230  Biso   1.000  N
  H142     1.0000 0.17320  0.61550  0.17320  Biso   1.000  H
  C526     1.0000 0.19060  0.53700  0.19060  Biso   1.000  C
  H143     1.0000 0.20010  0.56500  0.20010  Biso   1.000  H
  C527     1.0000 0.11550  0.74240  0.11550  Biso   1.000  C
  H144     1.0000 0.10840  0.77130  0.10840  Biso   1.000  H
  C528     1.0000 0.13950  0.65780  0.13950  Biso   1.000  C
  N41      1.0000 0.34770  0.34770  0.11490  Biso   1.000  N
  H145     1.0000 0.32680  0.32680  0.11550  Biso   1.000  H
  C529     1.0000 0.30940  0.30940  0.03700  Biso   1.000  C
  H146     1.0000 0.29990  0.29990  0.06500  Biso   1.000  H
  C530     1.0000 0.38450  0.38450  0.24240  Biso   1.000  C
  H147     1.0000 0.39160  0.39160  0.27130  Biso   1.000  H
  C531     1.0000 0.36050  0.36050  0.15780  Biso   1.000  C
  N42      1.0000 0.84770  0.84770  0.61490  Biso   1.000  N
  H148     1.0000 0.82680  0.82680  0.61550  Biso   1.000  H
  C532     1.0000 0.80940  0.80940  0.53700  Biso   1.000  C
  H149     1.0000 0.79990  0.79990  0.56500  Biso   1.000  H
  C533     1.0000 0.88450  0.88450  0.74240  Biso   1.000  C
  H150     1.0000 0.89160  0.89160  0.77130  Biso   1.000  H
  C534     1.0000 0.86050  0.86050  0.65780  Biso   1.000  C
  N43      1.0000 0.65230  0.34770  0.88510  Biso   1.000  N
  H151     1.0000 0.67320  0.32680  0.88450  Biso   1.000  H
  C535     1.0000 0.69060  0.30940  0.96300  Biso   1.000  C
  H152     1.0000 0.70010  0.29990  0.93500  Biso   1.000  H
  C536     1.0000 0.61550  0.38450  0.75760  Biso   1.000  C
  H153     1.0000 0.60840  0.39160  0.72870  Biso   1.000  H
  C537     1.0000 0.63950  0.36050  0.84220  Biso   1.000  C
  N44      1.0000 0.15230  0.84770  0.38510  Biso   1.000  N
  H154     1.0000 0.17320  0.82680  0.38450  Biso   1.000  H
  C538     1.0000 0.19060  0.80940  0.46300  Biso   1.000  C
  H155     1.0000 0.20010  0.79990  0.43500  Biso   1.000  H
  C539     1.0000 0.11550  0.88450  0.25760  Biso   1.000  C
  H156     1.0000 0.10840  0.89160  0.22870  Biso   1.000  H
  C540     1.0000 0.13950  0.86050  0.34220  Biso   1.000  C
  N45      1.0000 0.34770  0.65230  0.88510  Biso   1.000  N
  H157     1.0000 0.32680  0.67320  0.88450  Biso   1.000  H
  C541     1.0000 0.30940  0.69060  0.96300  Biso   1.000  C
  H158     1.0000 0.29990  0.70010  0.93500  Biso   1.000  H
  C542     1.0000 0.38450  0.61550  0.75760  Biso   1.000  C
  H159     1.0000 0.39160  0.60840  0.72870  Biso   1.000  H
  C543     1.0000 0.36050  0.63950  0.84220  Biso   1.000  C
  N46      1.0000 0.84770  0.15230  0.38510  Biso   1.000  N
  H160     1.0000 0.82680  0.17320  0.38450  Biso   1.000  H
  C544     1.0000 0.80940  0.19060  0.46300  Biso   1.000  C
  H161     1.0000 0.79990  0.20010  0.43500  Biso   1.000  H
  C545     1.0000 0.88450  0.11550  0.25760  Biso   1.000  C
  H162     1.0000 0.89160  0.10840  0.22870  Biso   1.000  H
  C546     1.0000 0.86050  0.13950  0.34220  Biso   1.000  C
  N47      1.0000 0.65230  0.65230  0.11490  Biso   1.000  N
  H163     1.0000 0.67320  0.67320  0.11550  Biso   1.000  H
  C547     1.0000 0.69060  0.69060  0.03700  Biso   1.000  C
  H164     1.0000 0.70010  0.70010  0.06500  Biso   1.000  H
  C548     1.0000 0.61550  0.61550  0.24240  Biso   1.000  C
  H165     1.0000 0.60840  0.60840  0.27130  Biso   1.000  H
  C549     1.0000 0.63950  0.63950  0.15780  Biso   1.000  C
  N48      1.0000 0.15230  0.15230  0.61490  Biso   1.000  N
  H166     1.0000 0.17320  0.17320  0.61550  Biso   1.000  H
  C550     1.0000 0.19060  0.19060  0.53700  Biso   1.000  C
  H167     1.0000 0.20010  0.20010  0.56500  Biso   1.000  H
  C551     1.0000 0.11550  0.11550  0.74240  Biso   1.000  C
  H168     1.0000 0.10840  0.10840  0.77130  Biso   1.000  H
  C552     1.0000 0.13950  0.13950  0.65780  Biso   1.000  C
  N49      1.0000 0.34770  0.11490  0.65230  Biso   1.000  N
  H169     1.0000 0.32680  0.11550  0.67320  Biso   1.000  H
  C553     1.0000 0.30940  0.03700  0.69060  Biso   1.000  C
  H170     1.0000 0.29990  0.06500  0.70010  Biso   1.000  H
  C554     1.0000 0.38450  0.24240  0.61550  Biso   1.000  C
  H171     1.0000 0.39160  0.27130  0.60840  Biso   1.000  H
  C555     1.0000 0.36050  0.15780  0.63950  Biso   1.000  C
  N50      1.0000 0.84770  0.61490  0.15230  Biso   1.000  N
  H172     1.0000 0.82680  0.61550  0.17320  Biso   1.000  H
  C556     1.0000 0.80940  0.53700  0.19060  Biso   1.000  C
  H173     1.0000 0.79990  0.56500  0.20010  Biso   1.000  H
  C557     1.0000 0.88450  0.74240  0.11550  Biso   1.000  C
  H174     1.0000 0.89160  0.77130  0.10840  Biso   1.000  H
  C558     1.0000 0.86050  0.65780  0.13950  Biso   1.000  C
  N51      1.0000 0.65230  0.88510  0.65230  Biso   1.000  N
  H175     1.0000 0.67320  0.88450  0.67320  Biso   1.000  H
  C559     1.0000 0.69060  0.96300  0.69060  Biso   1.000  C
  H176     1.0000 0.70010  0.93500  0.70010  Biso   1.000  H
  C560     1.0000 0.61550  0.75760  0.61550  Biso   1.000  C
  H177     1.0000 0.60840  0.72870  0.60840  Biso   1.000  H
  C561     1.0000 0.63950  0.84220  0.63950  Biso   1.000  C
  N52      1.0000 0.15230  0.38510  0.15230  Biso   1.000  N
  H178     1.0000 0.17320  0.38450  0.17320  Biso   1.000  H
  C562     1.0000 0.19060  0.46300  0.19060  Biso   1.000  C
  H179     1.0000 0.20010  0.43500  0.20010  Biso   1.000  H
  C563     1.0000 0.11550  0.25760  0.11550  Biso   1.000  C
  H180     1.0000 0.10840  0.22870  0.10840  Biso   1.000  H
  C564     1.0000 0.13950  0.34220  0.13950  Biso   1.000  C
  N53      1.0000 0.34770  0.88510  0.34770  Biso   1.000  N
  H181     1.0000 0.32680  0.88450  0.32680  Biso   1.000  H
  C565     1.0000 0.30940  0.96300  0.30940  Biso   1.000  C
  H182     1.0000 0.29990  0.93500  0.29990  Biso   1.000  H
  C566     1.0000 0.38450  0.75760  0.38450  Biso   1.000  C
  H183     1.0000 0.39160  0.72870  0.39160  Biso   1.000  H
  C567     1.0000 0.36050  0.84220  0.36050  Biso   1.000  C
  N54      1.0000 0.84770  0.38510  0.84770  Biso   1.000  N
  H184     1.0000 0.82680  0.38450  0.82680  Biso   1.000  H
  C568     1.0000 0.80940  0.46300  0.80940  Biso   1.000  C
  H185     1.0000 0.79990  0.43500  0.79990  Biso   1.000  H
  C569     1.0000 0.88450  0.25760  0.88450  Biso   1.000  C
  H186     1.0000 0.89160  0.22870  0.89160  Biso   1.000  H
  C570     1.0000 0.86050  0.34220  0.86050  Biso   1.000  C
  N55      1.0000 0.65230  0.11490  0.34770  Biso   1.000  N
  H187     1.0000 0.67320  0.11550  0.32680  Biso   1.000  H
  C571     1.0000 0.69060  0.03700  0.30940  Biso   1.000  C
  H188     1.0000 0.70010  0.06500  0.29990  Biso   1.000  H
  C572     1.0000 0.61550  0.24240  0.38450  Biso   1.000  C
  H189     1.0000 0.60840  0.27130  0.39160  Biso   1.000  H
  C573     1.0000 0.63950  0.15780  0.36050  Biso   1.000  C
  N56      1.0000 0.15230  0.61490  0.84770  Biso   1.000  N
  H190     1.0000 0.17320  0.61550  0.82680  Biso   1.000  H
  C574     1.0000 0.19060  0.53700  0.80940  Biso   1.000  C
  H191     1.0000 0.20010  0.56500  0.79990  Biso   1.000  H
  C575     1.0000 0.11550  0.74240  0.88450  Biso   1.000  C
  H192     1.0000 0.10840  0.77130  0.89160  Biso   1.000  H
  C576     1.0000 0.13950  0.65780  0.86050  Biso   1.000  C
  N57      1.0000 0.11490  0.34770  0.65230  Biso   1.000  N
  H193     1.0000 0.11550  0.32680  0.67320  Biso   1.000  H
  C577     1.0000 0.03700  0.30940  0.69060  Biso   1.000  C
  H194     1.0000 0.06500  0.29990  0.70010  Biso   1.000  H
  C578     1.0000 0.24240  0.38450  0.61550  Biso   1.000  C
  H195     1.0000 0.27130  0.39160  0.60840  Biso   1.000  H
  C579     1.0000 0.15780  0.36050  0.63950  Biso   1.000  C
  N58      1.0000 0.61490  0.84770  0.15230  Biso   1.000  N
  H196     1.0000 0.61550  0.82680  0.17320  Biso   1.000  H
  C580     1.0000 0.53700  0.80940  0.19060  Biso   1.000  C
  H197     1.0000 0.56500  0.79990  0.20010  Biso   1.000  H
  C581     1.0000 0.74240  0.88450  0.11550  Biso   1.000  C
  H198     1.0000 0.77130  0.89160  0.10840  Biso   1.000  H
  C582     1.0000 0.65780  0.86050  0.13950  Biso   1.000  C
  N59      1.0000 0.88510  0.34770  0.34770  Biso   1.000  N
  H199     1.0000 0.88450  0.32680  0.32680  Biso   1.000  H
  C583     1.0000 0.96300  0.30940  0.30940  Biso   1.000  C
  H200     1.0000 0.93500  0.29990  0.29990  Biso   1.000  H
  C584     1.0000 0.75760  0.38450  0.38450  Biso   1.000  C
  H201     1.0000 0.72870  0.39160  0.39160  Biso   1.000  H
  C585     1.0000 0.84220  0.36050  0.36050  Biso   1.000  C
  N60      1.0000 0.38510  0.84770  0.84770  Biso   1.000  N
  H202     1.0000 0.38450  0.82680  0.82680  Biso   1.000  H
  C586     1.0000 0.46300  0.80940  0.80940  Biso   1.000  C
  H203     1.0000 0.43500  0.79990  0.79990  Biso   1.000  H
  C587     1.0000 0.25760  0.88450  0.88450  Biso   1.000  C
  H204     1.0000 0.22870  0.89160  0.89160  Biso   1.000  H
  C588     1.0000 0.34220  0.86050  0.86050  Biso   1.000  C
  N61      1.0000 0.88510  0.65230  0.65230  Biso   1.000  N
  H205     1.0000 0.88450  0.67320  0.67320  Biso   1.000  H
  C589     1.0000 0.96300  0.69060  0.69060  Biso   1.000  C
  H206     1.0000 0.93500  0.70010  0.70010  Biso   1.000  H
  C590     1.0000 0.75760  0.61550  0.61550  Biso   1.000  C
  H207     1.0000 0.72870  0.60840  0.60840  Biso   1.000  H
  C591     1.0000 0.84220  0.63950  0.63950  Biso   1.000  C
  N62      1.0000 0.38510  0.15230  0.15230  Biso   1.000  N
  H208     1.0000 0.38450  0.17320  0.17320  Biso   1.000  H
  C592     1.0000 0.46300  0.19060  0.19060  Biso   1.000  C
  H209     1.0000 0.43500  0.20010  0.20010  Biso   1.000  H
  C593     1.0000 0.25760  0.11550  0.11550  Biso   1.000  C
  H210     1.0000 0.22870  0.10840  0.10840  Biso   1.000  H
  C594     1.0000 0.34220  0.13950  0.13950  Biso   1.000  C
  N63      1.0000 0.11490  0.65230  0.34770  Biso   1.000  N
  H211     1.0000 0.11550  0.67320  0.32680  Biso   1.000  H
  C595     1.0000 0.03700  0.69060  0.30940  Biso   1.000  C
  H212     1.0000 0.06500  0.70010  0.29990  Biso   1.000  H
  C596     1.0000 0.24240  0.61550  0.38450  Biso   1.000  C
  H213     1.0000 0.27130  0.60840  0.39160  Biso   1.000  H
  C597     1.0000 0.15780  0.63950  0.36050  Biso   1.000  C
  N64      1.0000 0.61490  0.15230  0.84770  Biso   1.000  N
  H214     1.0000 0.61550  0.17320  0.82680  Biso   1.000  H
  C598     1.0000 0.53700  0.19060  0.80940  Biso   1.000  C
  H215     1.0000 0.56500  0.20010  0.79990  Biso   1.000  H
  C599     1.0000 0.74240  0.11550  0.88450  Biso   1.000  C
  H216     1.0000 0.77130  0.10840  0.89160  Biso   1.000  H
  C600     1.0000 0.65780  0.13950  0.86050  Biso   1.000  C
  N65      1.0000 0.34770  0.34770  0.88510  Biso   1.000  N
  H217     1.0000 0.32680  0.32680  0.88450  Biso   1.000  H
  C601     1.0000 0.30940  0.30940  0.96300  Biso   1.000  C
  H218     1.0000 0.29990  0.29990  0.93500  Biso   1.000  H
  C602     1.0000 0.38450  0.38450  0.75760  Biso   1.000  C
  H219     1.0000 0.39160  0.39160  0.72870  Biso   1.000  H
  C603     1.0000 0.36050  0.36050  0.84220  Biso   1.000  C
  N66      1.0000 0.84770  0.84770  0.38510  Biso   1.000  N
  H220     1.0000 0.82680  0.82680  0.38450  Biso   1.000  H
  C604     1.0000 0.80940  0.80940  0.46300  Biso   1.000  C
  H221     1.0000 0.79990  0.79990  0.43500  Biso   1.000  H
  C605     1.0000 0.88450  0.88450  0.25760  Biso   1.000  C
  H222     1.0000 0.89160  0.89160  0.22870  Biso   1.000  H
  C606     1.0000 0.86050  0.86050  0.34220  Biso   1.000  C
  N67      1.0000 0.34770  0.65230  0.11490  Biso   1.000  N
  H223     1.0000 0.32680  0.67320  0.11550  Biso   1.000  H
  C607     1.0000 0.30940  0.69060  0.03700  Biso   1.000  C
  H224     1.0000 0.29990  0.70010  0.06500  Biso   1.000  H
  C608     1.0000 0.38450  0.61550  0.24240  Biso   1.000  C
  H225     1.0000 0.39160  0.60840  0.27130  Biso   1.000  H
  C609     1.0000 0.36050  0.63950  0.15780  Biso   1.000  C
  N68      1.0000 0.84770  0.15230  0.61490  Biso   1.000  N
  H226     1.0000 0.82680  0.17320  0.61550  Biso   1.000  H
  C610     1.0000 0.80940  0.19060  0.53700  Biso   1.000  C
  H227     1.0000 0.79990  0.20010  0.56500  Biso   1.000  H
  C611     1.0000 0.88450  0.11550  0.74240  Biso   1.000  C
  H228     1.0000 0.89160  0.10840  0.77130  Biso   1.000  H
  C612     1.0000 0.86050  0.13950  0.65780  Biso   1.000  C
  N69      1.0000 0.65230  0.34770  0.11490  Biso   1.000  N
  H229     1.0000 0.67320  0.32680  0.11550  Biso   1.000  H
  C613     1.0000 0.69060  0.30940  0.03700  Biso   1.000  C
  H230     1.0000 0.70010  0.29990  0.06500  Biso   1.000  H
  C614     1.0000 0.61550  0.38450  0.24240  Biso   1.000  C
  H231     1.0000 0.60840  0.39160  0.27130  Biso   1.000  H
  C615     1.0000 0.63950  0.36050  0.15780  Biso   1.000  C
  N70      1.0000 0.15230  0.84770  0.61490  Biso   1.000  N
  H232     1.0000 0.17320  0.82680  0.61550  Biso   1.000  H
  C616     1.0000 0.19060  0.80940  0.53700  Biso   1.000  C
  H233     1.0000 0.20010  0.79990  0.56500  Biso   1.000  H
  C617     1.0000 0.11550  0.88450  0.74240  Biso   1.000  C
  H234     1.0000 0.10840  0.89160  0.77130  Biso   1.000  H
  C618     1.0000 0.13950  0.86050  0.65780  Biso   1.000  C
  N71      1.0000 0.65230  0.65230  0.88510  Biso   1.000  N
  H235     1.0000 0.67320  0.67320  0.88450  Biso   1.000  H
  C619     1.0000 0.69060  0.69060  0.96300  Biso   1.000  C
  H236     1.0000 0.70010  0.70010  0.93500  Biso   1.000  H
  C620     1.0000 0.61550  0.61550  0.75760  Biso   1.000  C
  H237     1.0000 0.60840  0.60840  0.72870  Biso   1.000  H
  C621     1.0000 0.63950  0.63950  0.84220  Biso   1.000  C
  N72      1.0000 0.15230  0.15230  0.38510  Biso   1.000  N
  H238     1.0000 0.17320  0.17320  0.38450  Biso   1.000  H
  C622     1.0000 0.19060  0.19060  0.46300  Biso   1.000  C
  H239     1.0000 0.20010  0.20010  0.43500  Biso   1.000  H
  C623     1.0000 0.11550  0.11550  0.25760  Biso   1.000  C
  H240     1.0000 0.10840  0.10840  0.22870  Biso   1.000  H
  C624     1.0000 0.13950  0.13950  0.34220  Biso   1.000  C
  H241     1.0000 0.00000  0.38900  0.35730  Biso   1.000  H
  C625     1.0000 0.00000  0.37140  0.34020  Biso   1.000  C
  H242     1.0000 0.50000  0.88900  0.85730  Biso   1.000  H
  C626     1.0000 0.50000  0.87140  0.84020  Biso   1.000  C
  H243     1.0000 0.00000  0.61100  0.35730  Biso   1.000  H
  C627     1.0000 0.00000  0.62860  0.34020  Biso   1.000  C
  H244     1.0000 0.50000  0.11100  0.85730  Biso   1.000  H
  C628     1.0000 0.50000  0.12860  0.84020  Biso   1.000  C
  H245     1.0000 0.00000  0.38900  0.64270  Biso   1.000  H
  C629     1.0000 0.00000  0.37140  0.65980  Biso   1.000  C
  H246     1.0000 0.50000  0.88900  0.14270  Biso   1.000  H
  C630     1.0000 0.50000  0.87140  0.15980  Biso   1.000  C
  H247     1.0000 0.00000  0.61100  0.64270  Biso   1.000  H
  C631     1.0000 0.00000  0.62860  0.65980  Biso   1.000  C
  H248     1.0000 0.50000  0.11100  0.14270  Biso   1.000  H
  C632     1.0000 0.50000  0.12860  0.15980  Biso   1.000  C
  H249     1.0000 0.35730  0.00000  0.38900  Biso   1.000  H
  C633     1.0000 0.34020  0.00000  0.37140  Biso   1.000  C
  H250     1.0000 0.85730  0.50000  0.88900  Biso   1.000  H
  C634     1.0000 0.84020  0.50000  0.87140  Biso   1.000  C
  H251     1.0000 0.35730  0.00000  0.61100  Biso   1.000  H
  C635     1.0000 0.34020  0.00000  0.62860  Biso   1.000  C
  H252     1.0000 0.85730  0.50000  0.11100  Biso   1.000  H
  C636     1.0000 0.84020  0.50000  0.12860  Biso   1.000  C
  H253     1.0000 0.64270  0.00000  0.38900  Biso   1.000  H
  C637     1.0000 0.65980  0.00000  0.37140  Biso   1.000  C
  H254     1.0000 0.14270  0.50000  0.88900  Biso   1.000  H
  C638     1.0000 0.15980  0.50000  0.87140  Biso   1.000  C
  H255     1.0000 0.64270  0.00000  0.61100  Biso   1.000  H
  C639     1.0000 0.65980  0.00000  0.62860  Biso   1.000  C
  H256     1.0000 0.14270  0.50000  0.11100  Biso   1.000  H
  C640     1.0000 0.15980  0.50000  0.12860  Biso   1.000  C
  H257     1.0000 0.38900  0.35730  0.00000  Biso   1.000  H
  C641     1.0000 0.37140  0.34020  0.00000  Biso   1.000  C
  H258     1.0000 0.88900  0.85730  0.50000  Biso   1.000  H
  C642     1.0000 0.87140  0.84020  0.50000  Biso   1.000  C
  H259     1.0000 0.61100  0.35730  0.00000  Biso   1.000  H
  C643     1.0000 0.62860  0.34020  0.00000  Biso   1.000  C
  H260     1.0000 0.11100  0.85730  0.50000  Biso   1.000  H
  C644     1.0000 0.12860  0.84020  0.50000  Biso   1.000  C
  H261     1.0000 0.38900  0.64270  0.00000  Biso   1.000  H
  C645     1.0000 0.37140  0.65980  0.00000  Biso   1.000  C
  H262     1.0000 0.88900  0.14270  0.50000  Biso   1.000  H
  C646     1.0000 0.87140  0.15980  0.50000  Biso   1.000  C
  H263     1.0000 0.61100  0.64270  0.00000  Biso   1.000  H
  C647     1.0000 0.62860  0.65980  0.00000  Biso   1.000  C
  H264     1.0000 0.11100  0.14270  0.50000  Biso   1.000  H
  C648     1.0000 0.12860  0.15980  0.50000  Biso   1.000  C
  H265     1.0000 0.38900  0.00000  0.64270  Biso   1.000  H
  C649     1.0000 0.37140  0.00000  0.65980  Biso   1.000  C
  H266     1.0000 0.88900  0.50000  0.14270  Biso   1.000  H
  C650     1.0000 0.87140  0.50000  0.15980  Biso   1.000  C
  H267     1.0000 0.61100  0.00000  0.64270  Biso   1.000  H
  C651     1.0000 0.62860  0.00000  0.65980  Biso   1.000  C
  H268     1.0000 0.11100  0.50000  0.14270  Biso   1.000  H
  C652     1.0000 0.12860  0.50000  0.15980  Biso   1.000  C
  H269     1.0000 0.38900  0.00000  0.35730  Biso   1.000  H
  C653     1.0000 0.37140  0.00000  0.34020  Biso   1.000  C
  H270     1.0000 0.88900  0.50000  0.85730  Biso   1.000  H
  C654     1.0000 0.87140  0.50000  0.84020  Biso   1.000  C
  H271     1.0000 0.61100  0.00000  0.35730  Biso   1.000  H
  C655     1.0000 0.62860  0.00000  0.34020  Biso   1.000  C
  H272     1.0000 0.11100  0.50000  0.85730  Biso   1.000  H
  C656     1.0000 0.12860  0.50000  0.84020  Biso   1.000  C
  H273     1.0000 0.00000  0.35730  0.61100  Biso   1.000  H
  C657     1.0000 0.00000  0.34020  0.62860  Biso   1.000  C
  H274     1.0000 0.50000  0.85730  0.11100  Biso   1.000  H
  C658     1.0000 0.50000  0.84020  0.12860  Biso   1.000  C
  H275     1.0000 0.00000  0.35730  0.38900  Biso   1.000  H
  C659     1.0000 0.00000  0.34020  0.37140  Biso   1.000  C
  H276     1.0000 0.50000  0.85730  0.88900  Biso   1.000  H
  C660     1.0000 0.50000  0.84020  0.87140  Biso   1.000  C
  H277     1.0000 0.00000  0.64270  0.61100  Biso   1.000  H
  C661     1.0000 0.00000  0.65980  0.62860  Biso   1.000  C
  H278     1.0000 0.50000  0.14270  0.11100  Biso   1.000  H
  C662     1.0000 0.50000  0.15980  0.12860  Biso   1.000  C
  H279     1.0000 0.00000  0.64270  0.38900  Biso   1.000  H
  C663     1.0000 0.00000  0.65980  0.37140  Biso   1.000  C
  H280     1.0000 0.50000  0.14270  0.88900  Biso   1.000  H
  C664     1.0000 0.50000  0.15980  0.87140  Biso   1.000  C
  H281     1.0000 0.35730  0.38900  0.00000  Biso   1.000  H
  C665     1.0000 0.34020  0.37140  0.00000  Biso   1.000  C
  H282     1.0000 0.85730  0.88900  0.50000  Biso   1.000  H
  C666     1.0000 0.84020  0.87140  0.50000  Biso   1.000  C
  H283     1.0000 0.35730  0.61100  0.00000  Biso   1.000  H
  C667     1.0000 0.34020  0.62860  0.00000  Biso   1.000  C
  H284     1.0000 0.85730  0.11100  0.50000  Biso   1.000  H
  C668     1.0000 0.84020  0.12860  0.50000  Biso   1.000  C
  H285     1.0000 0.64270  0.38900  0.00000  Biso   1.000  H
  C669     1.0000 0.65980  0.37140  0.00000  Biso   1.000  C
  H286     1.0000 0.14270  0.88900  0.50000  Biso   1.000  H
  C670     1.0000 0.15980  0.87140  0.50000  Biso   1.000  C
  H287     1.0000 0.64270  0.61100  0.00000  Biso   1.000  H
  C671     1.0000 0.65980  0.62860  0.00000  Biso   1.000  C
  H288     1.0000 0.14270  0.11100  0.50000  Biso   1.000  H
  C672     1.0000 0.15980  0.12860  0.50000  Biso   1.000  C
