data_image0
_cell_length_a       24.2037
_cell_length_b       24.2037
_cell_length_c       18.973
_cell_angle_alpha    90
_cell_angle_beta     90
_cell_angle_gamma    90

_symmetry_space_group_name_H-M    "P 1"
_symmetry_int_tables_number       1

loop_
  _symmetry_equiv_pos_as_xyz
  'x, y, z'

loop_
  _atom_site_label
  _atom_site_occupancy
  _atom_site_fract_x
  _atom_site_fract_y
  _atom_site_fract_z
  _atom_site_thermal_displace_type
  _atom_site_B_iso_or_equiv
  _atom_site_type_symbol
  N1       1.0000 0.51090  0.41850  0.41540  Biso   1.000  N
  N2       1.0000 0.41930  0.51080  0.41600  Biso   1.000  N
  C1       1.0000 0.49830  0.37220  0.37810  Biso   1.000  C
  C2       1.0000 0.55740  0.44260  0.38990  Biso   1.000  C
  C3       1.0000 0.37390  0.49700  0.38080  Biso   1.000  C
  N3       1.0000 0.53320  0.35860  0.32400  Biso   1.000  N
  H1       1.0000 0.46750  0.35090  0.38880  Biso   1.000  H
  C4       1.0000 0.57210  0.40490  0.33200  Biso   1.000  C
  N4       1.0000 0.35930  0.53260  0.32540  Biso   1.000  N
  H2       1.0000 0.35320  0.46590  0.39210  Biso   1.000  H
  C5       1.0000 0.61680  0.41730  0.29540  Biso   1.000  C
  O1       1.0000 0.43000  0.21990  0.24390  Biso   1.000  O
  O2       1.0000 0.41990  0.28910  0.31030  Biso   1.000  O
  N5       1.0000 0.63180  0.38840  0.23780  Biso   1.000  N
  O3       1.0000 0.21940  0.56970  0.25700  Biso   1.000  O
  O4       1.0000 0.28750  0.58000  0.18710  Biso   1.000  O
  C6       1.0000 0.40960  0.23780  0.29880  Biso   1.000  C
  H3       1.0000 0.61200  0.36100  0.22400  Biso   1.000  H
  H4       1.0000 0.66110  0.39740  0.21500  Biso   1.000  H
  C7       1.0000 0.23720  0.41010  0.30050  Biso   1.000  C
  C8       1.0000 0.34920  0.22030  0.31470  Biso   1.000  C
  C9       1.0000 0.22190  0.34930  0.31410  Biso   1.000  C
  C10      1.0000 0.32850  0.17050  0.28950  Biso   1.000  C
  C11      1.0000 0.31950  0.25030  0.36440  Biso   1.000  C
  C12      1.0000 0.25150  0.31930  0.36380  Biso   1.000  C
  H5       1.0000 0.34830  0.15040  0.25630  Biso   1.000  H
  C13      1.0000 0.26920  0.23050  0.38890  Biso   1.000  C
  H6       1.0000 0.33340  0.28360  0.38120  Biso   1.000  H
  H7       1.0000 0.28520  0.33250  0.38020  Biso   1.000  H
  N6       1.0000 0.61250  0.36860  0.24340  Biso   1.000  N
  H8       1.0000 0.64070  0.38800  0.23140  Biso   1.000  H
  H9       1.0000 0.60430  0.33920  0.22010  Biso   1.000  H
  C14      1.0000 0.58130  0.38400  0.29850  Biso   1.000  C
  C15      1.0000 0.59570  0.42960  0.33230  Biso   1.000  C
  O5       1.0000 0.73380  0.55980  0.33930  Biso   1.000  O
  O6       1.0000 0.93950  0.76740  0.33770  Biso   1.000  O
  C16      1.0000 0.80320  0.62680  0.34510  Biso   1.000  C
  C17      1.0000 0.79500  0.63510  0.41680  Biso   1.000  C
  H10      1.0000 0.76860  0.61460  0.44080  Biso   1.000  H
  C18      1.0000 0.82630  0.67430  0.45250  Biso   1.000  C
  C19      1.0000 0.86570  0.70510  0.41660  Biso   1.000  C
  H11      1.0000 0.88670  0.73130  0.44060  Biso   1.000  H
  C20      1.0000 0.87390  0.69670  0.34490  Biso   1.000  C
  C21      1.0000 0.84270  0.65750  0.30910  Biso   1.000  C
  H12      1.0000 0.84820  0.65190  0.26110  Biso   1.000  H
  N7       1.0000 0.01090  0.91850  0.41540  Biso   1.000  N
  N8       1.0000 0.91930  0.01080  0.41600  Biso   1.000  N
  C22      1.0000 0.99830  0.87220  0.37810  Biso   1.000  C
  C23      1.0000 0.05740  0.94260  0.38990  Biso   1.000  C
  C24      1.0000 0.87390  0.99700  0.38080  Biso   1.000  C
  N9       1.0000 0.03320  0.85860  0.32400  Biso   1.000  N
  H13      1.0000 0.96750  0.85090  0.38880  Biso   1.000  H
  C25      1.0000 0.07210  0.90490  0.33200  Biso   1.000  C
  N10      1.0000 0.85930  0.03260  0.32540  Biso   1.000  N
  H14      1.0000 0.85320  0.96590  0.39210  Biso   1.000  H
  C26      1.0000 0.11680  0.91730  0.29540  Biso   1.000  C
  O7       1.0000 0.93000  0.71990  0.24390  Biso   1.000  O
  O8       1.0000 0.91990  0.78910  0.31030  Biso   1.000  O
  N11      1.0000 0.13180  0.88840  0.23780  Biso   1.000  N
  O9       1.0000 0.71940  0.06970  0.25700  Biso   1.000  O
  O10      1.0000 0.78750  0.08000  0.18710  Biso   1.000  O
  C27      1.0000 0.90960  0.73780  0.29880  Biso   1.000  C
  H15      1.0000 0.11200  0.86100  0.22400  Biso   1.000  H
  H16      1.0000 0.16110  0.89740  0.21500  Biso   1.000  H
  C28      1.0000 0.73720  0.91010  0.30050  Biso   1.000  C
  C29      1.0000 0.84920  0.72030  0.31470  Biso   1.000  C
  C30      1.0000 0.72190  0.84930  0.31410  Biso   1.000  C
  C31      1.0000 0.82850  0.67050  0.28950  Biso   1.000  C
  C32      1.0000 0.81950  0.75030  0.36440  Biso   1.000  C
  C33      1.0000 0.75150  0.81930  0.36380  Biso   1.000  C
  H17      1.0000 0.84830  0.65040  0.25630  Biso   1.000  H
  C34      1.0000 0.76920  0.73050  0.38890  Biso   1.000  C
  H18      1.0000 0.83340  0.78360  0.38120  Biso   1.000  H
  H19      1.0000 0.78520  0.83250  0.38020  Biso   1.000  H
  N12      1.0000 0.11250  0.86860  0.24340  Biso   1.000  N
  H20      1.0000 0.14070  0.88800  0.23140  Biso   1.000  H
  H21      1.0000 0.10430  0.83920  0.22010  Biso   1.000  H
  C35      1.0000 0.08130  0.88400  0.29850  Biso   1.000  C
  C36      1.0000 0.09570  0.92960  0.33230  Biso   1.000  C
  O11      1.0000 0.23380  0.05980  0.33930  Biso   1.000  O
  O12      1.0000 0.43950  0.26740  0.33770  Biso   1.000  O
  C37      1.0000 0.30320  0.12680  0.34510  Biso   1.000  C
  C38      1.0000 0.29500  0.13510  0.41680  Biso   1.000  C
  H22      1.0000 0.26860  0.11460  0.44080  Biso   1.000  H
  C39      1.0000 0.32630  0.17430  0.45250  Biso   1.000  C
  C40      1.0000 0.36570  0.20510  0.41660  Biso   1.000  C
  H23      1.0000 0.38670  0.23130  0.44060  Biso   1.000  H
  C41      1.0000 0.37390  0.19670  0.34490  Biso   1.000  C
  C42      1.0000 0.34270  0.15750  0.30910  Biso   1.000  C
  H24      1.0000 0.34820  0.15190  0.26110  Biso   1.000  H
  N13      1.0000 0.48910  0.58150  0.41540  Biso   1.000  N
  N14      1.0000 0.58070  0.48920  0.41600  Biso   1.000  N
  C43      1.0000 0.50170  0.62780  0.37810  Biso   1.000  C
  C44      1.0000 0.44260  0.55740  0.38990  Biso   1.000  C
  C45      1.0000 0.62610  0.50300  0.38080  Biso   1.000  C
  N15      1.0000 0.46680  0.64140  0.32400  Biso   1.000  N
  H25      1.0000 0.53250  0.64910  0.38880  Biso   1.000  H
  C46      1.0000 0.42790  0.59510  0.33200  Biso   1.000  C
  N16      1.0000 0.64070  0.46740  0.32540  Biso   1.000  N
  H26      1.0000 0.64680  0.53410  0.39210  Biso   1.000  H
  C47      1.0000 0.38320  0.58270  0.29540  Biso   1.000  C
  O13      1.0000 0.57000  0.78010  0.24390  Biso   1.000  O
  O14      1.0000 0.58010  0.71090  0.31030  Biso   1.000  O
  N17      1.0000 0.36820  0.61160  0.23780  Biso   1.000  N
  O15      1.0000 0.78060  0.43030  0.25700  Biso   1.000  O
  O16      1.0000 0.71250  0.42000  0.18710  Biso   1.000  O
  C48      1.0000 0.59040  0.76220  0.29880  Biso   1.000  C
  H27      1.0000 0.38800  0.63900  0.22400  Biso   1.000  H
  H28      1.0000 0.33890  0.60260  0.21500  Biso   1.000  H
  C49      1.0000 0.76280  0.58990  0.30050  Biso   1.000  C
  C50      1.0000 0.65080  0.77970  0.31470  Biso   1.000  C
  C51      1.0000 0.77810  0.65070  0.31410  Biso   1.000  C
  C52      1.0000 0.67150  0.82950  0.28950  Biso   1.000  C
  C53      1.0000 0.68050  0.74970  0.36440  Biso   1.000  C
  C54      1.0000 0.74850  0.68070  0.36380  Biso   1.000  C
  H29      1.0000 0.65170  0.84960  0.25630  Biso   1.000  H
  C55      1.0000 0.73080  0.76950  0.38890  Biso   1.000  C
  H30      1.0000 0.66660  0.71640  0.38120  Biso   1.000  H
  H31      1.0000 0.71480  0.66750  0.38020  Biso   1.000  H
  N18      1.0000 0.38750  0.63140  0.24340  Biso   1.000  N
  H32      1.0000 0.35930  0.61200  0.23140  Biso   1.000  H
  H33      1.0000 0.39570  0.66080  0.22010  Biso   1.000  H
  C56      1.0000 0.41870  0.61600  0.29850  Biso   1.000  C
  C57      1.0000 0.40430  0.57040  0.33230  Biso   1.000  C
  O17      1.0000 0.26620  0.44020  0.33930  Biso   1.000  O
  O18      1.0000 0.06050  0.23260  0.33770  Biso   1.000  O
  C58      1.0000 0.19680  0.37320  0.34510  Biso   1.000  C
  C59      1.0000 0.20500  0.36490  0.41680  Biso   1.000  C
  H34      1.0000 0.23140  0.38540  0.44080  Biso   1.000  H
  C60      1.0000 0.17370  0.32570  0.45250  Biso   1.000  C
  C61      1.0000 0.13430  0.29490  0.41660  Biso   1.000  C
  H35      1.0000 0.11330  0.26870  0.44060  Biso   1.000  H
  C62      1.0000 0.12610  0.30330  0.34490  Biso   1.000  C
  C63      1.0000 0.15730  0.34250  0.30910  Biso   1.000  C
  H36      1.0000 0.15180  0.34810  0.26110  Biso   1.000  H
  N19      1.0000 0.98910  0.08150  0.41540  Biso   1.000  N
  N20      1.0000 0.08070  0.98920  0.41600  Biso   1.000  N
  C64      1.0000 0.00170  0.12780  0.37810  Biso   1.000  C
  C65      1.0000 0.94260  0.05740  0.38990  Biso   1.000  C
  C66      1.0000 0.12610  0.00300  0.38080  Biso   1.000  C
  N21      1.0000 0.96680  0.14140  0.32400  Biso   1.000  N
  H37      1.0000 0.03250  0.14910  0.38880  Biso   1.000  H
  C67      1.0000 0.92790  0.09510  0.33200  Biso   1.000  C
  N22      1.0000 0.14070  0.96740  0.32540  Biso   1.000  N
  H38      1.0000 0.14680  0.03410  0.39210  Biso   1.000  H
  C68      1.0000 0.88320  0.08270  0.29540  Biso   1.000  C
  O19      1.0000 0.07000  0.28010  0.24390  Biso   1.000  O
  O20      1.0000 0.08010  0.21090  0.31030  Biso   1.000  O
  N23      1.0000 0.86820  0.11160  0.23780  Biso   1.000  N
  O21      1.0000 0.28060  0.93030  0.25700  Biso   1.000  O
  O22      1.0000 0.21250  0.92000  0.18710  Biso   1.000  O
  C69      1.0000 0.09040  0.26220  0.29880  Biso   1.000  C
  H39      1.0000 0.88800  0.13900  0.22400  Biso   1.000  H
  H40      1.0000 0.83890  0.10260  0.21500  Biso   1.000  H
  C70      1.0000 0.26280  0.08990  0.30050  Biso   1.000  C
  C71      1.0000 0.15080  0.27970  0.31470  Biso   1.000  C
  C72      1.0000 0.27810  0.15070  0.31410  Biso   1.000  C
  C73      1.0000 0.17150  0.32950  0.28950  Biso   1.000  C
  C74      1.0000 0.18050  0.24970  0.36440  Biso   1.000  C
  C75      1.0000 0.24850  0.18070  0.36380  Biso   1.000  C
  H41      1.0000 0.15170  0.34960  0.25630  Biso   1.000  H
  C76      1.0000 0.23080  0.26950  0.38890  Biso   1.000  C
  H42      1.0000 0.16660  0.21640  0.38120  Biso   1.000  H
  H43      1.0000 0.21480  0.16750  0.38020  Biso   1.000  H
  N24      1.0000 0.88750  0.13140  0.24340  Biso   1.000  N
  H44      1.0000 0.85930  0.11200  0.23140  Biso   1.000  H
  H45      1.0000 0.89570  0.16080  0.22010  Biso   1.000  H
  C77      1.0000 0.91870  0.11600  0.29850  Biso   1.000  C
  C78      1.0000 0.90430  0.07040  0.33230  Biso   1.000  C
  O23      1.0000 0.76620  0.94020  0.33930  Biso   1.000  O
  O24      1.0000 0.56050  0.73260  0.33770  Biso   1.000  O
  C79      1.0000 0.69680  0.87320  0.34510  Biso   1.000  C
  C80      1.0000 0.70500  0.86490  0.41680  Biso   1.000  C
  H46      1.0000 0.73140  0.88540  0.44080  Biso   1.000  H
  C81      1.0000 0.67370  0.82570  0.45250  Biso   1.000  C
  C82      1.0000 0.63430  0.79490  0.41660  Biso   1.000  C
  H47      1.0000 0.61330  0.76870  0.44060  Biso   1.000  H
  C83      1.0000 0.62610  0.80330  0.34490  Biso   1.000  C
  C84      1.0000 0.65730  0.84250  0.30910  Biso   1.000  C
  H48      1.0000 0.65180  0.84810  0.26110  Biso   1.000  H
  N25      1.0000 0.48910  0.41850  0.08460  Biso   1.000  N
  N26      1.0000 0.58070  0.51080  0.08400  Biso   1.000  N
  C85      1.0000 0.50170  0.37220  0.12190  Biso   1.000  C
  C86      1.0000 0.44260  0.44260  0.11010  Biso   1.000  C
  C87      1.0000 0.62610  0.49700  0.11920  Biso   1.000  C
  N27      1.0000 0.46680  0.35860  0.17600  Biso   1.000  N
  H49      1.0000 0.53250  0.35090  0.11120  Biso   1.000  H
  C88      1.0000 0.42790  0.40490  0.16800  Biso   1.000  C
  N28      1.0000 0.64070  0.53260  0.17460  Biso   1.000  N
  H50      1.0000 0.64680  0.46590  0.10790  Biso   1.000  H
  C89      1.0000 0.38320  0.41730  0.20460  Biso   1.000  C
  O25      1.0000 0.57000  0.21990  0.25610  Biso   1.000  O
  O26      1.0000 0.58010  0.28910  0.18970  Biso   1.000  O
  N29      1.0000 0.36820  0.38840  0.26220  Biso   1.000  N
  O27      1.0000 0.78060  0.56970  0.24300  Biso   1.000  O
  O28      1.0000 0.71250  0.58000  0.31290  Biso   1.000  O
  C90      1.0000 0.59040  0.23780  0.20120  Biso   1.000  C
  H51      1.0000 0.38800  0.36100  0.27600  Biso   1.000  H
  H52      1.0000 0.33890  0.39740  0.28500  Biso   1.000  H
  C91      1.0000 0.76280  0.41010  0.19950  Biso   1.000  C
  C92      1.0000 0.65080  0.22030  0.18530  Biso   1.000  C
  C93      1.0000 0.77810  0.34930  0.18590  Biso   1.000  C
  C94      1.0000 0.67150  0.17050  0.21050  Biso   1.000  C
  C95      1.0000 0.68050  0.25030  0.13560  Biso   1.000  C
  C96      1.0000 0.74850  0.31930  0.13620  Biso   1.000  C
  H53      1.0000 0.65170  0.15040  0.24370  Biso   1.000  H
  C97      1.0000 0.73080  0.23050  0.11110  Biso   1.000  C
  H54      1.0000 0.66660  0.28360  0.11880  Biso   1.000  H
  H55      1.0000 0.71480  0.33250  0.11980  Biso   1.000  H
  N30      1.0000 0.38750  0.36860  0.25660  Biso   1.000  N
  H56      1.0000 0.35930  0.38800  0.26860  Biso   1.000  H
  H57      1.0000 0.39570  0.33920  0.27990  Biso   1.000  H
  C98      1.0000 0.41870  0.38400  0.20150  Biso   1.000  C
  C99      1.0000 0.40430  0.42960  0.16770  Biso   1.000  C
  O29      1.0000 0.26620  0.55980  0.16070  Biso   1.000  O
  O30      1.0000 0.06050  0.76740  0.16230  Biso   1.000  O
  C100     1.0000 0.19680  0.62680  0.15490  Biso   1.000  C
  C101     1.0000 0.20500  0.63510  0.08320  Biso   1.000  C
  H58      1.0000 0.23140  0.61460  0.05920  Biso   1.000  H
  C102     1.0000 0.17370  0.67430  0.04750  Biso   1.000  C
  C103     1.0000 0.13430  0.70510  0.08340  Biso   1.000  C
  H59      1.0000 0.11330  0.73130  0.05940  Biso   1.000  H
  C104     1.0000 0.12610  0.69670  0.15510  Biso   1.000  C
  C105     1.0000 0.15730  0.65750  0.19090  Biso   1.000  C
  H60      1.0000 0.15180  0.65190  0.23890  Biso   1.000  H
  N31      1.0000 0.98910  0.91850  0.08460  Biso   1.000  N
  N32      1.0000 0.08070  0.01080  0.08400  Biso   1.000  N
  C106     1.0000 0.00170  0.87220  0.12190  Biso   1.000  C
  C107     1.0000 0.94260  0.94260  0.11010  Biso   1.000  C
  C108     1.0000 0.12610  0.99700  0.11920  Biso   1.000  C
  N33      1.0000 0.96680  0.85860  0.17600  Biso   1.000  N
  H61      1.0000 0.03250  0.85090  0.11120  Biso   1.000  H
  C109     1.0000 0.92790  0.90490  0.16800  Biso   1.000  C
  N34      1.0000 0.14070  0.03260  0.17460  Biso   1.000  N
  H62      1.0000 0.14680  0.96590  0.10790  Biso   1.000  H
  C110     1.0000 0.88320  0.91730  0.20460  Biso   1.000  C
  O31      1.0000 0.07000  0.71990  0.25610  Biso   1.000  O
  O32      1.0000 0.08010  0.78910  0.18970  Biso   1.000  O
  N35      1.0000 0.86820  0.88840  0.26220  Biso   1.000  N
  O33      1.0000 0.28060  0.06970  0.24300  Biso   1.000  O
  O34      1.0000 0.21250  0.08000  0.31290  Biso   1.000  O
  C111     1.0000 0.09040  0.73780  0.20120  Biso   1.000  C
  H63      1.0000 0.88800  0.86100  0.27600  Biso   1.000  H
  H64      1.0000 0.83890  0.89740  0.28500  Biso   1.000  H
  C112     1.0000 0.26280  0.91010  0.19950  Biso   1.000  C
  C113     1.0000 0.15080  0.72030  0.18530  Biso   1.000  C
  C114     1.0000 0.27810  0.84930  0.18590  Biso   1.000  C
  C115     1.0000 0.17150  0.67050  0.21050  Biso   1.000  C
  C116     1.0000 0.18050  0.75030  0.13560  Biso   1.000  C
  C117     1.0000 0.24850  0.81930  0.13620  Biso   1.000  C
  H65      1.0000 0.15170  0.65040  0.24370  Biso   1.000  H
  C118     1.0000 0.23080  0.73050  0.11110  Biso   1.000  C
  H66      1.0000 0.16660  0.78360  0.11880  Biso   1.000  H
  H67      1.0000 0.21480  0.83250  0.11980  Biso   1.000  H
  N36      1.0000 0.88750  0.86860  0.25660  Biso   1.000  N
  H68      1.0000 0.85930  0.88800  0.26860  Biso   1.000  H
  H69      1.0000 0.89570  0.83920  0.27990  Biso   1.000  H
  C119     1.0000 0.91870  0.88400  0.20150  Biso   1.000  C
  C120     1.0000 0.90430  0.92960  0.16770  Biso   1.000  C
  O35      1.0000 0.76620  0.05980  0.16070  Biso   1.000  O
  O36      1.0000 0.56050  0.26740  0.16230  Biso   1.000  O
  C121     1.0000 0.69680  0.12680  0.15490  Biso   1.000  C
  C122     1.0000 0.70500  0.13510  0.08320  Biso   1.000  C
  H70      1.0000 0.73140  0.11460  0.05920  Biso   1.000  H
  C123     1.0000 0.67370  0.17430  0.04750  Biso   1.000  C
  C124     1.0000 0.63430  0.20510  0.08340  Biso   1.000  C
  H71      1.0000 0.61330  0.23130  0.05940  Biso   1.000  H
  C125     1.0000 0.62610  0.19670  0.15510  Biso   1.000  C
  C126     1.0000 0.65730  0.15750  0.19090  Biso   1.000  C
  H72      1.0000 0.65180  0.15190  0.23890  Biso   1.000  H
  N37      1.0000 0.51090  0.58150  0.08460  Biso   1.000  N
  N38      1.0000 0.41930  0.48920  0.08400  Biso   1.000  N
  C127     1.0000 0.49830  0.62780  0.12190  Biso   1.000  C
  C128     1.0000 0.55740  0.55740  0.11010  Biso   1.000  C
  C129     1.0000 0.37390  0.50300  0.11920  Biso   1.000  C
  N39      1.0000 0.53320  0.64140  0.17600  Biso   1.000  N
  H73      1.0000 0.46750  0.64910  0.11120  Biso   1.000  H
  C130     1.0000 0.57210  0.59510  0.16800  Biso   1.000  C
  N40      1.0000 0.35930  0.46740  0.17460  Biso   1.000  N
  H74      1.0000 0.35320  0.53410  0.10790  Biso   1.000  H
  C131     1.0000 0.61680  0.58270  0.20460  Biso   1.000  C
  O37      1.0000 0.43000  0.78010  0.25610  Biso   1.000  O
  O38      1.0000 0.41990  0.71090  0.18970  Biso   1.000  O
  N41      1.0000 0.63180  0.61160  0.26220  Biso   1.000  N
  O39      1.0000 0.21940  0.43030  0.24300  Biso   1.000  O
  O40      1.0000 0.28750  0.42000  0.31290  Biso   1.000  O
  C132     1.0000 0.40960  0.76220  0.20120  Biso   1.000  C
  H75      1.0000 0.61200  0.63900  0.27600  Biso   1.000  H
  H76      1.0000 0.66110  0.60260  0.28500  Biso   1.000  H
  C133     1.0000 0.23720  0.58990  0.19950  Biso   1.000  C
  C134     1.0000 0.34920  0.77970  0.18530  Biso   1.000  C
  C135     1.0000 0.22190  0.65070  0.18590  Biso   1.000  C
  C136     1.0000 0.32850  0.82950  0.21050  Biso   1.000  C
  C137     1.0000 0.31950  0.74970  0.13560  Biso   1.000  C
  C138     1.0000 0.25150  0.68070  0.13620  Biso   1.000  C
  H77      1.0000 0.34830  0.84960  0.24370  Biso   1.000  H
  C139     1.0000 0.26920  0.76950  0.11110  Biso   1.000  C
  H78      1.0000 0.33340  0.71640  0.11880  Biso   1.000  H
  H79      1.0000 0.28520  0.66750  0.11980  Biso   1.000  H
  N42      1.0000 0.61250  0.63140  0.25660  Biso   1.000  N
  H80      1.0000 0.64070  0.61200  0.26860  Biso   1.000  H
  H81      1.0000 0.60430  0.66080  0.27990  Biso   1.000  H
  C140     1.0000 0.58130  0.61600  0.20150  Biso   1.000  C
  C141     1.0000 0.59570  0.57040  0.16770  Biso   1.000  C
  O41      1.0000 0.73380  0.44020  0.16070  Biso   1.000  O
  O42      1.0000 0.93950  0.23260  0.16230  Biso   1.000  O
  C142     1.0000 0.80320  0.37320  0.15490  Biso   1.000  C
  C143     1.0000 0.79500  0.36490  0.08320  Biso   1.000  C
  H82      1.0000 0.76860  0.38540  0.05920  Biso   1.000  H
  C144     1.0000 0.82630  0.32570  0.04750  Biso   1.000  C
  C145     1.0000 0.86570  0.29490  0.08340  Biso   1.000  C
  H83      1.0000 0.88670  0.26870  0.05940  Biso   1.000  H
  C146     1.0000 0.87390  0.30330  0.15510  Biso   1.000  C
  C147     1.0000 0.84270  0.34250  0.19090  Biso   1.000  C
  H84      1.0000 0.84820  0.34810  0.23890  Biso   1.000  H
  N43      1.0000 0.01090  0.08150  0.08460  Biso   1.000  N
  N44      1.0000 0.91930  0.98920  0.08400  Biso   1.000  N
  C148     1.0000 0.99830  0.12780  0.12190  Biso   1.000  C
  C149     1.0000 0.05740  0.05740  0.11010  Biso   1.000  C
  C150     1.0000 0.87390  0.00300  0.11920  Biso   1.000  C
  N45      1.0000 0.03320  0.14140  0.17600  Biso   1.000  N
  H85      1.0000 0.96750  0.14910  0.11120  Biso   1.000  H
  C151     1.0000 0.07210  0.09510  0.16800  Biso   1.000  C
  N46      1.0000 0.85930  0.96740  0.17460  Biso   1.000  N
  H86      1.0000 0.85320  0.03410  0.10790  Biso   1.000  H
  C152     1.0000 0.11680  0.08270  0.20460  Biso   1.000  C
  O43      1.0000 0.93000  0.28010  0.25610  Biso   1.000  O
  O44      1.0000 0.91990  0.21090  0.18970  Biso   1.000  O
  N47      1.0000 0.13180  0.11160  0.26220  Biso   1.000  N
  O45      1.0000 0.71940  0.93030  0.24300  Biso   1.000  O
  O46      1.0000 0.78750  0.92000  0.31290  Biso   1.000  O
  C153     1.0000 0.90960  0.26220  0.20120  Biso   1.000  C
  H87      1.0000 0.11200  0.13900  0.27600  Biso   1.000  H
  H88      1.0000 0.16110  0.10260  0.28500  Biso   1.000  H
  C154     1.0000 0.73720  0.08990  0.19950  Biso   1.000  C
  C155     1.0000 0.84920  0.27970  0.18530  Biso   1.000  C
  C156     1.0000 0.72190  0.15070  0.18590  Biso   1.000  C
  C157     1.0000 0.82850  0.32950  0.21050  Biso   1.000  C
  C158     1.0000 0.81950  0.24970  0.13560  Biso   1.000  C
  C159     1.0000 0.75150  0.18070  0.13620  Biso   1.000  C
  H89      1.0000 0.84830  0.34960  0.24370  Biso   1.000  H
  C160     1.0000 0.76920  0.26950  0.11110  Biso   1.000  C
  H90      1.0000 0.83340  0.21640  0.11880  Biso   1.000  H
  H91      1.0000 0.78520  0.16750  0.11980  Biso   1.000  H
  N48      1.0000 0.11250  0.13140  0.25660  Biso   1.000  N
  H92      1.0000 0.14070  0.11200  0.26860  Biso   1.000  H
  H93      1.0000 0.10430  0.16080  0.27990  Biso   1.000  H
  C161     1.0000 0.08130  0.11600  0.20150  Biso   1.000  C
  C162     1.0000 0.09570  0.07040  0.16770  Biso   1.000  C
  O47      1.0000 0.23380  0.94020  0.16070  Biso   1.000  O
  O48      1.0000 0.43950  0.73260  0.16230  Biso   1.000  O
  C163     1.0000 0.30320  0.87320  0.15490  Biso   1.000  C
  C164     1.0000 0.29500  0.86490  0.08320  Biso   1.000  C
  H94      1.0000 0.26860  0.88540  0.05920  Biso   1.000  H
  C165     1.0000 0.32630  0.82570  0.04750  Biso   1.000  C
  C166     1.0000 0.36570  0.79490  0.08340  Biso   1.000  C
  H95      1.0000 0.38670  0.76870  0.05940  Biso   1.000  H
  C167     1.0000 0.37390  0.80330  0.15510  Biso   1.000  C
  C168     1.0000 0.34270  0.84250  0.19090  Biso   1.000  C
  H96      1.0000 0.34820  0.84810  0.23890  Biso   1.000  H
  N49      1.0000 0.48910  0.58150  0.58460  Biso   1.000  N
  N50      1.0000 0.58070  0.48920  0.58400  Biso   1.000  N
  C169     1.0000 0.50170  0.62780  0.62190  Biso   1.000  C
  C170     1.0000 0.44260  0.55740  0.61010  Biso   1.000  C
  C171     1.0000 0.62610  0.50300  0.61920  Biso   1.000  C
  N51      1.0000 0.46680  0.64140  0.67600  Biso   1.000  N
  H97      1.0000 0.53250  0.64910  0.61120  Biso   1.000  H
  C172     1.0000 0.42790  0.59510  0.66800  Biso   1.000  C
  N52      1.0000 0.64070  0.46740  0.67460  Biso   1.000  N
  H98      1.0000 0.64680  0.53410  0.60790  Biso   1.000  H
  C173     1.0000 0.38320  0.58270  0.70460  Biso   1.000  C
  O49      1.0000 0.57000  0.78010  0.75610  Biso   1.000  O
  O50      1.0000 0.58010  0.71090  0.68970  Biso   1.000  O
  N53      1.0000 0.36820  0.61160  0.76220  Biso   1.000  N
  O51      1.0000 0.78060  0.43030  0.74300  Biso   1.000  O
  O52      1.0000 0.71250  0.42000  0.81290  Biso   1.000  O
  C174     1.0000 0.59040  0.76220  0.70120  Biso   1.000  C
  H99      1.0000 0.38800  0.63900  0.77600  Biso   1.000  H
  H100     1.0000 0.33890  0.60260  0.78500  Biso   1.000  H
  C175     1.0000 0.76280  0.58990  0.69950  Biso   1.000  C
  C176     1.0000 0.65080  0.77970  0.68530  Biso   1.000  C
  C177     1.0000 0.77810  0.65070  0.68590  Biso   1.000  C
  C178     1.0000 0.67150  0.82950  0.71050  Biso   1.000  C
  C179     1.0000 0.68050  0.74970  0.63560  Biso   1.000  C
  C180     1.0000 0.74850  0.68070  0.63620  Biso   1.000  C
  H101     1.0000 0.65170  0.84960  0.74370  Biso   1.000  H
  C181     1.0000 0.73080  0.76950  0.61110  Biso   1.000  C
  H102     1.0000 0.66660  0.71640  0.61880  Biso   1.000  H
  H103     1.0000 0.71480  0.66750  0.61980  Biso   1.000  H
  N54      1.0000 0.38750  0.63140  0.75660  Biso   1.000  N
  H104     1.0000 0.35930  0.61200  0.76860  Biso   1.000  H
  H105     1.0000 0.39570  0.66080  0.77990  Biso   1.000  H
  C182     1.0000 0.41870  0.61600  0.70150  Biso   1.000  C
  C183     1.0000 0.40430  0.57040  0.66770  Biso   1.000  C
  O53      1.0000 0.26620  0.44020  0.66070  Biso   1.000  O
  O54      1.0000 0.06050  0.23260  0.66230  Biso   1.000  O
  C184     1.0000 0.19680  0.37320  0.65490  Biso   1.000  C
  C185     1.0000 0.20500  0.36490  0.58320  Biso   1.000  C
  H106     1.0000 0.23140  0.38540  0.55920  Biso   1.000  H
  C186     1.0000 0.17370  0.32570  0.54750  Biso   1.000  C
  C187     1.0000 0.13430  0.29490  0.58340  Biso   1.000  C
  H107     1.0000 0.11330  0.26870  0.55940  Biso   1.000  H
  C188     1.0000 0.12610  0.30330  0.65510  Biso   1.000  C
  C189     1.0000 0.15730  0.34250  0.69090  Biso   1.000  C
  H108     1.0000 0.15180  0.34810  0.73890  Biso   1.000  H
  N55      1.0000 0.98910  0.08150  0.58460  Biso   1.000  N
  N56      1.0000 0.08070  0.98920  0.58400  Biso   1.000  N
  C190     1.0000 0.00170  0.12780  0.62190  Biso   1.000  C
  C191     1.0000 0.94260  0.05740  0.61010  Biso   1.000  C
  C192     1.0000 0.12610  0.00300  0.61920  Biso   1.000  C
  N57      1.0000 0.96680  0.14140  0.67600  Biso   1.000  N
  H109     1.0000 0.03250  0.14910  0.61120  Biso   1.000  H
  C193     1.0000 0.92790  0.09510  0.66800  Biso   1.000  C
  N58      1.0000 0.14070  0.96740  0.67460  Biso   1.000  N
  H110     1.0000 0.14680  0.03410  0.60790  Biso   1.000  H
  C194     1.0000 0.88320  0.08270  0.70460  Biso   1.000  C
  O55      1.0000 0.07000  0.28010  0.75610  Biso   1.000  O
  O56      1.0000 0.08010  0.21090  0.68970  Biso   1.000  O
  N59      1.0000 0.86820  0.11160  0.76220  Biso   1.000  N
  O57      1.0000 0.28060  0.93030  0.74300  Biso   1.000  O
  O58      1.0000 0.21250  0.92000  0.81290  Biso   1.000  O
  C195     1.0000 0.09040  0.26220  0.70120  Biso   1.000  C
  H111     1.0000 0.88800  0.13900  0.77600  Biso   1.000  H
  H112     1.0000 0.83890  0.10260  0.78500  Biso   1.000  H
  C196     1.0000 0.26280  0.08990  0.69950  Biso   1.000  C
  C197     1.0000 0.15080  0.27970  0.68530  Biso   1.000  C
  C198     1.0000 0.27810  0.15070  0.68590  Biso   1.000  C
  C199     1.0000 0.17150  0.32950  0.71050  Biso   1.000  C
  C200     1.0000 0.18050  0.24970  0.63560  Biso   1.000  C
  C201     1.0000 0.24850  0.18070  0.63620  Biso   1.000  C
  H113     1.0000 0.15170  0.34960  0.74370  Biso   1.000  H
  C202     1.0000 0.23080  0.26950  0.61110  Biso   1.000  C
  H114     1.0000 0.16660  0.21640  0.61880  Biso   1.000  H
  H115     1.0000 0.21480  0.16750  0.61980  Biso   1.000  H
  N60      1.0000 0.88750  0.13140  0.75660  Biso   1.000  N
  H116     1.0000 0.85930  0.11200  0.76860  Biso   1.000  H
  H117     1.0000 0.89570  0.16080  0.77990  Biso   1.000  H
  C203     1.0000 0.91870  0.11600  0.70150  Biso   1.000  C
  C204     1.0000 0.90430  0.07040  0.66770  Biso   1.000  C
  O59      1.0000 0.76620  0.94020  0.66070  Biso   1.000  O
  O60      1.0000 0.56050  0.73260  0.66230  Biso   1.000  O
  C205     1.0000 0.69680  0.87320  0.65490  Biso   1.000  C
  C206     1.0000 0.70500  0.86490  0.58320  Biso   1.000  C
  H118     1.0000 0.73140  0.88540  0.55920  Biso   1.000  H
  C207     1.0000 0.67370  0.82570  0.54750  Biso   1.000  C
  C208     1.0000 0.63430  0.79490  0.58340  Biso   1.000  C
  H119     1.0000 0.61330  0.76870  0.55940  Biso   1.000  H
  C209     1.0000 0.62610  0.80330  0.65510  Biso   1.000  C
  C210     1.0000 0.65730  0.84250  0.69090  Biso   1.000  C
  H120     1.0000 0.65180  0.84810  0.73890  Biso   1.000  H
  N61      1.0000 0.51090  0.41850  0.58460  Biso   1.000  N
  N62      1.0000 0.41930  0.51080  0.58400  Biso   1.000  N
  C211     1.0000 0.49830  0.37220  0.62190  Biso   1.000  C
  C212     1.0000 0.55740  0.44260  0.61010  Biso   1.000  C
  C213     1.0000 0.37390  0.49700  0.61920  Biso   1.000  C
  N63      1.0000 0.53320  0.35860  0.67600  Biso   1.000  N
  H121     1.0000 0.46750  0.35090  0.61120  Biso   1.000  H
  C214     1.0000 0.57210  0.40490  0.66800  Biso   1.000  C
  N64      1.0000 0.35930  0.53260  0.67460  Biso   1.000  N
  H122     1.0000 0.35320  0.46590  0.60790  Biso   1.000  H
  C215     1.0000 0.61680  0.41730  0.70460  Biso   1.000  C
  O61      1.0000 0.43000  0.21990  0.75610  Biso   1.000  O
  O62      1.0000 0.41990  0.28910  0.68970  Biso   1.000  O
  N65      1.0000 0.63180  0.38840  0.76220  Biso   1.000  N
  O63      1.0000 0.21940  0.56970  0.74300  Biso   1.000  O
  O64      1.0000 0.28750  0.58000  0.81290  Biso   1.000  O
  C216     1.0000 0.40960  0.23780  0.70120  Biso   1.000  C
  H123     1.0000 0.61200  0.36100  0.77600  Biso   1.000  H
  H124     1.0000 0.66110  0.39740  0.78500  Biso   1.000  H
  C217     1.0000 0.23720  0.41010  0.69950  Biso   1.000  C
  C218     1.0000 0.34920  0.22030  0.68530  Biso   1.000  C
  C219     1.0000 0.22190  0.34930  0.68590  Biso   1.000  C
  C220     1.0000 0.32850  0.17050  0.71050  Biso   1.000  C
  C221     1.0000 0.31950  0.25030  0.63560  Biso   1.000  C
  C222     1.0000 0.25150  0.31930  0.63620  Biso   1.000  C
  H125     1.0000 0.34830  0.15040  0.74370  Biso   1.000  H
  C223     1.0000 0.26920  0.23050  0.61110  Biso   1.000  C
  H126     1.0000 0.33340  0.28360  0.61880  Biso   1.000  H
  H127     1.0000 0.28520  0.33250  0.61980  Biso   1.000  H
  N66      1.0000 0.61250  0.36860  0.75660  Biso   1.000  N
  H128     1.0000 0.64070  0.38800  0.76860  Biso   1.000  H
  H129     1.0000 0.60430  0.33920  0.77990  Biso   1.000  H
  C224     1.0000 0.58130  0.38400  0.70150  Biso   1.000  C
  C225     1.0000 0.59570  0.42960  0.66770  Biso   1.000  C
  O65      1.0000 0.73380  0.55980  0.66070  Biso   1.000  O
  O66      1.0000 0.93950  0.76740  0.66230  Biso   1.000  O
  C226     1.0000 0.80320  0.62680  0.65490  Biso   1.000  C
  C227     1.0000 0.79500  0.63510  0.58320  Biso   1.000  C
  H130     1.0000 0.76860  0.61460  0.55920  Biso   1.000  H
  C228     1.0000 0.82630  0.67430  0.54750  Biso   1.000  C
  C229     1.0000 0.86570  0.70510  0.58340  Biso   1.000  C
  H131     1.0000 0.88670  0.73130  0.55940  Biso   1.000  H
  C230     1.0000 0.87390  0.69670  0.65510  Biso   1.000  C
  C231     1.0000 0.84270  0.65750  0.69090  Biso   1.000  C
  H132     1.0000 0.84820  0.65190  0.73890  Biso   1.000  H
  N67      1.0000 0.01090  0.91850  0.58460  Biso   1.000  N
  N68      1.0000 0.91930  0.01080  0.58400  Biso   1.000  N
  C232     1.0000 0.99830  0.87220  0.62190  Biso   1.000  C
  C233     1.0000 0.05740  0.94260  0.61010  Biso   1.000  C
  C234     1.0000 0.87390  0.99700  0.61920  Biso   1.000  C
  N69      1.0000 0.03320  0.85860  0.67600  Biso   1.000  N
  H133     1.0000 0.96750  0.85090  0.61120  Biso   1.000  H
  C235     1.0000 0.07210  0.90490  0.66800  Biso   1.000  C
  N70      1.0000 0.85930  0.03260  0.67460  Biso   1.000  N
  H134     1.0000 0.85320  0.96590  0.60790  Biso   1.000  H
  C236     1.0000 0.11680  0.91730  0.70460  Biso   1.000  C
  O67      1.0000 0.93000  0.71990  0.75610  Biso   1.000  O
  O68      1.0000 0.91990  0.78910  0.68970  Biso   1.000  O
  N71      1.0000 0.13180  0.88840  0.76220  Biso   1.000  N
  O69      1.0000 0.71940  0.06970  0.74300  Biso   1.000  O
  O70      1.0000 0.78750  0.08000  0.81290  Biso   1.000  O
  C237     1.0000 0.90960  0.73780  0.70120  Biso   1.000  C
  H135     1.0000 0.11200  0.86100  0.77600  Biso   1.000  H
  H136     1.0000 0.16110  0.89740  0.78500  Biso   1.000  H
  C238     1.0000 0.73720  0.91010  0.69950  Biso   1.000  C
  C239     1.0000 0.84920  0.72030  0.68530  Biso   1.000  C
  C240     1.0000 0.72190  0.84930  0.68590  Biso   1.000  C
  C241     1.0000 0.82850  0.67050  0.71050  Biso   1.000  C
  C242     1.0000 0.81950  0.75030  0.63560  Biso   1.000  C
  C243     1.0000 0.75150  0.81930  0.63620  Biso   1.000  C
  H137     1.0000 0.84830  0.65040  0.74370  Biso   1.000  H
  C244     1.0000 0.76920  0.73050  0.61110  Biso   1.000  C
  H138     1.0000 0.83340  0.78360  0.61880  Biso   1.000  H
  H139     1.0000 0.78520  0.83250  0.61980  Biso   1.000  H
  N72      1.0000 0.11250  0.86860  0.75660  Biso   1.000  N
  H140     1.0000 0.14070  0.88800  0.76860  Biso   1.000  H
  H141     1.0000 0.10430  0.83920  0.77990  Biso   1.000  H
  C245     1.0000 0.08130  0.88400  0.70150  Biso   1.000  C
  C246     1.0000 0.09570  0.92960  0.66770  Biso   1.000  C
  O71      1.0000 0.23380  0.05980  0.66070  Biso   1.000  O
  O72      1.0000 0.43950  0.26740  0.66230  Biso   1.000  O
  C247     1.0000 0.30320  0.12680  0.65490  Biso   1.000  C
  C248     1.0000 0.29500  0.13510  0.58320  Biso   1.000  C
  H142     1.0000 0.26860  0.11460  0.55920  Biso   1.000  H
  C249     1.0000 0.32630  0.17430  0.54750  Biso   1.000  C
  C250     1.0000 0.36570  0.20510  0.58340  Biso   1.000  C
  H143     1.0000 0.38670  0.23130  0.55940  Biso   1.000  H
  C251     1.0000 0.37390  0.19670  0.65510  Biso   1.000  C
  C252     1.0000 0.34270  0.15750  0.69090  Biso   1.000  C
  H144     1.0000 0.34820  0.15190  0.73890  Biso   1.000  H
  N73      1.0000 0.51090  0.58150  0.91540  Biso   1.000  N
  N74      1.0000 0.41930  0.48920  0.91600  Biso   1.000  N
  C253     1.0000 0.49830  0.62780  0.87810  Biso   1.000  C
  C254     1.0000 0.55740  0.55740  0.88990  Biso   1.000  C
  C255     1.0000 0.37390  0.50300  0.88080  Biso   1.000  C
  N75      1.0000 0.53320  0.64140  0.82400  Biso   1.000  N
  H145     1.0000 0.46750  0.64910  0.88880  Biso   1.000  H
  C256     1.0000 0.57210  0.59510  0.83200  Biso   1.000  C
  N76      1.0000 0.35930  0.46740  0.82540  Biso   1.000  N
  H146     1.0000 0.35320  0.53410  0.89210  Biso   1.000  H
  C257     1.0000 0.61680  0.58270  0.79540  Biso   1.000  C
  O73      1.0000 0.43000  0.78010  0.74390  Biso   1.000  O
  O74      1.0000 0.41990  0.71090  0.81030  Biso   1.000  O
  N77      1.0000 0.63180  0.61160  0.73780  Biso   1.000  N
  O75      1.0000 0.21940  0.43030  0.75700  Biso   1.000  O
  O76      1.0000 0.28750  0.42000  0.68710  Biso   1.000  O
  C258     1.0000 0.40960  0.76220  0.79880  Biso   1.000  C
  H147     1.0000 0.61200  0.63900  0.72400  Biso   1.000  H
  H148     1.0000 0.66110  0.60260  0.71500  Biso   1.000  H
  C259     1.0000 0.23720  0.58990  0.80050  Biso   1.000  C
  C260     1.0000 0.34920  0.77970  0.81470  Biso   1.000  C
  C261     1.0000 0.22190  0.65070  0.81410  Biso   1.000  C
  C262     1.0000 0.32850  0.82950  0.78950  Biso   1.000  C
  C263     1.0000 0.31950  0.74970  0.86440  Biso   1.000  C
  C264     1.0000 0.25150  0.68070  0.86380  Biso   1.000  C
  H149     1.0000 0.34830  0.84960  0.75630  Biso   1.000  H
  C265     1.0000 0.26920  0.76950  0.88890  Biso   1.000  C
  H150     1.0000 0.33340  0.71640  0.88120  Biso   1.000  H
  H151     1.0000 0.28520  0.66750  0.88020  Biso   1.000  H
  N78      1.0000 0.61250  0.63140  0.74340  Biso   1.000  N
  H152     1.0000 0.64070  0.61200  0.73140  Biso   1.000  H
  H153     1.0000 0.60430  0.66080  0.72010  Biso   1.000  H
  C266     1.0000 0.58130  0.61600  0.79850  Biso   1.000  C
  C267     1.0000 0.59570  0.57040  0.83230  Biso   1.000  C
  O77      1.0000 0.73380  0.44020  0.83930  Biso   1.000  O
  O78      1.0000 0.93950  0.23260  0.83770  Biso   1.000  O
  C268     1.0000 0.80320  0.37320  0.84510  Biso   1.000  C
  C269     1.0000 0.79500  0.36490  0.91680  Biso   1.000  C
  H154     1.0000 0.76860  0.38540  0.94080  Biso   1.000  H
  C270     1.0000 0.82630  0.32570  0.95250  Biso   1.000  C
  C271     1.0000 0.86570  0.29490  0.91660  Biso   1.000  C
  H155     1.0000 0.88670  0.26870  0.94060  Biso   1.000  H
  C272     1.0000 0.87390  0.30330  0.84490  Biso   1.000  C
  C273     1.0000 0.84270  0.34250  0.80910  Biso   1.000  C
  H156     1.0000 0.84820  0.34810  0.76110  Biso   1.000  H
  N79      1.0000 0.01090  0.08150  0.91540  Biso   1.000  N
  N80      1.0000 0.91930  0.98920  0.91600  Biso   1.000  N
  C274     1.0000 0.99830  0.12780  0.87810  Biso   1.000  C
  C275     1.0000 0.05740  0.05740  0.88990  Biso   1.000  C
  C276     1.0000 0.87390  0.00300  0.88080  Biso   1.000  C
  N81      1.0000 0.03320  0.14140  0.82400  Biso   1.000  N
  H157     1.0000 0.96750  0.14910  0.88880  Biso   1.000  H
  C277     1.0000 0.07210  0.09510  0.83200  Biso   1.000  C
  N82      1.0000 0.85930  0.96740  0.82540  Biso   1.000  N
  H158     1.0000 0.85320  0.03410  0.89210  Biso   1.000  H
  C278     1.0000 0.11680  0.08270  0.79540  Biso   1.000  C
  O79      1.0000 0.93000  0.28010  0.74390  Biso   1.000  O
  O80      1.0000 0.91990  0.21090  0.81030  Biso   1.000  O
  N83      1.0000 0.13180  0.11160  0.73780  Biso   1.000  N
  O81      1.0000 0.71940  0.93030  0.75700  Biso   1.000  O
  O82      1.0000 0.78750  0.92000  0.68710  Biso   1.000  O
  C279     1.0000 0.90960  0.26220  0.79880  Biso   1.000  C
  H159     1.0000 0.11200  0.13900  0.72400  Biso   1.000  H
  H160     1.0000 0.16110  0.10260  0.71500  Biso   1.000  H
  C280     1.0000 0.73720  0.08990  0.80050  Biso   1.000  C
  C281     1.0000 0.84920  0.27970  0.81470  Biso   1.000  C
  C282     1.0000 0.72190  0.15070  0.81410  Biso   1.000  C
  C283     1.0000 0.82850  0.32950  0.78950  Biso   1.000  C
  C284     1.0000 0.81950  0.24970  0.86440  Biso   1.000  C
  C285     1.0000 0.75150  0.18070  0.86380  Biso   1.000  C
  H161     1.0000 0.84830  0.34960  0.75630  Biso   1.000  H
  C286     1.0000 0.76920  0.26950  0.88890  Biso   1.000  C
  H162     1.0000 0.83340  0.21640  0.88120  Biso   1.000  H
  H163     1.0000 0.78520  0.16750  0.88020  Biso   1.000  H
  N84      1.0000 0.11250  0.13140  0.74340  Biso   1.000  N
  H164     1.0000 0.14070  0.11200  0.73140  Biso   1.000  H
  H165     1.0000 0.10430  0.16080  0.72010  Biso   1.000  H
  C287     1.0000 0.08130  0.11600  0.79850  Biso   1.000  C
  C288     1.0000 0.09570  0.07040  0.83230  Biso   1.000  C
  O83      1.0000 0.23380  0.94020  0.83930  Biso   1.000  O
  O84      1.0000 0.43950  0.73260  0.83770  Biso   1.000  O
  C289     1.0000 0.30320  0.87320  0.84510  Biso   1.000  C
  C290     1.0000 0.29500  0.86490  0.91680  Biso   1.000  C
  H166     1.0000 0.26860  0.88540  0.94080  Biso   1.000  H
  C291     1.0000 0.32630  0.82570  0.95250  Biso   1.000  C
  C292     1.0000 0.36570  0.79490  0.91660  Biso   1.000  C
  H167     1.0000 0.38670  0.76870  0.94060  Biso   1.000  H
  C293     1.0000 0.37390  0.80330  0.84490  Biso   1.000  C
  C294     1.0000 0.34270  0.84250  0.80910  Biso   1.000  C
  H168     1.0000 0.34820  0.84810  0.76110  Biso   1.000  H
  N85      1.0000 0.48910  0.41850  0.91540  Biso   1.000  N
  N86      1.0000 0.58070  0.51080  0.91600  Biso   1.000  N
  C295     1.0000 0.50170  0.37220  0.87810  Biso   1.000  C
  C296     1.0000 0.44260  0.44260  0.88990  Biso   1.000  C
  C297     1.0000 0.62610  0.49700  0.88080  Biso   1.000  C
  N87      1.0000 0.46680  0.35860  0.82400  Biso   1.000  N
  H169     1.0000 0.53250  0.35090  0.88880  Biso   1.000  H
  C298     1.0000 0.42790  0.40490  0.83200  Biso   1.000  C
  N88      1.0000 0.64070  0.53260  0.82540  Biso   1.000  N
  H170     1.0000 0.64680  0.46590  0.89210  Biso   1.000  H
  C299     1.0000 0.38320  0.41730  0.79540  Biso   1.000  C
  O85      1.0000 0.57000  0.21990  0.74390  Biso   1.000  O
  O86      1.0000 0.58010  0.28910  0.81030  Biso   1.000  O
  N89      1.0000 0.36820  0.38840  0.73780  Biso   1.000  N
  O87      1.0000 0.78060  0.56970  0.75700  Biso   1.000  O
  O88      1.0000 0.71250  0.58000  0.68710  Biso   1.000  O
  C300     1.0000 0.59040  0.23780  0.79880  Biso   1.000  C
  H171     1.0000 0.38800  0.36100  0.72400  Biso   1.000  H
  H172     1.0000 0.33890  0.39740  0.71500  Biso   1.000  H
  C301     1.0000 0.76280  0.41010  0.80050  Biso   1.000  C
  C302     1.0000 0.65080  0.22030  0.81470  Biso   1.000  C
  C303     1.0000 0.77810  0.34930  0.81410  Biso   1.000  C
  C304     1.0000 0.67150  0.17050  0.78950  Biso   1.000  C
  C305     1.0000 0.68050  0.25030  0.86440  Biso   1.000  C
  C306     1.0000 0.74850  0.31930  0.86380  Biso   1.000  C
  H173     1.0000 0.65170  0.15040  0.75630  Biso   1.000  H
  C307     1.0000 0.73080  0.23050  0.88890  Biso   1.000  C
  H174     1.0000 0.66660  0.28360  0.88120  Biso   1.000  H
  H175     1.0000 0.71480  0.33250  0.88020  Biso   1.000  H
  N90      1.0000 0.38750  0.36860  0.74340  Biso   1.000  N
  H176     1.0000 0.35930  0.38800  0.73140  Biso   1.000  H
  H177     1.0000 0.39570  0.33920  0.72010  Biso   1.000  H
  C308     1.0000 0.41870  0.38400  0.79850  Biso   1.000  C
  C309     1.0000 0.40430  0.42960  0.83230  Biso   1.000  C
  O89      1.0000 0.26620  0.55980  0.83930  Biso   1.000  O
  O90      1.0000 0.06050  0.76740  0.83770  Biso   1.000  O
  C310     1.0000 0.19680  0.62680  0.84510  Biso   1.000  C
  C311     1.0000 0.20500  0.63510  0.91680  Biso   1.000  C
  H178     1.0000 0.23140  0.61460  0.94080  Biso   1.000  H
  C312     1.0000 0.17370  0.67430  0.95250  Biso   1.000  C
  C313     1.0000 0.13430  0.70510  0.91660  Biso   1.000  C
  H179     1.0000 0.11330  0.73130  0.94060  Biso   1.000  H
  C314     1.0000 0.12610  0.69670  0.84490  Biso   1.000  C
  C315     1.0000 0.15730  0.65750  0.80910  Biso   1.000  C
  H180     1.0000 0.15180  0.65190  0.76110  Biso   1.000  H
  N91      1.0000 0.98910  0.91850  0.91540  Biso   1.000  N
  N92      1.0000 0.08070  0.01080  0.91600  Biso   1.000  N
  C316     1.0000 0.00170  0.87220  0.87810  Biso   1.000  C
  C317     1.0000 0.94260  0.94260  0.88990  Biso   1.000  C
  C318     1.0000 0.12610  0.99700  0.88080  Biso   1.000  C
  N93      1.0000 0.96680  0.85860  0.82400  Biso   1.000  N
  H181     1.0000 0.03250  0.85090  0.88880  Biso   1.000  H
  C319     1.0000 0.92790  0.90490  0.83200  Biso   1.000  C
  N94      1.0000 0.14070  0.03260  0.82540  Biso   1.000  N
  H182     1.0000 0.14680  0.96590  0.89210  Biso   1.000  H
  C320     1.0000 0.88320  0.91730  0.79540  Biso   1.000  C
  O91      1.0000 0.07000  0.71990  0.74390  Biso   1.000  O
  O92      1.0000 0.08010  0.78910  0.81030  Biso   1.000  O
  N95      1.0000 0.86820  0.88840  0.73780  Biso   1.000  N
  O93      1.0000 0.28060  0.06970  0.75700  Biso   1.000  O
  O94      1.0000 0.21250  0.08000  0.68710  Biso   1.000  O
  C321     1.0000 0.09040  0.73780  0.79880  Biso   1.000  C
  H183     1.0000 0.88800  0.86100  0.72400  Biso   1.000  H
  H184     1.0000 0.83890  0.89740  0.71500  Biso   1.000  H
  C322     1.0000 0.26280  0.91010  0.80050  Biso   1.000  C
  C323     1.0000 0.15080  0.72030  0.81470  Biso   1.000  C
  C324     1.0000 0.27810  0.84930  0.81410  Biso   1.000  C
  C325     1.0000 0.17150  0.67050  0.78950  Biso   1.000  C
  C326     1.0000 0.18050  0.75030  0.86440  Biso   1.000  C
  C327     1.0000 0.24850  0.81930  0.86380  Biso   1.000  C
  H185     1.0000 0.15170  0.65040  0.75630  Biso   1.000  H
  C328     1.0000 0.23080  0.73050  0.88890  Biso   1.000  C
  H186     1.0000 0.16660  0.78360  0.88120  Biso   1.000  H
  H187     1.0000 0.21480  0.83250  0.88020  Biso   1.000  H
  N96      1.0000 0.88750  0.86860  0.74340  Biso   1.000  N
  H188     1.0000 0.85930  0.88800  0.73140  Biso   1.000  H
  H189     1.0000 0.89570  0.83920  0.72010  Biso   1.000  H
  C329     1.0000 0.91870  0.88400  0.79850  Biso   1.000  C
  C330     1.0000 0.90430  0.92960  0.83230  Biso   1.000  C
  O95      1.0000 0.76620  0.05980  0.83930  Biso   1.000  O
  O96      1.0000 0.56050  0.26740  0.83770  Biso   1.000  O
  C331     1.0000 0.69680  0.12680  0.84510  Biso   1.000  C
  C332     1.0000 0.70500  0.13510  0.91680  Biso   1.000  C
  H190     1.0000 0.73140  0.11460  0.94080  Biso   1.000  H
  C333     1.0000 0.67370  0.17430  0.95250  Biso   1.000  C
  C334     1.0000 0.63430  0.20510  0.91660  Biso   1.000  C
  H191     1.0000 0.61330  0.23130  0.94060  Biso   1.000  H
  C335     1.0000 0.62610  0.19670  0.84490  Biso   1.000  C
  C336     1.0000 0.65730  0.15750  0.80910  Biso   1.000  C
  H192     1.0000 0.65180  0.15190  0.76110  Biso   1.000  H
  Cd1      1.0000 0.44819  0.44758  0.50000  Biso   1.000  Cd
  Br1      1.0000 0.62677  0.62763  0.50000  Biso   1.000  Br
  H193     1.0000 0.82080  0.67990  0.50000  Biso   1.000  H
  Cd2      1.0000 0.94819  0.94758  0.50000  Biso   1.000  Cd
  Br2      1.0000 0.12677  0.12763  0.50000  Biso   1.000  Br
  H194     1.0000 0.32080  0.17990  0.50000  Biso   1.000  H
  Cd3      1.0000 0.55181  0.55242  0.50000  Biso   1.000  Cd
  Br3      1.0000 0.37323  0.37237  0.50000  Biso   1.000  Br
  H195     1.0000 0.17920  0.32010  0.50000  Biso   1.000  H
  Cd4      1.0000 0.05181  0.05242  0.50000  Biso   1.000  Cd
  Br4      1.0000 0.87323  0.87237  0.50000  Biso   1.000  Br
  H196     1.0000 0.67920  0.82010  0.50000  Biso   1.000  H
  Cd5      1.0000 0.55181  0.44758  0.00000  Biso   1.000  Cd
  Br5      1.0000 0.37323  0.62763  0.00000  Biso   1.000  Br
  H197     1.0000 0.17920  0.67990  0.00000  Biso   1.000  H
  Cd6      1.0000 0.05181  0.94758  0.00000  Biso   1.000  Cd
  Br6      1.0000 0.87323  0.12763  0.00000  Biso   1.000  Br
  H198     1.0000 0.67920  0.17990  0.00000  Biso   1.000  H
  Cd7      1.0000 0.44819  0.55242  0.00000  Biso   1.000  Cd
  Br7      1.0000 0.62677  0.37237  0.00000  Biso   1.000  Br
  H199     1.0000 0.82080  0.32010  0.00000  Biso   1.000  H
  Cd8      1.0000 0.94819  0.05242  0.00000  Biso   1.000  Cd
  Br8      1.0000 0.12677  0.87237  0.00000  Biso   1.000  Br
  H200     1.0000 0.32080  0.82010  0.00000  Biso   1.000  H
  Cd9      1.0000 0.50000  0.28989  0.25000  Biso   1.000  Cd
  Cd10     1.0000 0.00000  0.78989  0.25000  Biso   1.000  Cd
  Cd11     1.0000 0.50000  0.71011  0.25000  Biso   1.000  Cd
  Cd12     1.0000 0.00000  0.21011  0.25000  Biso   1.000  Cd
  Cd13     1.0000 0.50000  0.71011  0.75000  Biso   1.000  Cd
  Cd14     1.0000 0.00000  0.21011  0.75000  Biso   1.000  Cd
  Cd15     1.0000 0.50000  0.28989  0.75000  Biso   1.000  Cd
  Cd16     1.0000 0.00000  0.78989  0.75000  Biso   1.000  Cd
  Cd17     1.0000 0.29072  0.50000  0.25000  Biso   1.000  Cd
  Cd18     1.0000 0.79072  0.00000  0.25000  Biso   1.000  Cd
  Cd19     1.0000 0.70928  0.50000  0.25000  Biso   1.000  Cd
  Cd20     1.0000 0.20928  0.00000  0.25000  Biso   1.000  Cd
  Cd21     1.0000 0.70928  0.50000  0.75000  Biso   1.000  Cd
  Cd22     1.0000 0.20928  0.00000  0.75000  Biso   1.000  Cd
  Cd23     1.0000 0.29072  0.50000  0.75000  Biso   1.000  Cd
  Cd24     1.0000 0.79072  0.00000  0.75000  Biso   1.000  Cd
  H201     1.0000 0.75000  0.75000  0.42330  Biso   1.000  H
  H202     1.0000 0.25000  0.25000  0.42330  Biso   1.000  H
  H203     1.0000 0.25000  0.75000  0.07670  Biso   1.000  H
  H204     1.0000 0.75000  0.25000  0.07670  Biso   1.000  H
  H205     1.0000 0.25000  0.25000  0.57670  Biso   1.000  H
  H206     1.0000 0.75000  0.75000  0.57670  Biso   1.000  H
  H207     1.0000 0.75000  0.25000  0.92330  Biso   1.000  H
  H208     1.0000 0.25000  0.75000  0.92330  Biso   1.000  H
