data_image0
_cell_length_a       13.0242
_cell_length_b       13.7795
_cell_length_c       23.9552
_cell_angle_alpha    81.259
_cell_angle_beta     86.49
_cell_angle_gamma    70.046

_symmetry_space_group_name_H-M    "P 1"
_symmetry_int_tables_number       1

loop_
  _symmetry_equiv_pos_as_xyz
  'x, y, z'

loop_
  _atom_site_label
  _atom_site_occupancy
  _atom_site_fract_x
  _atom_site_fract_y
  _atom_site_fract_z
  _atom_site_thermal_displace_type
  _atom_site_B_iso_or_equiv
  _atom_site_type_symbol
  Cu1      1.0000 0.52670  0.76764  0.26552  Biso   1.000  Cu
  Cu2      1.0000 0.47799  0.77616  0.76430  Biso   1.000  Cu
  O1       1.0000 0.62010  0.65500  0.22810  Biso   1.000  O
  O2       1.0000 0.43580  0.88530  0.29940  Biso   1.000  O
  O3       1.0000 0.67100  0.23310  0.21050  Biso   1.000  O
  O4       1.0000 0.52820  0.65280  0.82220  Biso   1.000  O
  O5       1.0000 0.43140  0.81620  0.19910  Biso   1.000  O
  O6       1.0000 0.41850  0.89840  0.70760  Biso   1.000  O
  O7       1.0000 0.61290  0.71620  0.33330  Biso   1.000  O
  C1       1.0000 0.79920  0.62630  0.20310  Biso   1.000  C
  H1       1.0000 0.77560  0.68340  0.17370  Biso   1.000  H
  C2       1.0000 0.90850  0.56950  0.20740  Biso   1.000  C
  H2       1.0000 0.95900  0.58430  0.18010  Biso   1.000  H
  C3       1.0000 0.94500  0.48800  0.25360  Biso   1.000  C
  C4       1.0000 0.87040  0.47150  0.29200  Biso   1.000  C
  H3       1.0000 0.89240  0.42230  0.32510  Biso   1.000  H
  C5       1.0000 0.75740  0.52980  0.28170  Biso   1.000  C
  H4       1.0000 0.70350  0.51450  0.30650  Biso   1.000  H
  C6       1.0000 0.24750  0.38560  0.23240  Biso   1.000  C
  H5       1.0000 0.30180  0.40720  0.21110  Biso   1.000  H
  C7       1.0000 0.14080  0.44820  0.22610  Biso   1.000  C
  H6       1.0000 0.12210  0.50900  0.19890  Biso   1.000  H
  C8       1.0000 0.05960  0.42400  0.25910  Biso   1.000  C
  C9       1.0000 0.09020  0.33310  0.29560  Biso   1.000  C
  H7       1.0000 0.03730  0.31070  0.31780  Biso   1.000  H
  C10      1.0000 0.20280  0.27310  0.29960  Biso   1.000  C
  H8       1.0000 0.22480  0.21310  0.32740  Biso   1.000  H
  C11      1.0000 0.30330  0.01710  0.25040  Biso   1.000  C
  H9       1.0000 0.35820  0.04410  0.23420  Biso   1.000  H
  C12      1.0000 0.18930  0.07430  0.23760  Biso   1.000  C
  H10      1.0000 0.16870  0.13970  0.21400  Biso   1.000  H
  C13      1.0000 0.10980  0.03170  0.26070  Biso   1.000  C
  C14      1.0000 0.15010  0.93390  0.29840  Biso   1.000  C
  H11      1.0000 0.10080  0.90080  0.31570  Biso   1.000  H
  C15      1.0000 0.25790  0.89050  0.30860  Biso   1.000  C
  H12      1.0000 0.28240  0.82890  0.33510  Biso   1.000  H
  C16      1.0000 0.81100  0.08430  0.25530  Biso   1.000  C
  H13      1.0000 0.76050  0.05040  0.26940  Biso   1.000  H
  C17      1.0000 0.92010  0.03520  0.26370  Biso   1.000  C
  H14      1.0000 0.94500  0.96440  0.28060  Biso   1.000  H
  C18      1.0000 0.99310  0.08280  0.24900  Biso   1.000  C
  C19      1.0000 0.95270  0.18620  0.22420  Biso   1.000  C
  H15      1.0000 0.00110  0.22470  0.21490  Biso   1.000  H
  C20      1.0000 0.84360  0.23300  0.21300  Biso   1.000  C
  H16      1.0000 0.81740  0.30330  0.19520  Biso   1.000  H
  C21      1.0000 0.43440  0.65320  0.90710  Biso   1.000  C
  H17      1.0000 0.37890  0.63680  0.89060  Biso   1.000  H
  C22      1.0000 0.42970  0.66390  0.96220  Biso   1.000  C
  H18      1.0000 0.37000  0.65350  0.98400  Biso   1.000  H
  C23      1.0000 0.50820  0.68960  0.98970  Biso   1.000  C
  C24      1.0000 0.59560  0.69880  0.95530  Biso   1.000  C
  H19      1.0000 0.65350  0.71340  0.97060  Biso   1.000  H
  C25      1.0000 0.59840  0.68650  0.89770  Biso   1.000  C
  H20      1.0000 0.65790  0.69300  0.87430  Biso   1.000  H
  C26      1.0000 0.53630  0.79740  0.11990  Biso   1.000  C
  H21      1.0000 0.57710  0.83530  0.13240  Biso   1.000  H
  C27      1.0000 0.55350  0.76830  0.06770  Biso   1.000  C
  H22      1.0000 0.60520  0.78820  0.04320  Biso   1.000  H
  C28      1.0000 0.49750  0.71000  0.04930  Biso   1.000  C
  C29      1.0000 0.42320  0.68140  0.08700  Biso   1.000  C
  H23      1.0000 0.38060  0.64410  0.07560  Biso   1.000  H
  C30      1.0000 0.41260  0.70640  0.13800  Biso   1.000  C
  H24      1.0000 0.37010  0.67850  0.16520  Biso   1.000  H
  C31      1.0000 0.51390  0.91670  0.62370  Biso   1.000  C
  H25      1.0000 0.54980  0.95430  0.64050  Biso   1.000  H
  C32      1.0000 0.53810  0.89680  0.56910  Biso   1.000  C
  H26      1.0000 0.59420  0.91790  0.54940  Biso   1.000  H
  C33      1.0000 0.48420  0.84750  0.54160  Biso   1.000  C
  C34      1.0000 0.39920  0.82660  0.57390  Biso   1.000  C
  H27      1.0000 0.35240  0.80010  0.55670  Biso   1.000  H
  C35      1.0000 0.38090  0.84250  0.62870  Biso   1.000  C
  H28      1.0000 0.32440  0.82410  0.64980  Biso   1.000  H
  C36      1.0000 0.48430  0.74570  0.40640  Biso   1.000  C
  H29      1.0000 0.44230  0.71650  0.38750  Biso   1.000  H
  C37      1.0000 0.45160  0.77560  0.45770  Biso   1.000  C
  H30      1.0000 0.38770  0.76580  0.47520  Biso   1.000  H
  C38      1.0000 0.51270  0.82160  0.48530  Biso   1.000  C
  C39      1.0000 0.60850  0.82770  0.45820  Biso   1.000  C
  H31      1.0000 0.65540  0.85330  0.47590  Biso   1.000  H
  C40      1.0000 0.63530  0.79670  0.40580  Biso   1.000  C
  H32      1.0000 0.69860  0.80450  0.38660  Biso   1.000  H
  N1       1.0000 0.72640  0.60470  0.23800  Biso   1.000  N
  N2       1.0000 0.27840  0.29640  0.26670  Biso   1.000  N
  N3       1.0000 0.33030  0.92870  0.28400  Biso   1.000  N
  N4       1.0000 0.77520  0.18260  0.22630  Biso   1.000  N
  N5       1.0000 0.51720  0.66590  0.87650  Biso   1.000  N
  N6       1.0000 0.46160  0.77220  0.15310  Biso   1.000  N
  N7       1.0000 0.44070  0.88310  0.65240  Biso   1.000  N
  N8       1.0000 0.57450  0.75680  0.38250  Biso   1.000  N
  O8       1.0000 0.37490  0.22930  0.26670  Biso   1.000  O
  O9       1.0000 0.47790  0.88750  0.81960  Biso   1.000  O
  O10      1.0000 0.62380  0.88050  0.23180  Biso   1.000  O
  H33      1.0000 0.66630  0.85590  0.20520  Biso   1.000  H
  H34      1.0000 0.66250  0.88450  0.25810  Biso   1.000  H
  N9       1.0000 0.52300  0.92000  0.86550  Biso   1.000  N
  C41      1.0000 0.60920  0.93000  0.89020  Biso   1.000  C
  H35      1.0000 0.67590  0.91640  0.86940  Biso   1.000  H
  C42      1.0000 0.60760  0.95780  0.94190  Biso   1.000  C
  H36      1.0000 0.67050  0.96180  0.95830  Biso   1.000  H
  C43      1.0000 0.50940  0.97950  0.96880  Biso   1.000  C
  C44      1.0000 0.41930  0.97000  0.94860  Biso   1.000  C
  H37      1.0000 0.35560  0.97380  0.97100  Biso   1.000  H
  C45      1.0000 0.42700  0.95470  0.89380  Biso   1.000  C
  H38      1.0000 0.36130  0.96920  0.87390  Biso   1.000  H
  O11      1.0000 0.73900  0.35500  0.76040  Biso   1.000  O
  N10      1.0000 0.36820  0.96190  0.81270  Biso   1.000  N
  C46      1.0000 0.35810  0.04310  0.77120  Biso   1.000  C
  H39      1.0000 0.41680  0.05070  0.74740  Biso   1.000  H
  C47      1.0000 0.25510  0.11220  0.76720  Biso   1.000  C
  H40      1.0000 0.24290  0.17110  0.73890  Biso   1.000  H
  C48      1.0000 0.16740  0.10640  0.79940  Biso   1.000  C
  C49      1.0000 0.19400  0.02580  0.84230  Biso   1.000  C
  H41      1.0000 0.13780  0.02260  0.86890  Biso   1.000  H
  C50      1.0000 0.29140  0.94990  0.85100  Biso   1.000  C
  H42      1.0000 0.30480  0.89370  0.88110  Biso   1.000  H
  N11      1.0000 0.84360  0.29300  0.77070  Biso   1.000  N
  C51      1.0000 0.87240  0.24400  0.82380  Biso   1.000  C
  H43      1.0000 0.82020  0.24750  0.85360  Biso   1.000  H
  C52      1.0000 0.97980  0.19100  0.83170  Biso   1.000  C
  H44      1.0000 0.00480  0.16620  0.86940  Biso   1.000  H
  C53      1.0000 0.05380  0.17100  0.78920  Biso   1.000  C
  C54      1.0000 0.02070  0.23400  0.73930  Biso   1.000  C
  H45      1.0000 0.07470  0.23720  0.71130  Biso   1.000  H
  C55      1.0000 0.91500  0.29200  0.72720  Biso   1.000  C
  H46      1.0000 0.89280  0.32820  0.69070  Biso   1.000  H
  Cu3      1.0000 0.47330  0.23236  0.73448  Biso   1.000  Cu
  Cu4      1.0000 0.52201  0.22384  0.23570  Biso   1.000  Cu
  O12      1.0000 0.37990  0.34500  0.77190  Biso   1.000  O
  O13      1.0000 0.56420  0.11470  0.70060  Biso   1.000  O
  O14      1.0000 0.32900  0.76690  0.78950  Biso   1.000  O
  O15      1.0000 0.47180  0.34720  0.17780  Biso   1.000  O
  O16      1.0000 0.56860  0.18380  0.80090  Biso   1.000  O
  O17      1.0000 0.58150  0.10160  0.29240  Biso   1.000  O
  O18      1.0000 0.38710  0.28380  0.66670  Biso   1.000  O
  C56      1.0000 0.20080  0.37370  0.79690  Biso   1.000  C
  H47      1.0000 0.22440  0.31660  0.82630  Biso   1.000  H
  C57      1.0000 0.09150  0.43050  0.79260  Biso   1.000  C
  H48      1.0000 0.04100  0.41570  0.81990  Biso   1.000  H
  C58      1.0000 0.05500  0.51200  0.74640  Biso   1.000  C
  C59      1.0000 0.12960  0.52850  0.70800  Biso   1.000  C
  H49      1.0000 0.10760  0.57770  0.67490  Biso   1.000  H
  C60      1.0000 0.24260  0.47020  0.71830  Biso   1.000  C
  H50      1.0000 0.29650  0.48550  0.69350  Biso   1.000  H
  C61      1.0000 0.75250  0.61440  0.76760  Biso   1.000  C
  H51      1.0000 0.69820  0.59280  0.78890  Biso   1.000  H
  C62      1.0000 0.85920  0.55180  0.77390  Biso   1.000  C
  H52      1.0000 0.87790  0.49100  0.80110  Biso   1.000  H
  C63      1.0000 0.94040  0.57600  0.74090  Biso   1.000  C
  C64      1.0000 0.90980  0.66690  0.70440  Biso   1.000  C
  H53      1.0000 0.96270  0.68930  0.68220  Biso   1.000  H
  C65      1.0000 0.79720  0.72690  0.70040  Biso   1.000  C
  H54      1.0000 0.77520  0.78690  0.67260  Biso   1.000  H
  C66      1.0000 0.69670  0.98290  0.74960  Biso   1.000  C
  H55      1.0000 0.64180  0.95590  0.76580  Biso   1.000  H
  C67      1.0000 0.81070  0.92570  0.76240  Biso   1.000  C
  H56      1.0000 0.83130  0.86030  0.78600  Biso   1.000  H
  C68      1.0000 0.89020  0.96830  0.73930  Biso   1.000  C
  C69      1.0000 0.84990  0.06610  0.70160  Biso   1.000  C
  H57      1.0000 0.89920  0.09920  0.68430  Biso   1.000  H
  C70      1.0000 0.74210  0.10950  0.69140  Biso   1.000  C
  H58      1.0000 0.71760  0.17110  0.66490  Biso   1.000  H
  C71      1.0000 0.18900  0.91570  0.74470  Biso   1.000  C
  H59      1.0000 0.23950  0.94960  0.73060  Biso   1.000  H
  C72      1.0000 0.07990  0.96480  0.73630  Biso   1.000  C
  H60      1.0000 0.05500  0.03560  0.71940  Biso   1.000  H
  C73      1.0000 0.00690  0.91720  0.75100  Biso   1.000  C
  C74      1.0000 0.04730  0.81380  0.77580  Biso   1.000  C
  H61      1.0000 0.99890  0.77530  0.78510  Biso   1.000  H
  C75      1.0000 0.15640  0.76700  0.78700  Biso   1.000  C
  H62      1.0000 0.18260  0.69670  0.80480  Biso   1.000  H
  C76      1.0000 0.56560  0.34680  0.09290  Biso   1.000  C
  H63      1.0000 0.62110  0.36320  0.10940  Biso   1.000  H
  C77      1.0000 0.57030  0.33610  0.03780  Biso   1.000  C
  H64      1.0000 0.63000  0.34650  0.01600  Biso   1.000  H
  C78      1.0000 0.49180  0.31040  0.01030  Biso   1.000  C
  C79      1.0000 0.40440  0.30120  0.04470  Biso   1.000  C
  H65      1.0000 0.34650  0.28660  0.02940  Biso   1.000  H
  C80      1.0000 0.40160  0.31350  0.10230  Biso   1.000  C
  H66      1.0000 0.34210  0.30700  0.12570  Biso   1.000  H
  C81      1.0000 0.46370  0.20260  0.88010  Biso   1.000  C
  H67      1.0000 0.42290  0.16470  0.86760  Biso   1.000  H
  C82      1.0000 0.44650  0.23170  0.93230  Biso   1.000  C
  H68      1.0000 0.39480  0.21180  0.95680  Biso   1.000  H
  C83      1.0000 0.50250  0.29000  0.95070  Biso   1.000  C
  C84      1.0000 0.57680  0.31860  0.91300  Biso   1.000  C
  H69      1.0000 0.61940  0.35590  0.92440  Biso   1.000  H
  C85      1.0000 0.58740  0.29360  0.86200  Biso   1.000  C
  H70      1.0000 0.62990  0.32150  0.83480  Biso   1.000  H
  C86      1.0000 0.48610  0.08330  0.37630  Biso   1.000  C
  H71      1.0000 0.45020  0.04570  0.35950  Biso   1.000  H
  C87      1.0000 0.46190  0.10320  0.43090  Biso   1.000  C
  H72      1.0000 0.40580  0.08210  0.45060  Biso   1.000  H
  C88      1.0000 0.51580  0.15250  0.45840  Biso   1.000  C
  C89      1.0000 0.60080  0.17340  0.42610  Biso   1.000  C
  H73      1.0000 0.64760  0.19990  0.44330  Biso   1.000  H
  C90      1.0000 0.61910  0.15750  0.37130  Biso   1.000  C
  H74      1.0000 0.67560  0.17590  0.35020  Biso   1.000  H
  C91      1.0000 0.51570  0.25430  0.59360  Biso   1.000  C
  H75      1.0000 0.55770  0.28350  0.61250  Biso   1.000  H
  C92      1.0000 0.54840  0.22440  0.54230  Biso   1.000  C
  H76      1.0000 0.61230  0.23420  0.52480  Biso   1.000  H
  C93      1.0000 0.48730  0.17840  0.51470  Biso   1.000  C
  C94      1.0000 0.39150  0.17230  0.54180  Biso   1.000  C
  H77      1.0000 0.34460  0.14670  0.52410  Biso   1.000  H
  C95      1.0000 0.36470  0.20330  0.59420  Biso   1.000  C
  H78      1.0000 0.30140  0.19550  0.61340  Biso   1.000  H
  N12      1.0000 0.27360  0.39530  0.76200  Biso   1.000  N
  N13      1.0000 0.72160  0.70360  0.73330  Biso   1.000  N
  N14      1.0000 0.66970  0.07130  0.71600  Biso   1.000  N
  N15      1.0000 0.22480  0.81740  0.77370  Biso   1.000  N
  N16      1.0000 0.48280  0.33410  0.12350  Biso   1.000  N
  N17      1.0000 0.53840  0.22780  0.84690  Biso   1.000  N
  N18      1.0000 0.55930  0.11690  0.34760  Biso   1.000  N
  N19      1.0000 0.42550  0.24320  0.61750  Biso   1.000  N
  O19      1.0000 0.62510  0.77070  0.73330  Biso   1.000  O
  O20      1.0000 0.52210  0.11250  0.18040  Biso   1.000  O
  O21      1.0000 0.37620  0.11950  0.76820  Biso   1.000  O
  H79      1.0000 0.33370  0.14410  0.79480  Biso   1.000  H
  H80      1.0000 0.33750  0.11550  0.74190  Biso   1.000  H
  N20      1.0000 0.47700  0.08000  0.13450  Biso   1.000  N
  C96      1.0000 0.39080  0.07000  0.10980  Biso   1.000  C
  H81      1.0000 0.32410  0.08360  0.13060  Biso   1.000  H
  C97      1.0000 0.39240  0.04220  0.05810  Biso   1.000  C
  H82      1.0000 0.32950  0.03820  0.04170  Biso   1.000  H
  C98      1.0000 0.49060  0.02050  0.03120  Biso   1.000  C
  C99      1.0000 0.58070  0.03000  0.05140  Biso   1.000  C
  H83      1.0000 0.64440  0.02620  0.02900  Biso   1.000  H
  C100     1.0000 0.57300  0.04530  0.10620  Biso   1.000  C
  H84      1.0000 0.63870  0.03080  0.12610  Biso   1.000  H
  O22      1.0000 0.26100  0.64500  0.23960  Biso   1.000  O
  N21      1.0000 0.63180  0.03810  0.18730  Biso   1.000  N
  C101     1.0000 0.64190  0.95690  0.22880  Biso   1.000  C
  H85      1.0000 0.58320  0.94930  0.25260  Biso   1.000  H
  C102     1.0000 0.74490  0.88780  0.23280  Biso   1.000  C
  H86      1.0000 0.75710  0.82890  0.26110  Biso   1.000  H
  C103     1.0000 0.83260  0.89360  0.20060  Biso   1.000  C
  C104     1.0000 0.80600  0.97420  0.15770  Biso   1.000  C
  H87      1.0000 0.86220  0.97740  0.13110  Biso   1.000  H
  C105     1.0000 0.70860  0.05010  0.14900  Biso   1.000  C
  H88      1.0000 0.69520  0.10630  0.11890  Biso   1.000  H
  N22      1.0000 0.15640  0.70700  0.22930  Biso   1.000  N
  C106     1.0000 0.12760  0.75600  0.17620  Biso   1.000  C
  H89      1.0000 0.17980  0.75250  0.14640  Biso   1.000  H
  C107     1.0000 0.02020  0.80900  0.16830  Biso   1.000  C
  H90      1.0000 0.99520  0.83380  0.13060  Biso   1.000  H
  C108     1.0000 0.94620  0.82900  0.21080  Biso   1.000  C
  C109     1.0000 0.97930  0.76600  0.26070  Biso   1.000  C
  H91      1.0000 0.92530  0.76280  0.28870  Biso   1.000  H
  C110     1.0000 0.08500  0.70800  0.27280  Biso   1.000  C
  H92      1.0000 0.10720  0.67180  0.30930  Biso   1.000  H
