data_image0
_cell_length_a       25.502
_cell_length_b       25.502
_cell_length_c       50.469
_cell_angle_alpha    90
_cell_angle_beta     90
_cell_angle_gamma    90

_symmetry_space_group_name_H-M    "P 1"
_symmetry_int_tables_number       1

loop_
  _symmetry_equiv_pos_as_xyz
  'x, y, z'

loop_
  _atom_site_label
  _atom_site_occupancy
  _atom_site_fract_x
  _atom_site_fract_y
  _atom_site_fract_z
  _atom_site_thermal_displace_type
  _atom_site_B_iso_or_equiv
  _atom_site_type_symbol
  O1       1.0000 0.04370  0.03910  0.12815  Biso   1.000  O
  Zn1      1.0000 0.00534  0.99588  0.10254  Biso   1.000  Zn
  Zn2      1.0000 0.09023  0.50034  0.08396  Biso   1.000  Zn
  Zn3      1.0000 0.58904  0.92384  0.11431  Biso   1.000  Zn
  Zn4      1.0000 0.99774  0.57689  0.09562  Biso   1.000  Zn
  Zn5      1.0000 0.07732  0.99186  0.15241  Biso   1.000  Zn
  Zn6      1.0000 0.09810  0.07209  0.10779  Biso   1.000  Zn
  Zn7      1.0000 0.00916  0.48154  0.13226  Biso   1.000  Zn
  Zn8      1.0000 0.99316  0.08850  0.14271  Biso   1.000  Zn
  O2       1.0000 0.92710  0.13330  0.14660  Biso   1.000  O
  C1       1.0000 0.92150  0.17260  0.16130  Biso   1.000  C
  H1       1.0000 0.95150  0.18990  0.16810  Biso   1.000  H
  N1       1.0000 0.87320  0.19040  0.16740  Biso   1.000  N
  C2       1.0000 0.82860  0.16810  0.15450  Biso   1.000  C
  H2       1.0000 0.79710  0.18760  0.15960  Biso   1.000  H
  H3       1.0000 0.82480  0.13140  0.15980  Biso   1.000  H
  H4       1.0000 0.83330  0.17000  0.13530  Biso   1.000  H
  C3       1.0000 0.86010  0.23180  0.18370  Biso   1.000  C
  H5       1.0000 0.82220  0.23790  0.18280  Biso   1.000  H
  H6       1.0000 0.87870  0.26340  0.17790  Biso   1.000  H
  H7       1.0000 0.87010  0.22340  0.20200  Biso   1.000  H
  C4       1.0000 0.05240  0.39620  0.09920  Biso   1.000  C
  O3       1.0000 0.01660  0.41630  0.11380  Biso   1.000  O
  O4       1.0000 0.08130  0.42170  0.08408  Biso   1.000  O
  C5       1.0000 0.06480  0.17290  0.11760  Biso   1.000  C
  O5       1.0000 0.03230  0.15450  0.13240  Biso   1.000  O
  O6       1.0000 0.10030  0.14680  0.10700  Biso   1.000  O
  C6       1.0000 0.05790  0.33830  0.10170  Biso   1.000  C
  C7       1.0000 0.01290  0.30860  0.10630  Biso   1.000  C
  H8       1.0000 0.97950  0.32490  0.10540  Biso   1.000  H
  C8       1.0000 0.01610  0.25620  0.11210  Biso   1.000  C
  H9       1.0000 0.98520  0.23730  0.11640  Biso   1.000  H
  C9       1.0000 0.06450  0.23020  0.11160  Biso   1.000  C
  C10      1.0000 0.11040  0.25850  0.10660  Biso   1.000  C
  C11      1.0000 0.10580  0.31220  0.09990  Biso   1.000  C
  C12      1.0000 0.16700  0.23940  0.10759  Biso   1.000  C
  H10      1.0000 0.16970  0.20130  0.11200  Biso   1.000  H
  C13      1.0000 0.15910  0.33780  0.09576  Biso   1.000  C
  H11      1.0000 0.15640  0.37580  0.09100  Biso   1.000  H
  C14      1.0000 0.19550  0.27460  0.12790  Biso   1.000  C
  C15      1.0000 0.19130  0.32870  0.12060  Biso   1.000  C
  C16      1.0000 0.21640  0.36830  0.13510  Biso   1.000  C
  H12      1.0000 0.21490  0.40430  0.13030  Biso   1.000  H
  C17      1.0000 0.24460  0.34900  0.15780  Biso   1.000  C
  H13      1.0000 0.26370  0.37340  0.16820  Biso   1.000  H
  C18      1.0000 0.24540  0.30040  0.16460  Biso   1.000  C
  H14      1.0000 0.26320  0.29060  0.18040  Biso   1.000  H
  C19      1.0000 0.22070  0.26170  0.14950  Biso   1.000  C
  H15      1.0000 0.22230  0.22600  0.15480  Biso   1.000  H
  C20      1.0000 0.18980  0.25210  0.08080  Biso   1.000  C
  C21      1.0000 0.18460  0.30600  0.07450  Biso   1.000  C
  C22      1.0000 0.20280  0.32330  0.04990  Biso   1.000  C
  H16      1.0000 0.19940  0.35900  0.04480  Biso   1.000  H
  C23      1.0000 0.22670  0.28600  0.03260  Biso   1.000  C
  H17      1.0000 0.23930  0.29680  0.01580  Biso   1.000  H
  C24      1.0000 0.23130  0.23560  0.04010  Biso   1.000  C
  H18      1.0000 0.24660  0.21110  0.02820  Biso   1.000  H
  C25      1.0000 0.21450  0.21880  0.06430  Biso   1.000  C
  H19      1.0000 0.22020  0.18350  0.06950  Biso   1.000  H
  C26      1.0000 0.68300  0.97560  0.12920  Biso   1.000  C
  O7       1.0000 0.66050  0.00310  0.14680  Biso   1.000  O
  O8       1.0000 0.66420  0.93650  0.11713  Biso   1.000  O
  C27      1.0000 0.90550  0.01400  0.11800  Biso   1.000  C
  O9       1.0000 0.92780  0.03890  0.13370  Biso   1.000  O
  O10      1.0000 0.92950  0.98690  0.10080  Biso   1.000  O
  C28      1.0000 0.73920  0.98770  0.12446  Biso   1.000  C
  C29      1.0000 0.77100  0.00270  0.14560  Biso   1.000  C
  H20      1.0000 0.75520  0.00670  0.16250  Biso   1.000  H
  C30      1.0000 0.82200  0.01180  0.14340  Biso   1.000  C
  H21      1.0000 0.84180  0.02060  0.15870  Biso   1.000  H
  C31      1.0000 0.84700  0.00860  0.11850  Biso   1.000  C
  C32      1.0000 0.81620  0.99600  0.09640  Biso   1.000  C
  C33      1.0000 0.76250  0.98380  0.09986  Biso   1.000  C
  C34      1.0000 0.83400  0.99190  0.06742  Biso   1.000  C
  H22      1.0000 0.87240  0.99840  0.06510  Biso   1.000  H
  C35      1.0000 0.73540  0.97390  0.07295  Biso   1.000  C
  H23      1.0000 0.69710  0.96680  0.07510  Biso   1.000  H
  C36      1.0000 0.79910  0.03180  0.05190  Biso   1.000  C
  C37      1.0000 0.74500  0.01970  0.05520  Biso   1.000  C
  C38      1.0000 0.70580  0.05090  0.04350  Biso   1.000  C
  H24      1.0000 0.66940  0.04540  0.04640  Biso   1.000  H
  C39      1.0000 0.72540  0.09130  0.02670  Biso   1.000  C
  H25      1.0000 0.70080  0.11340  0.01810  Biso   1.000  H
  C40      1.0000 0.77490  0.09970  0.02250  Biso   1.000  C
  H26      1.0000 0.78550  0.12630  0.01050  Biso   1.000  H
  C41      1.0000 0.81250  0.06960  0.03570  Biso   1.000  C
  H27      1.0000 0.84860  0.07680  0.03290  Biso   1.000  H
  C42      1.0000 0.81770  0.93810  0.05844  Biso   1.000  C
  C43      1.0000 0.76330  0.92850  0.06120  Biso   1.000  C
  C44      1.0000 0.74330  0.87950  0.05410  Biso   1.000  C
  H28      1.0000 0.70790  0.87050  0.05780  Biso   1.000  H
  C45      1.0000 0.77820  0.84230  0.04080  Biso   1.000  C
  H29      1.0000 0.76560  0.80980  0.03430  Biso   1.000  H
  C46      1.0000 0.82790  0.85570  0.03810  Biso   1.000  C
  H30      1.0000 0.85070  0.83150  0.02970  Biso   1.000  H
  C47      1.0000 0.84910  0.90280  0.04690  Biso   1.000  C
  H31      1.0000 0.88540  0.90980  0.04470  Biso   1.000  H
  C48      1.0000 0.00280  0.54110  0.04489  Biso   1.000  C
  O11      1.0000 0.98380  0.57960  0.05738  Biso   1.000  O
  O12      1.0000 0.02330  0.50520  0.05710  Biso   1.000  O
  C49      1.0000 0.96900  0.54450  0.93211  Biso   1.000  C
  O13      1.0000 0.94240  0.58040  0.92374  Biso   1.000  O
  O14      1.0000 0.99520  0.51340  0.91880  Biso   1.000  O
  C50      1.0000 0.99280  0.53670  0.01597  Biso   1.000  C
  C51      1.0000 0.97480  0.58290  0.00311  Biso   1.000  C
  H32      1.0000 0.96650  0.61320  0.01320  Biso   1.000  H
  C52      1.0000 0.96970  0.58330  0.97674  Biso   1.000  C
  H33      1.0000 0.96330  0.61580  0.96810  Biso   1.000  H
  C53      1.0000 0.97320  0.53870  0.96162  Biso   1.000  C
  C54      1.0000 0.99010  0.49210  0.97357  Biso   1.000  C
  C55      1.0000 0.99930  0.49180  0.00119  Biso   1.000  C
  C56      1.0000 0.99760  0.43800  0.96110  Biso   1.000  C
  H34      1.0000 0.99080  0.43800  0.94160  Biso   1.000  H
  C57      1.0000 0.01560  0.43720  0.01060  Biso   1.000  C
  H35      1.0000 0.02220  0.43670  0.03010  Biso   1.000  H
  C58      1.0000 0.96160  0.39970  0.97640  Biso   1.000  C
  C59      1.0000 0.97300  0.39950  0.00310  Biso   1.000  C
  C60      1.0000 0.94920  0.36340  0.02020  Biso   1.000  C
  H36      1.0000 0.95700  0.36080  0.03860  Biso   1.000  H
  C61      1.0000 0.91180  0.33080  0.00690  Biso   1.000  C
  H37      1.0000 0.89780  0.30230  0.01670  Biso   1.000  H
  C62      1.0000 0.89540  0.33650  0.98300  Biso   1.000  C
  H38      1.0000 0.86350  0.32190  0.97670  Biso   1.000  H
  C63      1.0000 0.92800  0.36530  0.96770  Biso   1.000  C
  H39      1.0000 0.92620  0.36000  0.94910  Biso   1.000  H
  C64      1.0000 0.05260  0.42340  0.96780  Biso   1.000  C
  C65      1.0000 0.06230  0.42200  0.99570  Biso   1.000  C
  C66      1.0000 0.11110  0.40740  0.00480  Biso   1.000  C
  H40      1.0000 0.11830  0.40460  0.02320  Biso   1.000  H
  C67      1.0000 0.15010  0.39670  0.98560  Biso   1.000  C
  H41      1.0000 0.18560  0.39330  0.99100  Biso   1.000  H
  C68      1.0000 0.13800  0.39120  0.95980  Biso   1.000  C
  H42      1.0000 0.16270  0.37630  0.94790  Biso   1.000  H
  C69      1.0000 0.08970  0.40720  0.95080  Biso   1.000  C
  H43      1.0000 0.08250  0.40670  0.93230  Biso   1.000  H
  C70      1.0000 0.03410  0.67120  0.12160  Biso   1.000  C
  O15      1.0000 0.06960  0.64910  0.13500  Biso   1.000  O
  O16      1.0000 0.00260  0.64930  0.10600  Biso   1.000  O
  C71      1.0000 0.04250  0.89810  0.12580  Biso   1.000  C
  O17      1.0000 0.05950  0.91740  0.14622  Biso   1.000  O
  O18      1.0000 0.03410  0.92280  0.10462  Biso   1.000  O
  C72      1.0000 0.03000  0.73000  0.12280  Biso   1.000  C
  C73      1.0000 0.06790  0.75650  0.13810  Biso   1.000  C
  H44      1.0000 0.09230  0.73590  0.14780  Biso   1.000  H
  C74      1.0000 0.07160  0.80870  0.13980  Biso   1.000  C
  H45      1.0000 0.09750  0.82470  0.15070  Biso   1.000  H
  C75      1.0000 0.03570  0.83940  0.12500  Biso   1.000  C
  C76      1.0000 0.99690  0.81620  0.10950  Biso   1.000  C
  C77      1.0000 0.99410  0.76030  0.10950  Biso   1.000  C
  C78      1.0000 0.95670  0.84240  0.09170  Biso   1.000  C
  H46      1.0000 0.96190  0.88120  0.09040  Biso   1.000  H
  C79      1.0000 0.94570  0.74320  0.09410  Biso   1.000  C
  H47      1.0000 0.94090  0.70430  0.09500  Biso   1.000  H
  C80      1.0000 0.90170  0.82730  0.10310  Biso   1.000  C
  C81      1.0000 0.89870  0.77140  0.10510  Biso   1.000  C
  C82      1.0000 0.85440  0.74820  0.11600  Biso   1.000  C
  H48      1.0000 0.84960  0.71130  0.11700  Biso   1.000  H
  C83      1.0000 0.81720  0.78480  0.12550  Biso   1.000  C
  H49      1.0000 0.78940  0.77130  0.13610  Biso   1.000  H
  C84      1.0000 0.81720  0.83510  0.12130  Biso   1.000  C
  H50      1.0000 0.78710  0.85590  0.12480  Biso   1.000  H
  C85      1.0000 0.86340  0.85760  0.11120  Biso   1.000  C
  H51      1.0000 0.86680  0.89460  0.11020  Biso   1.000  H
  C86      1.0000 0.96240  0.81560  0.06540  Biso   1.000  C
  C87      1.0000 0.95260  0.76090  0.06640  Biso   1.000  C
  C88      1.0000 0.95680  0.73380  0.04280  Biso   1.000  C
  H52      1.0000 0.95290  0.69680  0.04260  Biso   1.000  H
  C89      1.0000 0.96690  0.76160  0.01890  Biso   1.000  C
  H53      1.0000 0.96460  0.74390  0.00240  Biso   1.000  H
  C90      1.0000 0.97960  0.81250  0.01950  Biso   1.000  C
  H54      1.0000 0.99460  0.82880  0.00440  Biso   1.000  H
  C91      1.0000 0.97100  0.84080  0.04190  Biso   1.000  C
  H55      1.0000 0.97110  0.87800  0.04120  Biso   1.000  H
  C92      1.0000 0.40720  0.98340  0.13170  Biso   1.000  C
  O19      1.0000 0.43250  0.01820  0.11946  Biso   1.000  O
  O20      1.0000 0.42610  0.94440  0.14309  Biso   1.000  O
  C93      1.0000 0.18280  0.01520  0.13210  Biso   1.000  C
  O21      1.0000 0.16810  0.04950  0.11671  Biso   1.000  O
  O22      1.0000 0.15270  0.98830  0.14640  Biso   1.000  O
  C94      1.0000 0.34910  0.98980  0.13290  Biso   1.000  C
  C95      1.0000 0.32330  0.01170  0.11100  Biso   1.000  C
  H56      1.0000 0.34310  0.02210  0.09600  Biso   1.000  H
  C96      1.0000 0.27130  0.01820  0.11100  Biso   1.000  C
  H57      1.0000 0.25460  0.03170  0.09560  Biso   1.000  H
  C97      1.0000 0.24110  0.00540  0.13320  Biso   1.000  C
  C98      1.0000 0.26420  0.98250  0.15545  Biso   1.000  C
  C99      1.0000 0.31960  0.97410  0.15460  Biso   1.000  C
  C100     1.0000 0.23930  0.96310  0.18050  Biso   1.000  C
  H58      1.0000 0.20030  0.96660  0.18040  Biso   1.000  H
  C101     1.0000 0.33900  0.95220  0.18060  Biso   1.000  C
  H59      1.0000 0.37790  0.94770  0.18050  Biso   1.000  H
  C102     1.0000 0.26530  0.99400  0.20370  Biso   1.000  C
  C103     1.0000 0.32170  0.98900  0.20220  Biso   1.000  C
  C104     1.0000 0.35300  0.01550  0.22050  Biso   1.000  C
  H60      1.0000 0.39020  0.01380  0.21990  Biso   1.000  H
  C105     1.0000 0.32600  0.04520  0.24000  Biso   1.000  C
  H61      1.0000 0.34590  0.06060  0.25390  Biso   1.000  H
  C106     1.0000 0.27570  0.05240  0.23990  Biso   1.000  C
  H62      1.0000 0.25970  0.07500  0.25250  Biso   1.000  H
  C107     1.0000 0.24500  0.02600  0.22070  Biso   1.000  C
  H63      1.0000 0.20830  0.03200  0.22030  Biso   1.000  H
  C108     1.0000 0.25710  0.90700  0.18360  Biso   1.000  C
  C109     1.0000 0.31200  0.90160  0.18450  Biso   1.000  C
  C110     1.0000 0.33240  0.85240  0.18640  Biso   1.000  C
  H64      1.0000 0.36940  0.84810  0.18680  Biso   1.000  H
  C111     1.0000 0.29900  0.80650  0.18810  Biso   1.000  C
  H65      1.0000 0.31330  0.77220  0.18860  Biso   1.000  H
  C112     1.0000 0.24660  0.81450  0.18890  Biso   1.000  C
  H66      1.0000 0.22360  0.78530  0.19020  Biso   1.000  H
  C113     1.0000 0.22630  0.86460  0.18800  Biso   1.000  C
  H67      1.0000 0.18970  0.86950  0.19040  Biso   1.000  H
  C114     1.0000 0.05730  0.03950  0.05670  Biso   1.000  C
  O23      1.0000 0.01810  0.01240  0.06578  Biso   1.000  O
  O24      1.0000 0.09260  0.05650  0.06963  Biso   1.000  O
  C115     1.0000 0.05190  0.04940  0.02840  Biso   1.000  C
  C116     1.0000 0.02000  0.01530  0.01310  Biso   1.000  C
  H68      1.0000 0.00120  0.98820  0.02180  Biso   1.000  H
  C117     1.0000 0.08560  0.08270  0.01340  Biso   1.000  C
  C118     1.0000 0.12500  0.12170  0.02550  Biso   1.000  C
  H69      1.0000 0.12620  0.12020  0.04530  Biso   1.000  H
  C119     1.0000 0.17840  0.10780  0.01231  Biso   1.000  C
  C120     1.0000 0.22180  0.09100  0.02660  Biso   1.000  C
  H70      1.0000 0.22160  0.08870  0.04530  Biso   1.000  H
  C121     1.0000 0.10610  0.17690  0.01460  Biso   1.000  C
  C122     1.0000 0.09610  0.21900  0.02970  Biso   1.000  C
  H71      1.0000 0.09780  0.21760  0.04850  Biso   1.000  H
  C123     1.0000 0.26520  0.07800  0.01170  Biso   1.000  C
  H72      1.0000 0.29560  0.06530  0.02050  Biso   1.000  H
  C124     1.0000 0.08270  0.26630  0.01580  Biso   1.000  C
  H73      1.0000 0.07720  0.29800  0.02520  Biso   1.000  H
  O25      1.0000 0.04840  0.53230  0.11246  Biso   1.000  O
  O26      1.0000 0.06180  0.00830  0.18670  Biso   1.000  O
  C125     1.0000 0.01180  0.02960  0.22270  Biso   1.000  C
  C126     1.0000 0.02080  0.03660  0.19400  Biso   1.000  C
  O27      1.0000 0.99970  0.07050  0.18190  Biso   1.000  O
  C127     1.0000 0.00900  0.96700  0.23590  Biso   1.000  C
  C128     1.0000 0.93770  0.10100  0.22900  Biso   1.000  C
  H74      1.0000 0.94290  0.11490  0.21060  Biso   1.000  H
  C129     1.0000 0.89150  0.06130  0.22990  Biso   1.000  C
  C130     1.0000 0.84960  0.07400  0.21390  Biso   1.000  C
  H75      1.0000 0.85340  0.08840  0.19670  Biso   1.000  H
  C131     1.0000 0.80110  0.06200  0.22510  Biso   1.000  C
  C132     1.0000 0.95300  0.03890  0.23410  Biso   1.000  C
  C133     1.0000 0.96000  0.17830  0.23450  Biso   1.000  C
  H76      1.0000 0.96800  0.17840  0.21620  Biso   1.000  H
  C134     1.0000 0.96400  0.22430  0.24900  Biso   1.000  C
  C135     1.0000 0.94300  0.13270  0.24610  Biso   1.000  C
  C136     1.0000 0.92310  0.08920  0.22590  Biso   1.000  C
  C137     1.0000 0.98580  0.06840  0.23800  Biso   1.000  C
  H77      1.0000 0.92830  0.09900  0.20690  Biso   1.000  H
  O28      1.0000 0.95200  0.14910  0.16180  Biso   1.000  O
  C138     1.0000 0.90640  0.15720  0.15400  Biso   1.000  C
  H78      1.0000 0.89270  0.13380  0.14110  Biso   1.000  H
  N2       1.0000 0.87520  0.19560  0.16210  Biso   1.000  N
  C139     1.0000 0.89900  0.23400  0.17990  Biso   1.000  C
  H79      1.0000 0.93580  0.22400  0.18310  Biso   1.000  H
  H80      1.0000 0.88010  0.23440  0.19670  Biso   1.000  H
  H81      1.0000 0.89790  0.26870  0.17170  Biso   1.000  H
  C140     1.0000 0.82700  0.21130  0.15380  Biso   1.000  C
  H82      1.0000 0.81800  0.24470  0.16230  Biso   1.000  H
  H83      1.0000 0.80100  0.18470  0.15870  Biso   1.000  H
  H84      1.0000 0.82730  0.21580  0.13450  Biso   1.000  H
  O29      1.0000 0.10990  0.51920  0.04830  Biso   1.000  O
  C141     1.0000 0.15670  0.52700  0.04370  Biso   1.000  C
  H85      1.0000 0.18080  0.52300  0.05790  Biso   1.000  H
  N3       1.0000 0.17600  0.54070  0.01980  Biso   1.000  N
  C142     1.0000 0.13950  0.54990  0.99830  Biso   1.000  C
  H86      1.0000 0.15750  0.56840  0.98390  Biso   1.000  H
  H87      1.0000 0.11020  0.57140  0.00470  Biso   1.000  H
  H88      1.0000 0.12610  0.51630  0.99180  Biso   1.000  H
  C143     1.0000 0.22680  0.54540  0.01280  Biso   1.000  C
  H89      1.0000 0.22930  0.55150  0.99370  Biso   1.000  H
  H90      1.0000 0.24550  0.51310  0.01740  Biso   1.000  H
  H91      1.0000 0.24240  0.57500  0.02240  Biso   1.000  H
  O30      1.0000 0.14870  0.50610  0.05740  Biso   1.000  O
  C144     1.0000 0.14520  0.50700  0.03290  Biso   1.000  C
  H92      1.0000 0.13340  0.47560  0.02480  Biso   1.000  H
  N4       1.0000 0.15570  0.54700  0.01620  Biso   1.000  N
  C145     1.0000 0.14900  0.53800  0.98810  Biso   1.000  C
  H93      1.0000 0.15260  0.57100  0.97850  Biso   1.000  H
  H94      1.0000 0.11360  0.52350  0.98490  Biso   1.000  H
  H95      1.0000 0.17520  0.51280  0.98180  Biso   1.000  H
  C146     1.0000 0.16900  0.59700  0.02190  Biso   1.000  C
  H96      1.0000 0.17360  0.61670  0.00540  Biso   1.000  H
  H97      1.0000 0.20180  0.59750  0.03200  Biso   1.000  H
  H98      1.0000 0.14110  0.61330  0.03240  Biso   1.000  H
  C147     1.0000 0.01040  0.02160  0.19410  Biso   1.000  C
  O31      1.0000 0.05050  0.99130  0.18780  Biso   1.000  O
  O32      1.0000 0.98460  0.04790  0.17940  Biso   1.000  O
  H99      1.0000 0.00630  0.93140  0.23070  Biso   1.000  H
  C148     1.0000 0.99400  0.01150  0.22170  Biso   1.000  C
  C149     1.0000 0.04720  0.00470  0.23910  Biso   1.000  C
  C150     1.0000 0.86540  0.07000  0.23230  Biso   1.000  C
  H100     1.0000 0.78130  0.08710  0.21540  Biso   1.000  H
  C151     1.0000 0.82740  0.06600  0.21450  Biso   1.000  C
  H101     1.0000 0.83280  0.07630  0.19660  Biso   1.000  H
  C152     1.0000 0.93950  0.14740  0.25040  Biso   1.000  C
  C153     1.0000 0.94350  0.19680  0.24200  Biso   1.000  C
  C154     1.0000 0.95700  0.23820  0.26100  Biso   1.000  C
  H102     1.0000 0.97510  0.25590  0.24060  Biso   1.000  H
  C155     1.0000 0.77640  0.04700  0.22370  Biso   1.000  C
  H103     1.0000 0.72750  0.02860  0.23760  Biso   1.000  H
  H104     1.0000 0.93760  0.20520  0.22390  Biso   1.000  H
  H105     1.0000 0.74700  0.04170  0.21240  Biso   1.000  H
  O33      1.0000 0.95630  0.96090  0.62815  Biso   1.000  O
  Zn9      1.0000 0.99466  0.00412  0.60254  Biso   1.000  Zn
  Zn10     1.0000 0.90977  0.49966  0.58396  Biso   1.000  Zn
  Zn11     1.0000 0.41096  0.07616  0.61431  Biso   1.000  Zn
  Zn12     1.0000 0.00226  0.42311  0.59562  Biso   1.000  Zn
  Zn13     1.0000 0.92268  0.00814  0.65241  Biso   1.000  Zn
  Zn14     1.0000 0.90190  0.92791  0.60779  Biso   1.000  Zn
  Zn15     1.0000 0.99084  0.51846  0.63226  Biso   1.000  Zn
  Zn16     1.0000 0.00684  0.91150  0.64271  Biso   1.000  Zn
  O34      1.0000 0.07290  0.86670  0.64660  Biso   1.000  O
  C156     1.0000 0.07850  0.82740  0.66130  Biso   1.000  C
  H106     1.0000 0.04850  0.81010  0.66810  Biso   1.000  H
  N5       1.0000 0.12680  0.80960  0.66740  Biso   1.000  N
  C157     1.0000 0.17140  0.83190  0.65450  Biso   1.000  C
  H107     1.0000 0.20290  0.81240  0.65960  Biso   1.000  H
  H108     1.0000 0.17520  0.86860  0.65980  Biso   1.000  H
  H109     1.0000 0.16670  0.83000  0.63530  Biso   1.000  H
  C158     1.0000 0.13990  0.76820  0.68370  Biso   1.000  C
  H110     1.0000 0.17780  0.76210  0.68280  Biso   1.000  H
  H111     1.0000 0.12130  0.73660  0.67790  Biso   1.000  H
  H112     1.0000 0.12990  0.77660  0.70200  Biso   1.000  H
  C159     1.0000 0.94760  0.60380  0.59920  Biso   1.000  C
  O35      1.0000 0.98340  0.58370  0.61380  Biso   1.000  O
  O36      1.0000 0.91870  0.57830  0.58408  Biso   1.000  O
  C160     1.0000 0.93520  0.82710  0.61760  Biso   1.000  C
  O37      1.0000 0.96770  0.84550  0.63240  Biso   1.000  O
  O38      1.0000 0.89970  0.85320  0.60700  Biso   1.000  O
  C161     1.0000 0.94210  0.66170  0.60170  Biso   1.000  C
  C162     1.0000 0.98710  0.69140  0.60630  Biso   1.000  C
  H113     1.0000 0.02050  0.67510  0.60540  Biso   1.000  H
  C163     1.0000 0.98390  0.74380  0.61210  Biso   1.000  C
  H114     1.0000 0.01480  0.76270  0.61640  Biso   1.000  H
  C164     1.0000 0.93550  0.76980  0.61160  Biso   1.000  C
  C165     1.0000 0.88960  0.74150  0.60660  Biso   1.000  C
  C166     1.0000 0.89420  0.68780  0.59990  Biso   1.000  C
  C167     1.0000 0.83300  0.76060  0.60759  Biso   1.000  C
  H115     1.0000 0.83030  0.79870  0.61200  Biso   1.000  H
  C168     1.0000 0.84090  0.66220  0.59576  Biso   1.000  C
  H116     1.0000 0.84360  0.62420  0.59100  Biso   1.000  H
  C169     1.0000 0.80450  0.72540  0.62790  Biso   1.000  C
  C170     1.0000 0.80870  0.67130  0.62060  Biso   1.000  C
  C171     1.0000 0.78360  0.63170  0.63510  Biso   1.000  C
  H117     1.0000 0.78510  0.59570  0.63030  Biso   1.000  H
  C172     1.0000 0.75540  0.65100  0.65780  Biso   1.000  C
  H118     1.0000 0.73630  0.62660  0.66820  Biso   1.000  H
  C173     1.0000 0.75460  0.69960  0.66460  Biso   1.000  C
  H119     1.0000 0.73680  0.70940  0.68040  Biso   1.000  H
  C174     1.0000 0.77930  0.73830  0.64950  Biso   1.000  C
  H120     1.0000 0.77770  0.77400  0.65480  Biso   1.000  H
  C175     1.0000 0.81020  0.74790  0.58080  Biso   1.000  C
  C176     1.0000 0.81540  0.69400  0.57450  Biso   1.000  C
  C177     1.0000 0.79720  0.67670  0.54990  Biso   1.000  C
  H121     1.0000 0.80060  0.64100  0.54480  Biso   1.000  H
  C178     1.0000 0.77330  0.71400  0.53260  Biso   1.000  C
  H122     1.0000 0.76070  0.70320  0.51580  Biso   1.000  H
  C179     1.0000 0.76870  0.76440  0.54010  Biso   1.000  C
  H123     1.0000 0.75340  0.78890  0.52820  Biso   1.000  H
  C180     1.0000 0.78550  0.78120  0.56430  Biso   1.000  C
  H124     1.0000 0.77980  0.81650  0.56950  Biso   1.000  H
  C181     1.0000 0.31700  0.02440  0.62920  Biso   1.000  C
  O39      1.0000 0.33950  0.99690  0.64680  Biso   1.000  O
  O40      1.0000 0.33580  0.06350  0.61713  Biso   1.000  O
  C182     1.0000 0.09450  0.98600  0.61800  Biso   1.000  C
  O41      1.0000 0.07220  0.96110  0.63370  Biso   1.000  O
  O42      1.0000 0.07050  0.01310  0.60080  Biso   1.000  O
  C183     1.0000 0.26080  0.01230  0.62446  Biso   1.000  C
  C184     1.0000 0.22900  0.99730  0.64560  Biso   1.000  C
  H125     1.0000 0.24480  0.99330  0.66250  Biso   1.000  H
  C185     1.0000 0.17800  0.98820  0.64340  Biso   1.000  C
  H126     1.0000 0.15820  0.97940  0.65870  Biso   1.000  H
  C186     1.0000 0.15300  0.99140  0.61850  Biso   1.000  C
  C187     1.0000 0.18380  0.00400  0.59640  Biso   1.000  C
  C188     1.0000 0.23750  0.01620  0.59986  Biso   1.000  C
  C189     1.0000 0.16600  0.00810  0.56742  Biso   1.000  C
  H127     1.0000 0.12760  0.00160  0.56510  Biso   1.000  H
  C190     1.0000 0.26460  0.02610  0.57295  Biso   1.000  C
  H128     1.0000 0.30290  0.03320  0.57510  Biso   1.000  H
  C191     1.0000 0.20090  0.96820  0.55190  Biso   1.000  C
  C192     1.0000 0.25500  0.98030  0.55520  Biso   1.000  C
  C193     1.0000 0.29420  0.94910  0.54350  Biso   1.000  C
  H129     1.0000 0.33060  0.95460  0.54640  Biso   1.000  H
  C194     1.0000 0.27460  0.90870  0.52670  Biso   1.000  C
  H130     1.0000 0.29920  0.88660  0.51810  Biso   1.000  H
  C195     1.0000 0.22510  0.90030  0.52250  Biso   1.000  C
  H131     1.0000 0.21450  0.87370  0.51050  Biso   1.000  H
  C196     1.0000 0.18750  0.93040  0.53570  Biso   1.000  C
  H132     1.0000 0.15140  0.92320  0.53290  Biso   1.000  H
  C197     1.0000 0.18230  0.06190  0.55844  Biso   1.000  C
  C198     1.0000 0.23670  0.07150  0.56120  Biso   1.000  C
  C199     1.0000 0.25670  0.12050  0.55410  Biso   1.000  C
  H133     1.0000 0.29210  0.12950  0.55780  Biso   1.000  H
  C200     1.0000 0.22180  0.15770  0.54080  Biso   1.000  C
  H134     1.0000 0.23440  0.19020  0.53430  Biso   1.000  H
  C201     1.0000 0.17210  0.14430  0.53810  Biso   1.000  C
  H135     1.0000 0.14930  0.16850  0.52970  Biso   1.000  H
  C202     1.0000 0.15090  0.09720  0.54690  Biso   1.000  C
  H136     1.0000 0.11460  0.09020  0.54470  Biso   1.000  H
  C203     1.0000 0.99720  0.45890  0.54489  Biso   1.000  C
  O43      1.0000 0.01620  0.42040  0.55738  Biso   1.000  O
  O44      1.0000 0.97670  0.49480  0.55710  Biso   1.000  O
  C204     1.0000 0.03100  0.45550  0.43211  Biso   1.000  C
  O45      1.0000 0.05760  0.41960  0.42374  Biso   1.000  O
  O46      1.0000 0.00480  0.48660  0.41880  Biso   1.000  O
  C205     1.0000 0.00720  0.46330  0.51597  Biso   1.000  C
  C206     1.0000 0.02520  0.41710  0.50311  Biso   1.000  C
  H137     1.0000 0.03350  0.38680  0.51320  Biso   1.000  H
  C207     1.0000 0.03030  0.41670  0.47674  Biso   1.000  C
  H138     1.0000 0.03670  0.38420  0.46810  Biso   1.000  H
  C208     1.0000 0.02680  0.46130  0.46162  Biso   1.000  C
  C209     1.0000 0.00990  0.50790  0.47357  Biso   1.000  C
  C210     1.0000 0.00070  0.50820  0.50119  Biso   1.000  C
  C211     1.0000 0.00240  0.56200  0.46110  Biso   1.000  C
  H139     1.0000 0.00920  0.56200  0.44160  Biso   1.000  H
  C212     1.0000 0.98440  0.56280  0.51060  Biso   1.000  C
  H140     1.0000 0.97780  0.56330  0.53010  Biso   1.000  H
  C213     1.0000 0.03840  0.60030  0.47640  Biso   1.000  C
  C214     1.0000 0.02700  0.60050  0.50310  Biso   1.000  C
  C215     1.0000 0.05080  0.63660  0.52020  Biso   1.000  C
  H141     1.0000 0.04300  0.63920  0.53860  Biso   1.000  H
  C216     1.0000 0.08820  0.66920  0.50690  Biso   1.000  C
  H142     1.0000 0.10220  0.69770  0.51670  Biso   1.000  H
  C217     1.0000 0.10460  0.66350  0.48300  Biso   1.000  C
  H143     1.0000 0.13650  0.67810  0.47670  Biso   1.000  H
  C218     1.0000 0.07200  0.63470  0.46770  Biso   1.000  C
  H144     1.0000 0.07380  0.64000  0.44910  Biso   1.000  H
  C219     1.0000 0.94740  0.57660  0.46780  Biso   1.000  C
  C220     1.0000 0.93770  0.57800  0.49570  Biso   1.000  C
  C221     1.0000 0.88890  0.59260  0.50480  Biso   1.000  C
  H145     1.0000 0.88170  0.59540  0.52320  Biso   1.000  H
  C222     1.0000 0.84990  0.60330  0.48560  Biso   1.000  C
  H146     1.0000 0.81440  0.60670  0.49100  Biso   1.000  H
  C223     1.0000 0.86200  0.60880  0.45980  Biso   1.000  C
  H147     1.0000 0.83730  0.62370  0.44790  Biso   1.000  H
  C224     1.0000 0.91030  0.59280  0.45080  Biso   1.000  C
  H148     1.0000 0.91750  0.59330  0.43230  Biso   1.000  H
  C225     1.0000 0.96590  0.32880  0.62160  Biso   1.000  C
  O47      1.0000 0.93040  0.35090  0.63500  Biso   1.000  O
  O48      1.0000 0.99740  0.35070  0.60600  Biso   1.000  O
  C226     1.0000 0.95750  0.10190  0.62580  Biso   1.000  C
  O49      1.0000 0.94050  0.08260  0.64622  Biso   1.000  O
  O50      1.0000 0.96590  0.07720  0.60462  Biso   1.000  O
  C227     1.0000 0.97000  0.27000  0.62280  Biso   1.000  C
  C228     1.0000 0.93210  0.24350  0.63810  Biso   1.000  C
  H149     1.0000 0.90770  0.26410  0.64780  Biso   1.000  H
  C229     1.0000 0.92840  0.19130  0.63980  Biso   1.000  C
  H150     1.0000 0.90250  0.17530  0.65070  Biso   1.000  H
  C230     1.0000 0.96430  0.16060  0.62500  Biso   1.000  C
  C231     1.0000 0.00310  0.18380  0.60950  Biso   1.000  C
  C232     1.0000 0.00590  0.23970  0.60950  Biso   1.000  C
  C233     1.0000 0.04330  0.15760  0.59170  Biso   1.000  C
  H151     1.0000 0.03810  0.11880  0.59040  Biso   1.000  H
  C234     1.0000 0.05430  0.25680  0.59410  Biso   1.000  C
  H152     1.0000 0.05910  0.29570  0.59500  Biso   1.000  H
  C235     1.0000 0.09830  0.17270  0.60310  Biso   1.000  C
  C236     1.0000 0.10130  0.22860  0.60510  Biso   1.000  C
  C237     1.0000 0.14560  0.25180  0.61600  Biso   1.000  C
  H153     1.0000 0.15040  0.28870  0.61700  Biso   1.000  H
  C238     1.0000 0.18280  0.21520  0.62550  Biso   1.000  C
  H154     1.0000 0.21060  0.22870  0.63610  Biso   1.000  H
  C239     1.0000 0.18280  0.16490  0.62130  Biso   1.000  C
  H155     1.0000 0.21290  0.14410  0.62480  Biso   1.000  H
  C240     1.0000 0.13660  0.14240  0.61120  Biso   1.000  C
  H156     1.0000 0.13320  0.10540  0.61020  Biso   1.000  H
  C241     1.0000 0.03760  0.18440  0.56540  Biso   1.000  C
  C242     1.0000 0.04740  0.23910  0.56640  Biso   1.000  C
  C243     1.0000 0.04320  0.26620  0.54280  Biso   1.000  C
  H157     1.0000 0.04710  0.30320  0.54260  Biso   1.000  H
  C244     1.0000 0.03310  0.23840  0.51890  Biso   1.000  C
  H158     1.0000 0.03540  0.25610  0.50240  Biso   1.000  H
  C245     1.0000 0.02040  0.18750  0.51950  Biso   1.000  C
  H159     1.0000 0.00540  0.17120  0.50440  Biso   1.000  H
  C246     1.0000 0.02900  0.15920  0.54190  Biso   1.000  C
  H160     1.0000 0.02890  0.12200  0.54120  Biso   1.000  H
  C247     1.0000 0.59280  0.01660  0.63170  Biso   1.000  C
  O51      1.0000 0.56750  0.98180  0.61946  Biso   1.000  O
  O52      1.0000 0.57390  0.05560  0.64309  Biso   1.000  O
  C248     1.0000 0.81720  0.98480  0.63210  Biso   1.000  C
  O53      1.0000 0.83190  0.95050  0.61671  Biso   1.000  O
  O54      1.0000 0.84730  0.01170  0.64640  Biso   1.000  O
  C249     1.0000 0.65090  0.01020  0.63290  Biso   1.000  C
  C250     1.0000 0.67670  0.98830  0.61100  Biso   1.000  C
  H161     1.0000 0.65690  0.97790  0.59600  Biso   1.000  H
  C251     1.0000 0.72870  0.98180  0.61100  Biso   1.000  C
  H162     1.0000 0.74540  0.96830  0.59560  Biso   1.000  H
  C252     1.0000 0.75890  0.99460  0.63320  Biso   1.000  C
  C253     1.0000 0.73580  0.01750  0.65545  Biso   1.000  C
  C254     1.0000 0.68040  0.02590  0.65460  Biso   1.000  C
  C255     1.0000 0.76070  0.03690  0.68050  Biso   1.000  C
  H163     1.0000 0.79970  0.03340  0.68040  Biso   1.000  H
  C256     1.0000 0.66100  0.04780  0.68060  Biso   1.000  C
  H164     1.0000 0.62210  0.05230  0.68050  Biso   1.000  H
  C257     1.0000 0.73470  0.00600  0.70370  Biso   1.000  C
  C258     1.0000 0.67830  0.01100  0.70220  Biso   1.000  C
  C259     1.0000 0.64700  0.98450  0.72050  Biso   1.000  C
  H165     1.0000 0.60980  0.98620  0.71990  Biso   1.000  H
  C260     1.0000 0.67400  0.95480  0.74000  Biso   1.000  C
  H166     1.0000 0.65410  0.93940  0.75390  Biso   1.000  H
  C261     1.0000 0.72430  0.94760  0.73990  Biso   1.000  C
  H167     1.0000 0.74030  0.92500  0.75250  Biso   1.000  H
  C262     1.0000 0.75500  0.97400  0.72070  Biso   1.000  C
  H168     1.0000 0.79170  0.96800  0.72030  Biso   1.000  H
  C263     1.0000 0.74290  0.09300  0.68360  Biso   1.000  C
  C264     1.0000 0.68800  0.09840  0.68450  Biso   1.000  C
  C265     1.0000 0.66760  0.14760  0.68640  Biso   1.000  C
  H169     1.0000 0.63060  0.15190  0.68680  Biso   1.000  H
  C266     1.0000 0.70100  0.19350  0.68810  Biso   1.000  C
  H170     1.0000 0.68670  0.22780  0.68860  Biso   1.000  H
  C267     1.0000 0.75340  0.18550  0.68890  Biso   1.000  C
  H171     1.0000 0.77640  0.21470  0.69020  Biso   1.000  H
  C268     1.0000 0.77370  0.13540  0.68800  Biso   1.000  C
  H172     1.0000 0.81030  0.13050  0.69040  Biso   1.000  H
  C269     1.0000 0.94270  0.96050  0.55670  Biso   1.000  C
  O55      1.0000 0.98190  0.98760  0.56578  Biso   1.000  O
  O56      1.0000 0.90740  0.94350  0.56963  Biso   1.000  O
  C270     1.0000 0.94810  0.95060  0.52840  Biso   1.000  C
  C271     1.0000 0.98000  0.98470  0.51310  Biso   1.000  C
  H173     1.0000 0.99880  0.01180  0.52180  Biso   1.000  H
  C272     1.0000 0.91440  0.91730  0.51340  Biso   1.000  C
  C273     1.0000 0.87500  0.87830  0.52550  Biso   1.000  C
  H174     1.0000 0.87380  0.87980  0.54530  Biso   1.000  H
  C274     1.0000 0.82160  0.89220  0.51231  Biso   1.000  C
  C275     1.0000 0.77820  0.90900  0.52660  Biso   1.000  C
  H175     1.0000 0.77840  0.91130  0.54530  Biso   1.000  H
  C276     1.0000 0.89390  0.82310  0.51460  Biso   1.000  C
  C277     1.0000 0.90390  0.78100  0.52970  Biso   1.000  C
  H176     1.0000 0.90220  0.78240  0.54850  Biso   1.000  H
  C278     1.0000 0.73480  0.92200  0.51170  Biso   1.000  C
  H177     1.0000 0.70440  0.93470  0.52050  Biso   1.000  H
  C279     1.0000 0.91730  0.73370  0.51580  Biso   1.000  C
  H178     1.0000 0.92280  0.70200  0.52520  Biso   1.000  H
  O57      1.0000 0.95160  0.46770  0.61246  Biso   1.000  O
  O58      1.0000 0.93820  0.99170  0.68670  Biso   1.000  O
  C280     1.0000 0.98820  0.97040  0.72270  Biso   1.000  C
  C281     1.0000 0.97920  0.96340  0.69400  Biso   1.000  C
  O59      1.0000 0.00030  0.92950  0.68190  Biso   1.000  O
  C282     1.0000 0.99100  0.03300  0.73590  Biso   1.000  C
  C283     1.0000 0.06230  0.89900  0.72900  Biso   1.000  C
  H179     1.0000 0.05710  0.88510  0.71060  Biso   1.000  H
  C284     1.0000 0.10850  0.93870  0.72990  Biso   1.000  C
  C285     1.0000 0.15040  0.92600  0.71390  Biso   1.000  C
  H180     1.0000 0.14660  0.91160  0.69670  Biso   1.000  H
  C286     1.0000 0.19890  0.93800  0.72510  Biso   1.000  C
  C287     1.0000 0.04700  0.96110  0.73410  Biso   1.000  C
  C288     1.0000 0.04000  0.82170  0.73450  Biso   1.000  C
  H181     1.0000 0.03200  0.82160  0.71620  Biso   1.000  H
  C289     1.0000 0.03600  0.77570  0.74900  Biso   1.000  C
  C290     1.0000 0.05700  0.86730  0.74610  Biso   1.000  C
  C291     1.0000 0.07690  0.91080  0.72590  Biso   1.000  C
  C292     1.0000 0.01420  0.93160  0.73800  Biso   1.000  C
  H182     1.0000 0.07170  0.90100  0.70690  Biso   1.000  H
  O60      1.0000 0.04800  0.85090  0.66180  Biso   1.000  O
  C293     1.0000 0.09360  0.84280  0.65400  Biso   1.000  C
  H183     1.0000 0.10730  0.86620  0.64110  Biso   1.000  H
  N6       1.0000 0.12480  0.80440  0.66210  Biso   1.000  N
  C294     1.0000 0.10100  0.76600  0.67990  Biso   1.000  C
  H184     1.0000 0.06420  0.77600  0.68310  Biso   1.000  H
  H185     1.0000 0.11990  0.76560  0.69670  Biso   1.000  H
  H186     1.0000 0.10210  0.73130  0.67170  Biso   1.000  H
  C295     1.0000 0.17300  0.78870  0.65380  Biso   1.000  C
  H187     1.0000 0.18200  0.75530  0.66230  Biso   1.000  H
  H188     1.0000 0.19900  0.81530  0.65870  Biso   1.000  H
  H189     1.0000 0.17270  0.78420  0.63450  Biso   1.000  H
  O61      1.0000 0.89010  0.48080  0.54830  Biso   1.000  O
  C296     1.0000 0.84330  0.47300  0.54370  Biso   1.000  C
  H190     1.0000 0.81920  0.47700  0.55790  Biso   1.000  H
  N7       1.0000 0.82400  0.45930  0.51980  Biso   1.000  N
  C297     1.0000 0.86050  0.45010  0.49830  Biso   1.000  C
  H191     1.0000 0.84250  0.43160  0.48390  Biso   1.000  H
  H192     1.0000 0.88980  0.42860  0.50470  Biso   1.000  H
  H193     1.0000 0.87390  0.48370  0.49180  Biso   1.000  H
  C298     1.0000 0.77320  0.45460  0.51280  Biso   1.000  C
  H194     1.0000 0.77070  0.44850  0.49370  Biso   1.000  H
  H195     1.0000 0.75450  0.48690  0.51740  Biso   1.000  H
  H196     1.0000 0.75760  0.42500  0.52240  Biso   1.000  H
  O62      1.0000 0.85130  0.49390  0.55740  Biso   1.000  O
  C299     1.0000 0.85480  0.49300  0.53290  Biso   1.000  C
  H197     1.0000 0.86660  0.52440  0.52480  Biso   1.000  H
  N8       1.0000 0.84430  0.45300  0.51620  Biso   1.000  N
  C300     1.0000 0.85100  0.46200  0.48810  Biso   1.000  C
  H198     1.0000 0.84740  0.42900  0.47850  Biso   1.000  H
  H199     1.0000 0.88640  0.47650  0.48490  Biso   1.000  H
  H200     1.0000 0.82480  0.48720  0.48180  Biso   1.000  H
  C301     1.0000 0.83100  0.40300  0.52190  Biso   1.000  C
  H201     1.0000 0.82640  0.38330  0.50540  Biso   1.000  H
  H202     1.0000 0.79820  0.40250  0.53200  Biso   1.000  H
  H203     1.0000 0.85890  0.38670  0.53240  Biso   1.000  H
  C302     1.0000 0.98960  0.97840  0.69410  Biso   1.000  C
  O63      1.0000 0.94950  0.00870  0.68780  Biso   1.000  O
  O64      1.0000 0.01540  0.95210  0.67940  Biso   1.000  O
  H204     1.0000 0.99370  0.06860  0.73070  Biso   1.000  H
  C303     1.0000 0.00600  0.98850  0.72170  Biso   1.000  C
  C304     1.0000 0.95280  0.99530  0.73910  Biso   1.000  C
  C305     1.0000 0.13460  0.93000  0.73230  Biso   1.000  C
  H205     1.0000 0.21870  0.91290  0.71540  Biso   1.000  H
  C306     1.0000 0.17260  0.93400  0.71450  Biso   1.000  C
  H206     1.0000 0.16720  0.92370  0.69660  Biso   1.000  H
  C307     1.0000 0.06050  0.85260  0.75040  Biso   1.000  C
  C308     1.0000 0.05650  0.80320  0.74200  Biso   1.000  C
  C309     1.0000 0.04300  0.76180  0.76100  Biso   1.000  C
  H207     1.0000 0.02490  0.74410  0.74060  Biso   1.000  H
  C310     1.0000 0.22360  0.95300  0.72370  Biso   1.000  C
  H208     1.0000 0.27250  0.97140  0.73760  Biso   1.000  H
  H209     1.0000 0.06240  0.79480  0.72390  Biso   1.000  H
  H210     1.0000 0.25300  0.95830  0.71240  Biso   1.000  H
  O65      1.0000 0.46090  0.54370  0.87815  Biso   1.000  O
  Zn17     1.0000 0.50412  0.50534  0.85254  Biso   1.000  Zn
  Zn18     1.0000 0.99966  0.59023  0.83396  Biso   1.000  Zn
  Zn19     1.0000 0.57616  0.08904  0.86431  Biso   1.000  Zn
  Zn20     1.0000 0.92311  0.49774  0.84562  Biso   1.000  Zn
  Zn21     1.0000 0.50814  0.57732  0.90241  Biso   1.000  Zn
  Zn22     1.0000 0.42791  0.59810  0.85779  Biso   1.000  Zn
  Zn23     1.0000 0.01846  0.50916  0.88226  Biso   1.000  Zn
  Zn24     1.0000 0.41150  0.49316  0.89271  Biso   1.000  Zn
  O66      1.0000 0.36670  0.42710  0.89660  Biso   1.000  O
  C311     1.0000 0.32740  0.42150  0.91130  Biso   1.000  C
  H211     1.0000 0.31010  0.45150  0.91810  Biso   1.000  H
  N9       1.0000 0.30960  0.37320  0.91740  Biso   1.000  N
  C312     1.0000 0.33190  0.32860  0.90450  Biso   1.000  C
  H212     1.0000 0.31240  0.29710  0.90960  Biso   1.000  H
  H213     1.0000 0.36860  0.32480  0.90980  Biso   1.000  H
  H214     1.0000 0.33000  0.33330  0.88530  Biso   1.000  H
  C313     1.0000 0.26820  0.36010  0.93370  Biso   1.000  C
  H215     1.0000 0.26210  0.32220  0.93280  Biso   1.000  H
  H216     1.0000 0.23660  0.37870  0.92790  Biso   1.000  H
  H217     1.0000 0.27660  0.37010  0.95200  Biso   1.000  H
  C314     1.0000 0.10380  0.55240  0.84920  Biso   1.000  C
  O67      1.0000 0.08370  0.51660  0.86380  Biso   1.000  O
  O68      1.0000 0.07830  0.58130  0.83408  Biso   1.000  O
  C315     1.0000 0.32710  0.56480  0.86760  Biso   1.000  C
  O69      1.0000 0.34550  0.53230  0.88240  Biso   1.000  O
  O70      1.0000 0.35320  0.60030  0.85700  Biso   1.000  O
  C316     1.0000 0.16170  0.55790  0.85170  Biso   1.000  C
  C317     1.0000 0.19140  0.51290  0.85630  Biso   1.000  C
  H218     1.0000 0.17510  0.47950  0.85540  Biso   1.000  H
  C318     1.0000 0.24380  0.51610  0.86210  Biso   1.000  C
  H219     1.0000 0.26270  0.48520  0.86640  Biso   1.000  H
  C319     1.0000 0.26980  0.56450  0.86160  Biso   1.000  C
  C320     1.0000 0.24150  0.61040  0.85660  Biso   1.000  C
  C321     1.0000 0.18780  0.60580  0.84990  Biso   1.000  C
  C322     1.0000 0.26060  0.66700  0.85759  Biso   1.000  C
  H220     1.0000 0.29870  0.66970  0.86200  Biso   1.000  H
  C323     1.0000 0.16220  0.65910  0.84576  Biso   1.000  C
  H221     1.0000 0.12420  0.65640  0.84100  Biso   1.000  H
  C324     1.0000 0.22540  0.69550  0.87790  Biso   1.000  C
  C325     1.0000 0.17130  0.69130  0.87060  Biso   1.000  C
  C326     1.0000 0.13170  0.71640  0.88510  Biso   1.000  C
  H222     1.0000 0.09570  0.71490  0.88030  Biso   1.000  H
  C327     1.0000 0.15100  0.74460  0.90780  Biso   1.000  C
  H223     1.0000 0.12660  0.76370  0.91820  Biso   1.000  H
  C328     1.0000 0.19960  0.74540  0.91460  Biso   1.000  C
  H224     1.0000 0.20940  0.76320  0.93040  Biso   1.000  H
  C329     1.0000 0.23830  0.72070  0.89950  Biso   1.000  C
  H225     1.0000 0.27400  0.72230  0.90480  Biso   1.000  H
  C330     1.0000 0.24790  0.68980  0.83080  Biso   1.000  C
  C331     1.0000 0.19400  0.68460  0.82450  Biso   1.000  C
  C332     1.0000 0.17670  0.70280  0.79990  Biso   1.000  C
  H226     1.0000 0.14100  0.69940  0.79480  Biso   1.000  H
  C333     1.0000 0.21400  0.72670  0.78260  Biso   1.000  C
  H227     1.0000 0.20320  0.73930  0.76580  Biso   1.000  H
  C334     1.0000 0.26440  0.73130  0.79010  Biso   1.000  C
  H228     1.0000 0.28890  0.74660  0.77820  Biso   1.000  H
  C335     1.0000 0.28120  0.71450  0.81430  Biso   1.000  C
  H229     1.0000 0.31650  0.72020  0.81950  Biso   1.000  H
  C336     1.0000 0.52440  0.18300  0.87920  Biso   1.000  C
  O71      1.0000 0.49690  0.16050  0.89680  Biso   1.000  O
  O72      1.0000 0.56350  0.16420  0.86713  Biso   1.000  O
  C337     1.0000 0.48600  0.40550  0.86800  Biso   1.000  C
  O73      1.0000 0.46110  0.42780  0.88370  Biso   1.000  O
  O74      1.0000 0.51310  0.42950  0.85080  Biso   1.000  O
  C338     1.0000 0.51230  0.23920  0.87446  Biso   1.000  C
  C339     1.0000 0.49730  0.27100  0.89560  Biso   1.000  C
  H230     1.0000 0.49330  0.25520  0.91250  Biso   1.000  H
  C340     1.0000 0.48820  0.32200  0.89340  Biso   1.000  C
  H231     1.0000 0.47940  0.34180  0.90870  Biso   1.000  H
  C341     1.0000 0.49140  0.34700  0.86850  Biso   1.000  C
  C342     1.0000 0.50400  0.31620  0.84640  Biso   1.000  C
  C343     1.0000 0.51620  0.26250  0.84986  Biso   1.000  C
  C344     1.0000 0.50810  0.33400  0.81742  Biso   1.000  C
  H232     1.0000 0.50160  0.37240  0.81510  Biso   1.000  H
  C345     1.0000 0.52610  0.23540  0.82295  Biso   1.000  C
  H233     1.0000 0.53320  0.19710  0.82510  Biso   1.000  H
  C346     1.0000 0.46820  0.29910  0.80190  Biso   1.000  C
  C347     1.0000 0.48030  0.24500  0.80520  Biso   1.000  C
  C348     1.0000 0.44910  0.20580  0.79350  Biso   1.000  C
  H234     1.0000 0.45460  0.16940  0.79640  Biso   1.000  H
  C349     1.0000 0.40870  0.22540  0.77670  Biso   1.000  C
  H235     1.0000 0.38660  0.20080  0.76810  Biso   1.000  H
  C350     1.0000 0.40030  0.27490  0.77250  Biso   1.000  C
  H236     1.0000 0.37370  0.28550  0.76050  Biso   1.000  H
  C351     1.0000 0.43040  0.31250  0.78570  Biso   1.000  C
  H237     1.0000 0.42320  0.34860  0.78290  Biso   1.000  H
  C352     1.0000 0.56190  0.31770  0.80844  Biso   1.000  C
  C353     1.0000 0.57150  0.26330  0.81120  Biso   1.000  C
  C354     1.0000 0.62050  0.24330  0.80410  Biso   1.000  C
  H238     1.0000 0.62950  0.20790  0.80780  Biso   1.000  H
  C355     1.0000 0.65770  0.27820  0.79080  Biso   1.000  C
  H239     1.0000 0.69020  0.26560  0.78430  Biso   1.000  H
  C356     1.0000 0.64430  0.32790  0.78810  Biso   1.000  C
  H240     1.0000 0.66850  0.35070  0.77970  Biso   1.000  H
  C357     1.0000 0.59720  0.34910  0.79690  Biso   1.000  C
  H241     1.0000 0.59020  0.38540  0.79470  Biso   1.000  H
  C358     1.0000 0.95890  0.50280  0.79489  Biso   1.000  C
  O75      1.0000 0.92040  0.48380  0.80738  Biso   1.000  O
  O76      1.0000 0.99480  0.52330  0.80710  Biso   1.000  O
  C359     1.0000 0.95550  0.46900  0.68211  Biso   1.000  C
  O77      1.0000 0.91960  0.44240  0.67374  Biso   1.000  O
  O78      1.0000 0.98660  0.49520  0.66880  Biso   1.000  O
  C360     1.0000 0.96330  0.49280  0.76597  Biso   1.000  C
  C361     1.0000 0.91710  0.47480  0.75311  Biso   1.000  C
  H242     1.0000 0.88680  0.46650  0.76320  Biso   1.000  H
  C362     1.0000 0.91670  0.46970  0.72674  Biso   1.000  C
  H243     1.0000 0.88420  0.46330  0.71810  Biso   1.000  H
  C363     1.0000 0.96130  0.47320  0.71162  Biso   1.000  C
  C364     1.0000 0.00790  0.49010  0.72357  Biso   1.000  C
  C365     1.0000 0.00820  0.49930  0.75119  Biso   1.000  C
  C366     1.0000 0.06200  0.49760  0.71110  Biso   1.000  C
  H244     1.0000 0.06200  0.49080  0.69160  Biso   1.000  H
  C367     1.0000 0.06280  0.51560  0.76060  Biso   1.000  C
  H245     1.0000 0.06330  0.52220  0.78010  Biso   1.000  H
  C368     1.0000 0.10030  0.46160  0.72640  Biso   1.000  C
  C369     1.0000 0.10050  0.47300  0.75310  Biso   1.000  C
  C370     1.0000 0.13660  0.44920  0.77020  Biso   1.000  C
  H246     1.0000 0.13920  0.45700  0.78860  Biso   1.000  H
  C371     1.0000 0.16920  0.41180  0.75690  Biso   1.000  C
  H247     1.0000 0.19770  0.39780  0.76670  Biso   1.000  H
  C372     1.0000 0.16350  0.39540  0.73300  Biso   1.000  C
  H248     1.0000 0.17810  0.36350  0.72670  Biso   1.000  H
  C373     1.0000 0.13470  0.42800  0.71770  Biso   1.000  C
  H249     1.0000 0.14000  0.42620  0.69910  Biso   1.000  H
  C374     1.0000 0.07660  0.55260  0.71780  Biso   1.000  C
  C375     1.0000 0.07800  0.56230  0.74570  Biso   1.000  C
  C376     1.0000 0.09260  0.61110  0.75480  Biso   1.000  C
  H250     1.0000 0.09540  0.61830  0.77320  Biso   1.000  H
  C377     1.0000 0.10330  0.65010  0.73560  Biso   1.000  C
  H251     1.0000 0.10670  0.68560  0.74100  Biso   1.000  H
  C378     1.0000 0.10880  0.63800  0.70980  Biso   1.000  C
  H252     1.0000 0.12370  0.66270  0.69790  Biso   1.000  H
  C379     1.0000 0.09280  0.58970  0.70080  Biso   1.000  C
  H253     1.0000 0.09330  0.58250  0.68230  Biso   1.000  H
  C380     1.0000 0.82880  0.53410  0.87160  Biso   1.000  C
  O79      1.0000 0.85090  0.56960  0.88500  Biso   1.000  O
  O80      1.0000 0.85070  0.50260  0.85600  Biso   1.000  O
  C381     1.0000 0.60190  0.54250  0.87580  Biso   1.000  C
  O81      1.0000 0.58260  0.55950  0.89622  Biso   1.000  O
  O82      1.0000 0.57720  0.53410  0.85462  Biso   1.000  O
  C382     1.0000 0.77000  0.53000  0.87280  Biso   1.000  C
  C383     1.0000 0.74350  0.56790  0.88810  Biso   1.000  C
  H254     1.0000 0.76410  0.59230  0.89780  Biso   1.000  H
  C384     1.0000 0.69130  0.57160  0.88980  Biso   1.000  C
  H255     1.0000 0.67530  0.59750  0.90070  Biso   1.000  H
  C385     1.0000 0.66060  0.53570  0.87500  Biso   1.000  C
  C386     1.0000 0.68380  0.49690  0.85950  Biso   1.000  C
  C387     1.0000 0.73970  0.49410  0.85950  Biso   1.000  C
  C388     1.0000 0.65760  0.45670  0.84170  Biso   1.000  C
  H256     1.0000 0.61880  0.46190  0.84040  Biso   1.000  H
  C389     1.0000 0.75680  0.44570  0.84410  Biso   1.000  C
  H257     1.0000 0.79570  0.44090  0.84500  Biso   1.000  H
  C390     1.0000 0.67270  0.40170  0.85310  Biso   1.000  C
  C391     1.0000 0.72860  0.39870  0.85510  Biso   1.000  C
  C392     1.0000 0.75180  0.35440  0.86600  Biso   1.000  C
  H258     1.0000 0.78870  0.34960  0.86700  Biso   1.000  H
  C393     1.0000 0.71520  0.31720  0.87550  Biso   1.000  C
  H259     1.0000 0.72870  0.28940  0.88610  Biso   1.000  H
  C394     1.0000 0.66490  0.31720  0.87130  Biso   1.000  C
  H260     1.0000 0.64410  0.28710  0.87480  Biso   1.000  H
  C395     1.0000 0.64240  0.36340  0.86120  Biso   1.000  C
  H261     1.0000 0.60540  0.36680  0.86020  Biso   1.000  H
  C396     1.0000 0.68440  0.46240  0.81540  Biso   1.000  C
  C397     1.0000 0.73910  0.45260  0.81640  Biso   1.000  C
  C398     1.0000 0.76620  0.45680  0.79280  Biso   1.000  C
  H262     1.0000 0.80320  0.45290  0.79260  Biso   1.000  H
  C399     1.0000 0.73840  0.46690  0.76890  Biso   1.000  C
  H263     1.0000 0.75610  0.46460  0.75240  Biso   1.000  H
  C400     1.0000 0.68750  0.47960  0.76950  Biso   1.000  C
  H264     1.0000 0.67120  0.49460  0.75440  Biso   1.000  H
  C401     1.0000 0.65920  0.47100  0.79190  Biso   1.000  C
  H265     1.0000 0.62200  0.47110  0.79120  Biso   1.000  H
  C402     1.0000 0.51660  0.90720  0.88170  Biso   1.000  C
  O83      1.0000 0.48180  0.93250  0.86946  Biso   1.000  O
  O84      1.0000 0.55560  0.92610  0.89309  Biso   1.000  O
  C403     1.0000 0.48480  0.68280  0.88210  Biso   1.000  C
  O85      1.0000 0.45050  0.66810  0.86671  Biso   1.000  O
  O86      1.0000 0.51170  0.65270  0.89640  Biso   1.000  O
  C404     1.0000 0.51020  0.84910  0.88290  Biso   1.000  C
  C405     1.0000 0.48830  0.82330  0.86100  Biso   1.000  C
  H266     1.0000 0.47790  0.84310  0.84600  Biso   1.000  H
  C406     1.0000 0.48180  0.77130  0.86100  Biso   1.000  C
  H267     1.0000 0.46830  0.75460  0.84560  Biso   1.000  H
  C407     1.0000 0.49460  0.74110  0.88320  Biso   1.000  C
  C408     1.0000 0.51750  0.76420  0.90545  Biso   1.000  C
  C409     1.0000 0.52590  0.81960  0.90460  Biso   1.000  C
  C410     1.0000 0.53690  0.73930  0.93050  Biso   1.000  C
  H268     1.0000 0.53340  0.70030  0.93040  Biso   1.000  H
  C411     1.0000 0.54780  0.83900  0.93060  Biso   1.000  C
  H269     1.0000 0.55230  0.87790  0.93050  Biso   1.000  H
  C412     1.0000 0.50600  0.76530  0.95370  Biso   1.000  C
  C413     1.0000 0.51100  0.82170  0.95220  Biso   1.000  C
  C414     1.0000 0.48450  0.85300  0.97050  Biso   1.000  C
  H270     1.0000 0.48620  0.89020  0.96990  Biso   1.000  H
  C415     1.0000 0.45480  0.82600  0.99000  Biso   1.000  C
  H271     1.0000 0.43940  0.84590  0.00390  Biso   1.000  H
  C416     1.0000 0.44760  0.77570  0.98990  Biso   1.000  C
  H272     1.0000 0.42500  0.75970  0.00250  Biso   1.000  H
  C417     1.0000 0.47400  0.74500  0.97070  Biso   1.000  C
  H273     1.0000 0.46800  0.70830  0.97030  Biso   1.000  H
  C418     1.0000 0.59300  0.75710  0.93360  Biso   1.000  C
  C419     1.0000 0.59840  0.81200  0.93450  Biso   1.000  C
  C420     1.0000 0.64760  0.83240  0.93640  Biso   1.000  C
  H274     1.0000 0.65190  0.86940  0.93680  Biso   1.000  H
  C421     1.0000 0.69350  0.79900  0.93810  Biso   1.000  C
  H275     1.0000 0.72780  0.81330  0.93860  Biso   1.000  H
  C422     1.0000 0.68550  0.74660  0.93890  Biso   1.000  C
  H276     1.0000 0.71470  0.72360  0.94020  Biso   1.000  H
  C423     1.0000 0.63540  0.72630  0.93800  Biso   1.000  C
  H277     1.0000 0.63050  0.68970  0.94040  Biso   1.000  H
  C424     1.0000 0.46050  0.55730  0.80670  Biso   1.000  C
  O87      1.0000 0.48760  0.51810  0.81578  Biso   1.000  O
  O88      1.0000 0.44350  0.59260  0.81963  Biso   1.000  O
  C425     1.0000 0.45060  0.55190  0.77840  Biso   1.000  C
  C426     1.0000 0.48470  0.52000  0.76310  Biso   1.000  C
  H278     1.0000 0.51180  0.50120  0.77180  Biso   1.000  H
  C427     1.0000 0.41730  0.58560  0.76340  Biso   1.000  C
  C428     1.0000 0.37830  0.62500  0.77550  Biso   1.000  C
  H279     1.0000 0.37980  0.62620  0.79530  Biso   1.000  H
  C429     1.0000 0.39220  0.67840  0.76231  Biso   1.000  C
  C430     1.0000 0.40900  0.72180  0.77660  Biso   1.000  C
  H280     1.0000 0.41130  0.72160  0.79530  Biso   1.000  H
  C431     1.0000 0.32310  0.60610  0.76460  Biso   1.000  C
  C432     1.0000 0.28100  0.59610  0.77970  Biso   1.000  C
  H281     1.0000 0.28240  0.59780  0.79850  Biso   1.000  H
  C433     1.0000 0.42200  0.76520  0.76170  Biso   1.000  C
  H282     1.0000 0.43470  0.79560  0.77050  Biso   1.000  H
  C434     1.0000 0.23370  0.58270  0.76580  Biso   1.000  C
  H283     1.0000 0.20200  0.57720  0.77520  Biso   1.000  H
  O89      1.0000 0.96770  0.54840  0.86246  Biso   1.000  O
  O90      1.0000 0.49170  0.56180  0.93670  Biso   1.000  O
  C435     1.0000 0.47040  0.51180  0.97270  Biso   1.000  C
  C436     1.0000 0.46340  0.52080  0.94400  Biso   1.000  C
  O91      1.0000 0.42950  0.49970  0.93190  Biso   1.000  O
  C437     1.0000 0.53300  0.50900  0.98590  Biso   1.000  C
  C438     1.0000 0.39900  0.43770  0.97900  Biso   1.000  C
  H284     1.0000 0.38510  0.44290  0.96060  Biso   1.000  H
  C439     1.0000 0.43870  0.39150  0.97990  Biso   1.000  C
  C440     1.0000 0.42600  0.34960  0.96390  Biso   1.000  C
  H285     1.0000 0.41160  0.35340  0.94670  Biso   1.000  H
  C441     1.0000 0.43800  0.30110  0.97510  Biso   1.000  C
  C442     1.0000 0.46110  0.45300  0.98410  Biso   1.000  C
  C443     1.0000 0.32170  0.46000  0.98450  Biso   1.000  C
  H286     1.0000 0.32160  0.46800  0.96620  Biso   1.000  H
  C444     1.0000 0.27570  0.46400  0.99900  Biso   1.000  C
  C445     1.0000 0.36730  0.44300  0.99610  Biso   1.000  C
  C446     1.0000 0.41080  0.42310  0.97590  Biso   1.000  C
  C447     1.0000 0.43160  0.48580  0.98800  Biso   1.000  C
  H287     1.0000 0.40100  0.42830  0.95690  Biso   1.000  H
  O92      1.0000 0.35090  0.45200  0.91180  Biso   1.000  O
  C448     1.0000 0.34280  0.40640  0.90400  Biso   1.000  C
  H288     1.0000 0.36620  0.39270  0.89110  Biso   1.000  H
  N10      1.0000 0.30440  0.37520  0.91210  Biso   1.000  N
  C449     1.0000 0.26600  0.39900  0.92990  Biso   1.000  C
  H289     1.0000 0.27600  0.43580  0.93310  Biso   1.000  H
  H290     1.0000 0.26560  0.38010  0.94670  Biso   1.000  H
  H291     1.0000 0.23130  0.39790  0.92170  Biso   1.000  H
  C450     1.0000 0.28870  0.32700  0.90380  Biso   1.000  C
  H292     1.0000 0.25530  0.31800  0.91230  Biso   1.000  H
  H293     1.0000 0.31530  0.30100  0.90870  Biso   1.000  H
  H294     1.0000 0.28420  0.32730  0.88450  Biso   1.000  H
  O93      1.0000 0.98080  0.60990  0.79830  Biso   1.000  O
  C451     1.0000 0.97300  0.65670  0.79370  Biso   1.000  C
  H295     1.0000 0.97700  0.68080  0.80790  Biso   1.000  H
  N11      1.0000 0.95930  0.67600  0.76980  Biso   1.000  N
  C452     1.0000 0.95010  0.63950  0.74830  Biso   1.000  C
  H296     1.0000 0.93160  0.65750  0.73390  Biso   1.000  H
  H297     1.0000 0.92860  0.61020  0.75470  Biso   1.000  H
  H298     1.0000 0.98370  0.62610  0.74180  Biso   1.000  H
  C453     1.0000 0.95460  0.72680  0.76280  Biso   1.000  C
  H299     1.0000 0.94850  0.72930  0.74370  Biso   1.000  H
  H300     1.0000 0.98690  0.74550  0.76740  Biso   1.000  H
  H301     1.0000 0.92500  0.74240  0.77240  Biso   1.000  H
  O94      1.0000 0.99390  0.64870  0.80740  Biso   1.000  O
  C454     1.0000 0.99300  0.64520  0.78290  Biso   1.000  C
  H302     1.0000 0.02440  0.63340  0.77480  Biso   1.000  H
  N12      1.0000 0.95300  0.65570  0.76620  Biso   1.000  N
  C455     1.0000 0.96200  0.64900  0.73810  Biso   1.000  C
  H303     1.0000 0.92900  0.65260  0.72850  Biso   1.000  H
  H304     1.0000 0.97650  0.61360  0.73490  Biso   1.000  H
  H305     1.0000 0.98720  0.67520  0.73180  Biso   1.000  H
  C456     1.0000 0.90300  0.66900  0.77190  Biso   1.000  C
  H306     1.0000 0.88330  0.67360  0.75540  Biso   1.000  H
  H307     1.0000 0.90250  0.70180  0.78200  Biso   1.000  H
  H308     1.0000 0.88670  0.64110  0.78240  Biso   1.000  H
  C457     1.0000 0.47840  0.51040  0.94410  Biso   1.000  C
  O95      1.0000 0.50870  0.55050  0.93780  Biso   1.000  O
  O96      1.0000 0.45210  0.48460  0.92940  Biso   1.000  O
  H309     1.0000 0.56860  0.50630  0.98070  Biso   1.000  H
  C458     1.0000 0.48850  0.49400  0.97170  Biso   1.000  C
  C459     1.0000 0.49530  0.54720  0.98910  Biso   1.000  C
  C460     1.0000 0.43000  0.36540  0.98230  Biso   1.000  C
  H310     1.0000 0.41290  0.28130  0.96540  Biso   1.000  H
  C461     1.0000 0.43400  0.32740  0.96450  Biso   1.000  C
  H311     1.0000 0.42370  0.33280  0.94660  Biso   1.000  H
  C462     1.0000 0.35260  0.43950  0.00040  Biso   1.000  C
  C463     1.0000 0.30320  0.44350  0.99200  Biso   1.000  C
  C464     1.0000 0.26180  0.45700  0.01100  Biso   1.000  C
  H312     1.0000 0.24410  0.47510  0.99060  Biso   1.000  H
  C465     1.0000 0.45300  0.27640  0.97370  Biso   1.000  C
  H313     1.0000 0.47140  0.22750  0.98760  Biso   1.000  H
  H314     1.0000 0.29480  0.43760  0.97390  Biso   1.000  H
  H315     1.0000 0.45830  0.24700  0.96240  Biso   1.000  H
  O97      1.0000 0.53910  0.45630  0.37815  Biso   1.000  O
  Zn25     1.0000 0.49588  0.49466  0.35254  Biso   1.000  Zn
  Zn26     1.0000 0.00034  0.40977  0.33396  Biso   1.000  Zn
  Zn27     1.0000 0.42384  0.91096  0.36431  Biso   1.000  Zn
  Zn28     1.0000 0.07689  0.50226  0.34562  Biso   1.000  Zn
  Zn29     1.0000 0.49186  0.42268  0.40241  Biso   1.000  Zn
  Zn30     1.0000 0.57209  0.40190  0.35779  Biso   1.000  Zn
  Zn31     1.0000 0.98154  0.49084  0.38226  Biso   1.000  Zn
  Zn32     1.0000 0.58850  0.50684  0.39271  Biso   1.000  Zn
  O98      1.0000 0.63330  0.57290  0.39660  Biso   1.000  O
  C466     1.0000 0.67260  0.57850  0.41130  Biso   1.000  C
  H316     1.0000 0.68990  0.54850  0.41810  Biso   1.000  H
  N13      1.0000 0.69040  0.62680  0.41740  Biso   1.000  N
  C467     1.0000 0.66810  0.67140  0.40450  Biso   1.000  C
  H317     1.0000 0.68760  0.70290  0.40960  Biso   1.000  H
  H318     1.0000 0.63140  0.67520  0.40980  Biso   1.000  H
  H319     1.0000 0.67000  0.66670  0.38530  Biso   1.000  H
  C468     1.0000 0.73180  0.63990  0.43370  Biso   1.000  C
  H320     1.0000 0.73790  0.67780  0.43280  Biso   1.000  H
  H321     1.0000 0.76340  0.62130  0.42790  Biso   1.000  H
  H322     1.0000 0.72340  0.62990  0.45200  Biso   1.000  H
  C469     1.0000 0.89620  0.44760  0.34920  Biso   1.000  C
  O99      1.0000 0.91630  0.48340  0.36380  Biso   1.000  O
  O100     1.0000 0.92170  0.41870  0.33408  Biso   1.000  O
  C470     1.0000 0.67290  0.43520  0.36760  Biso   1.000  C
  O101     1.0000 0.65450  0.46770  0.38240  Biso   1.000  O
  O102     1.0000 0.64680  0.39970  0.35700  Biso   1.000  O
  C471     1.0000 0.83830  0.44210  0.35170  Biso   1.000  C
  C472     1.0000 0.80860  0.48710  0.35630  Biso   1.000  C
  H323     1.0000 0.82490  0.52050  0.35540  Biso   1.000  H
  C473     1.0000 0.75620  0.48390  0.36210  Biso   1.000  C
  H324     1.0000 0.73730  0.51480  0.36640  Biso   1.000  H
  C474     1.0000 0.73020  0.43550  0.36160  Biso   1.000  C
  C475     1.0000 0.75850  0.38960  0.35660  Biso   1.000  C
  C476     1.0000 0.81220  0.39420  0.34990  Biso   1.000  C
  C477     1.0000 0.73940  0.33300  0.35759  Biso   1.000  C
  H325     1.0000 0.70130  0.33030  0.36200  Biso   1.000  H
  C478     1.0000 0.83780  0.34090  0.34576  Biso   1.000  C
  H326     1.0000 0.87580  0.34360  0.34100  Biso   1.000  H
  C479     1.0000 0.77460  0.30450  0.37790  Biso   1.000  C
  C480     1.0000 0.82870  0.30870  0.37060  Biso   1.000  C
  C481     1.0000 0.86830  0.28360  0.38510  Biso   1.000  C
  H327     1.0000 0.90430  0.28510  0.38030  Biso   1.000  H
  C482     1.0000 0.84900  0.25540  0.40780  Biso   1.000  C
  H328     1.0000 0.87340  0.23630  0.41820  Biso   1.000  H
  C483     1.0000 0.80040  0.25460  0.41460  Biso   1.000  C
  H329     1.0000 0.79060  0.23680  0.43040  Biso   1.000  H
  C484     1.0000 0.76170  0.27930  0.39950  Biso   1.000  C
  H330     1.0000 0.72600  0.27770  0.40480  Biso   1.000  H
  C485     1.0000 0.75210  0.31020  0.33080  Biso   1.000  C
  C486     1.0000 0.80600  0.31540  0.32450  Biso   1.000  C
  C487     1.0000 0.82330  0.29720  0.29990  Biso   1.000  C
  H331     1.0000 0.85900  0.30060  0.29480  Biso   1.000  H
  C488     1.0000 0.78600  0.27330  0.28260  Biso   1.000  C
  H332     1.0000 0.79680  0.26070  0.26580  Biso   1.000  H
  C489     1.0000 0.73560  0.26870  0.29010  Biso   1.000  C
  H333     1.0000 0.71110  0.25340  0.27820  Biso   1.000  H
  C490     1.0000 0.71880  0.28550  0.31430  Biso   1.000  C
  H334     1.0000 0.68350  0.27980  0.31950  Biso   1.000  H
  C491     1.0000 0.47560  0.81700  0.37920  Biso   1.000  C
  O103     1.0000 0.50310  0.83950  0.39680  Biso   1.000  O
  O104     1.0000 0.43650  0.83580  0.36713  Biso   1.000  O
  C492     1.0000 0.51400  0.59450  0.36800  Biso   1.000  C
  O105     1.0000 0.53890  0.57220  0.38370  Biso   1.000  O
  O106     1.0000 0.48690  0.57050  0.35080  Biso   1.000  O
  C493     1.0000 0.48770  0.76080  0.37446  Biso   1.000  C
  C494     1.0000 0.50270  0.72900  0.39560  Biso   1.000  C
  H335     1.0000 0.50670  0.74480  0.41250  Biso   1.000  H
  C495     1.0000 0.51180  0.67800  0.39340  Biso   1.000  C
  H336     1.0000 0.52060  0.65820  0.40870  Biso   1.000  H
  C496     1.0000 0.50860  0.65300  0.36850  Biso   1.000  C
  C497     1.0000 0.49600  0.68380  0.34640  Biso   1.000  C
  C498     1.0000 0.48380  0.73750  0.34986  Biso   1.000  C
  C499     1.0000 0.49190  0.66600  0.31742  Biso   1.000  C
  H337     1.0000 0.49840  0.62760  0.31510  Biso   1.000  H
  C500     1.0000 0.47390  0.76460  0.32295  Biso   1.000  C
  H338     1.0000 0.46680  0.80290  0.32510  Biso   1.000  H
  C501     1.0000 0.53180  0.70090  0.30190  Biso   1.000  C
  C502     1.0000 0.51970  0.75500  0.30520  Biso   1.000  C
  C503     1.0000 0.55090  0.79420  0.29350  Biso   1.000  C
  H339     1.0000 0.54540  0.83060  0.29640  Biso   1.000  H
  C504     1.0000 0.59130  0.77460  0.27670  Biso   1.000  C
  H340     1.0000 0.61340  0.79920  0.26810  Biso   1.000  H
  C505     1.0000 0.59970  0.72510  0.27250  Biso   1.000  C
  H341     1.0000 0.62630  0.71450  0.26050  Biso   1.000  H
  C506     1.0000 0.56960  0.68750  0.28570  Biso   1.000  C
  H342     1.0000 0.57680  0.65140  0.28290  Biso   1.000  H
  C507     1.0000 0.43810  0.68230  0.30844  Biso   1.000  C
  C508     1.0000 0.42850  0.73670  0.31120  Biso   1.000  C
  C509     1.0000 0.37950  0.75670  0.30410  Biso   1.000  C
  H343     1.0000 0.37050  0.79210  0.30780  Biso   1.000  H
  C510     1.0000 0.34230  0.72180  0.29080  Biso   1.000  C
  H344     1.0000 0.30980  0.73440  0.28430  Biso   1.000  H
  C511     1.0000 0.35570  0.67210  0.28810  Biso   1.000  C
  H345     1.0000 0.33150  0.64930  0.27970  Biso   1.000  H
  C512     1.0000 0.40280  0.65090  0.29690  Biso   1.000  C
  H346     1.0000 0.40980  0.61460  0.29470  Biso   1.000  H
  C513     1.0000 0.04110  0.49720  0.29489  Biso   1.000  C
  O107     1.0000 0.07960  0.51620  0.30738  Biso   1.000  O
  O108     1.0000 0.00520  0.47670  0.30710  Biso   1.000  O
  C514     1.0000 0.04450  0.53100  0.18211  Biso   1.000  C
  O109     1.0000 0.08040  0.55760  0.17374  Biso   1.000  O
  O110     1.0000 0.01340  0.50480  0.16880  Biso   1.000  O
  C515     1.0000 0.03670  0.50720  0.26597  Biso   1.000  C
  C516     1.0000 0.08290  0.52520  0.25311  Biso   1.000  C
  H347     1.0000 0.11320  0.53350  0.26320  Biso   1.000  H
  C517     1.0000 0.08330  0.53030  0.22674  Biso   1.000  C
  H348     1.0000 0.11580  0.53670  0.21810  Biso   1.000  H
  C518     1.0000 0.03870  0.52680  0.21162  Biso   1.000  C
  C519     1.0000 0.99210  0.50990  0.22357  Biso   1.000  C
  C520     1.0000 0.99180  0.50070  0.25119  Biso   1.000  C
  C521     1.0000 0.93800  0.50240  0.21110  Biso   1.000  C
  H349     1.0000 0.93800  0.50920  0.19160  Biso   1.000  H
  C522     1.0000 0.93720  0.48440  0.26060  Biso   1.000  C
  H350     1.0000 0.93670  0.47780  0.28010  Biso   1.000  H
  C523     1.0000 0.89970  0.53840  0.22640  Biso   1.000  C
  C524     1.0000 0.89950  0.52700  0.25310  Biso   1.000  C
  C525     1.0000 0.86340  0.55080  0.27020  Biso   1.000  C
  H351     1.0000 0.86080  0.54300  0.28860  Biso   1.000  H
  C526     1.0000 0.83080  0.58820  0.25690  Biso   1.000  C
  H352     1.0000 0.80230  0.60220  0.26670  Biso   1.000  H
  C527     1.0000 0.83650  0.60460  0.23300  Biso   1.000  C
  H353     1.0000 0.82190  0.63650  0.22670  Biso   1.000  H
  C528     1.0000 0.86530  0.57200  0.21770  Biso   1.000  C
  H354     1.0000 0.86000  0.57380  0.19910  Biso   1.000  H
  C529     1.0000 0.92340  0.44740  0.21780  Biso   1.000  C
  C530     1.0000 0.92200  0.43770  0.24570  Biso   1.000  C
  C531     1.0000 0.90740  0.38890  0.25480  Biso   1.000  C
  H355     1.0000 0.90460  0.38170  0.27320  Biso   1.000  H
  C532     1.0000 0.89670  0.34990  0.23560  Biso   1.000  C
  H356     1.0000 0.89330  0.31440  0.24100  Biso   1.000  H
  C533     1.0000 0.89120  0.36200  0.20980  Biso   1.000  C
  H357     1.0000 0.87630  0.33730  0.19790  Biso   1.000  H
  C534     1.0000 0.90720  0.41030  0.20080  Biso   1.000  C
  H358     1.0000 0.90670  0.41750  0.18230  Biso   1.000  H
  C535     1.0000 0.17120  0.46590  0.37160  Biso   1.000  C
  O111     1.0000 0.14910  0.43040  0.38500  Biso   1.000  O
  O112     1.0000 0.14930  0.49740  0.35600  Biso   1.000  O
  C536     1.0000 0.39810  0.45750  0.37580  Biso   1.000  C
  O113     1.0000 0.41740  0.44050  0.39622  Biso   1.000  O
  O114     1.0000 0.42280  0.46590  0.35462  Biso   1.000  O
  C537     1.0000 0.23000  0.47000  0.37280  Biso   1.000  C
  C538     1.0000 0.25650  0.43210  0.38810  Biso   1.000  C
  H359     1.0000 0.23590  0.40770  0.39780  Biso   1.000  H
  C539     1.0000 0.30870  0.42840  0.38980  Biso   1.000  C
  H360     1.0000 0.32470  0.40250  0.40070  Biso   1.000  H
  C540     1.0000 0.33940  0.46430  0.37500  Biso   1.000  C
  C541     1.0000 0.31620  0.50310  0.35950  Biso   1.000  C
  C542     1.0000 0.26030  0.50590  0.35950  Biso   1.000  C
  C543     1.0000 0.34240  0.54330  0.34170  Biso   1.000  C
  H361     1.0000 0.38120  0.53810  0.34040  Biso   1.000  H
  C544     1.0000 0.24320  0.55430  0.34410  Biso   1.000  C
  H362     1.0000 0.20430  0.55910  0.34500  Biso   1.000  H
  C545     1.0000 0.32730  0.59830  0.35310  Biso   1.000  C
  C546     1.0000 0.27140  0.60130  0.35510  Biso   1.000  C
  C547     1.0000 0.24820  0.64560  0.36600  Biso   1.000  C
  H363     1.0000 0.21130  0.65040  0.36700  Biso   1.000  H
  C548     1.0000 0.28480  0.68280  0.37550  Biso   1.000  C
  H364     1.0000 0.27130  0.71060  0.38610  Biso   1.000  H
  C549     1.0000 0.33510  0.68280  0.37130  Biso   1.000  C
  H365     1.0000 0.35590  0.71290  0.37480  Biso   1.000  H
  C550     1.0000 0.35760  0.63660  0.36120  Biso   1.000  C
  H366     1.0000 0.39460  0.63320  0.36020  Biso   1.000  H
  C551     1.0000 0.31560  0.53760  0.31540  Biso   1.000  C
  C552     1.0000 0.26090  0.54740  0.31640  Biso   1.000  C
  C553     1.0000 0.23380  0.54320  0.29280  Biso   1.000  C
  H367     1.0000 0.19680  0.54710  0.29260  Biso   1.000  H
  C554     1.0000 0.26160  0.53310  0.26890  Biso   1.000  C
  H368     1.0000 0.24390  0.53540  0.25240  Biso   1.000  H
  C555     1.0000 0.31250  0.52040  0.26950  Biso   1.000  C
  H369     1.0000 0.32880  0.50540  0.25440  Biso   1.000  H
  C556     1.0000 0.34080  0.52900  0.29190  Biso   1.000  C
  H370     1.0000 0.37800  0.52890  0.29120  Biso   1.000  H
  C557     1.0000 0.48340  0.09280  0.38170  Biso   1.000  C
  O115     1.0000 0.51820  0.06750  0.36946  Biso   1.000  O
  O116     1.0000 0.44440  0.07390  0.39309  Biso   1.000  O
  C558     1.0000 0.51520  0.31720  0.38210  Biso   1.000  C
  O117     1.0000 0.54950  0.33190  0.36671  Biso   1.000  O
  O118     1.0000 0.48830  0.34730  0.39640  Biso   1.000  O
  C559     1.0000 0.48980  0.15090  0.38290  Biso   1.000  C
  C560     1.0000 0.51170  0.17670  0.36100  Biso   1.000  C
  H371     1.0000 0.52210  0.15690  0.34600  Biso   1.000  H
  C561     1.0000 0.51820  0.22870  0.36100  Biso   1.000  C
  H372     1.0000 0.53170  0.24540  0.34560  Biso   1.000  H
  C562     1.0000 0.50540  0.25890  0.38320  Biso   1.000  C
  C563     1.0000 0.48250  0.23580  0.40545  Biso   1.000  C
  C564     1.0000 0.47410  0.18040  0.40460  Biso   1.000  C
  C565     1.0000 0.46310  0.26070  0.43050  Biso   1.000  C
  H373     1.0000 0.46660  0.29970  0.43040  Biso   1.000  H
  C566     1.0000 0.45220  0.16100  0.43060  Biso   1.000  C
  H374     1.0000 0.44770  0.12210  0.43050  Biso   1.000  H
  C567     1.0000 0.49400  0.23470  0.45370  Biso   1.000  C
  C568     1.0000 0.48900  0.17830  0.45220  Biso   1.000  C
  C569     1.0000 0.51550  0.14700  0.47050  Biso   1.000  C
  H375     1.0000 0.51380  0.10980  0.46990  Biso   1.000  H
  C570     1.0000 0.54520  0.17400  0.49000  Biso   1.000  C
  H376     1.0000 0.56060  0.15410  0.50390  Biso   1.000  H
  C571     1.0000 0.55240  0.22430  0.48990  Biso   1.000  C
  H377     1.0000 0.57500  0.24030  0.50250  Biso   1.000  H
  C572     1.0000 0.52600  0.25500  0.47070  Biso   1.000  C
  H378     1.0000 0.53200  0.29170  0.47030  Biso   1.000  H
  C573     1.0000 0.40700  0.24290  0.43360  Biso   1.000  C
  C574     1.0000 0.40160  0.18800  0.43450  Biso   1.000  C
  C575     1.0000 0.35240  0.16760  0.43640  Biso   1.000  C
  H379     1.0000 0.34810  0.13060  0.43680  Biso   1.000  H
  C576     1.0000 0.30650  0.20100  0.43810  Biso   1.000  C
  H380     1.0000 0.27220  0.18670  0.43860  Biso   1.000  H
  C577     1.0000 0.31450  0.25340  0.43890  Biso   1.000  C
  H381     1.0000 0.28530  0.27640  0.44020  Biso   1.000  H
  C578     1.0000 0.36460  0.27370  0.43800  Biso   1.000  C
  H382     1.0000 0.36950  0.31030  0.44040  Biso   1.000  H
  C579     1.0000 0.53950  0.44270  0.30670  Biso   1.000  C
  O119     1.0000 0.51240  0.48190  0.31578  Biso   1.000  O
  O120     1.0000 0.55650  0.40740  0.31963  Biso   1.000  O
  C580     1.0000 0.54940  0.44810  0.27840  Biso   1.000  C
  C581     1.0000 0.51530  0.48000  0.26310  Biso   1.000  C
  H383     1.0000 0.48820  0.49880  0.27180  Biso   1.000  H
  C582     1.0000 0.58270  0.41440  0.26340  Biso   1.000  C
  C583     1.0000 0.62170  0.37500  0.27550  Biso   1.000  C
  H384     1.0000 0.62020  0.37380  0.29530  Biso   1.000  H
  C584     1.0000 0.60780  0.32160  0.26231  Biso   1.000  C
  C585     1.0000 0.59100  0.27820  0.27660  Biso   1.000  C
  H385     1.0000 0.58870  0.27840  0.29530  Biso   1.000  H
  C586     1.0000 0.67690  0.39390  0.26460  Biso   1.000  C
  C587     1.0000 0.71900  0.40390  0.27970  Biso   1.000  C
  H386     1.0000 0.71760  0.40220  0.29850  Biso   1.000  H
  C588     1.0000 0.57800  0.23480  0.26170  Biso   1.000  C
  H387     1.0000 0.56530  0.20440  0.27050  Biso   1.000  H
  C589     1.0000 0.76630  0.41730  0.26580  Biso   1.000  C
  H388     1.0000 0.79800  0.42280  0.27520  Biso   1.000  H
  O121     1.0000 0.03230  0.45160  0.36246  Biso   1.000  O
  O122     1.0000 0.50830  0.43820  0.43670  Biso   1.000  O
  C590     1.0000 0.52960  0.48820  0.47270  Biso   1.000  C
  C591     1.0000 0.53660  0.47920  0.44400  Biso   1.000  C
  O123     1.0000 0.57050  0.50030  0.43190  Biso   1.000  O
  C592     1.0000 0.46700  0.49100  0.48590  Biso   1.000  C
  C593     1.0000 0.60100  0.56230  0.47900  Biso   1.000  C
  H389     1.0000 0.61490  0.55710  0.46060  Biso   1.000  H
  C594     1.0000 0.56130  0.60850  0.47990  Biso   1.000  C
  C595     1.0000 0.57400  0.65040  0.46390  Biso   1.000  C
  H390     1.0000 0.58840  0.64660  0.44670  Biso   1.000  H
  C596     1.0000 0.56200  0.69890  0.47510  Biso   1.000  C
  C597     1.0000 0.53890  0.54700  0.48410  Biso   1.000  C
  C598     1.0000 0.67830  0.54000  0.48450  Biso   1.000  C
  H391     1.0000 0.67840  0.53200  0.46620  Biso   1.000  H
  C599     1.0000 0.72430  0.53600  0.49900  Biso   1.000  C
  C600     1.0000 0.63270  0.55700  0.49610  Biso   1.000  C
  C601     1.0000 0.58920  0.57690  0.47590  Biso   1.000  C
  C602     1.0000 0.56840  0.51420  0.48800  Biso   1.000  C
  H392     1.0000 0.59900  0.57170  0.45690  Biso   1.000  H
  O124     1.0000 0.64910  0.54800  0.41180  Biso   1.000  O
  C603     1.0000 0.65720  0.59360  0.40400  Biso   1.000  C
  H393     1.0000 0.63380  0.60730  0.39110  Biso   1.000  H
  N14      1.0000 0.69560  0.62480  0.41210  Biso   1.000  N
  C604     1.0000 0.73400  0.60100  0.42990  Biso   1.000  C
  H394     1.0000 0.72400  0.56420  0.43310  Biso   1.000  H
  H395     1.0000 0.73440  0.61990  0.44670  Biso   1.000  H
  H396     1.0000 0.76870  0.60210  0.42170  Biso   1.000  H
  C605     1.0000 0.71130  0.67300  0.40380  Biso   1.000  C
  H397     1.0000 0.74470  0.68200  0.41230  Biso   1.000  H
  H398     1.0000 0.68470  0.69900  0.40870  Biso   1.000  H
  H399     1.0000 0.71580  0.67270  0.38450  Biso   1.000  H
  O125     1.0000 0.01920  0.39010  0.29830  Biso   1.000  O
  C606     1.0000 0.02700  0.34330  0.29370  Biso   1.000  C
  H400     1.0000 0.02300  0.31920  0.30790  Biso   1.000  H
  N15      1.0000 0.04070  0.32400  0.26980  Biso   1.000  N
  C607     1.0000 0.04990  0.36050  0.24830  Biso   1.000  C
  H401     1.0000 0.06840  0.34250  0.23390  Biso   1.000  H
  H402     1.0000 0.07140  0.38980  0.25470  Biso   1.000  H
  H403     1.0000 0.01630  0.37390  0.24180  Biso   1.000  H
  C608     1.0000 0.04540  0.27320  0.26280  Biso   1.000  C
  H404     1.0000 0.05150  0.27070  0.24370  Biso   1.000  H
  H405     1.0000 0.01310  0.25450  0.26740  Biso   1.000  H
  H406     1.0000 0.07500  0.25760  0.27240  Biso   1.000  H
  O126     1.0000 0.00610  0.35130  0.30740  Biso   1.000  O
  C609     1.0000 0.00700  0.35480  0.28290  Biso   1.000  C
  H407     1.0000 0.97560  0.36660  0.27480  Biso   1.000  H
  N16      1.0000 0.04700  0.34430  0.26620  Biso   1.000  N
  C610     1.0000 0.03800  0.35100  0.23810  Biso   1.000  C
  H408     1.0000 0.07100  0.34740  0.22850  Biso   1.000  H
  H409     1.0000 0.02350  0.38640  0.23490  Biso   1.000  H
  H410     1.0000 0.01280  0.32480  0.23180  Biso   1.000  H
  C611     1.0000 0.09700  0.33100  0.27190  Biso   1.000  C
  H411     1.0000 0.11670  0.32640  0.25540  Biso   1.000  H
  H412     1.0000 0.09750  0.29820  0.28200  Biso   1.000  H
  H413     1.0000 0.11330  0.35890  0.28240  Biso   1.000  H
  C612     1.0000 0.52160  0.48960  0.44410  Biso   1.000  C
  O127     1.0000 0.49130  0.44950  0.43780  Biso   1.000  O
  O128     1.0000 0.54790  0.51540  0.42940  Biso   1.000  O
  H414     1.0000 0.43140  0.49370  0.48070  Biso   1.000  H
  C613     1.0000 0.51150  0.50600  0.47170  Biso   1.000  C
  C614     1.0000 0.50470  0.45280  0.48910  Biso   1.000  C
  C615     1.0000 0.57000  0.63460  0.48230  Biso   1.000  C
  H415     1.0000 0.58710  0.71870  0.46540  Biso   1.000  H
  C616     1.0000 0.56600  0.67260  0.46450  Biso   1.000  C
  H416     1.0000 0.57630  0.66720  0.44660  Biso   1.000  H
  C617     1.0000 0.64740  0.56050  0.50040  Biso   1.000  C
  C618     1.0000 0.69680  0.55650  0.49200  Biso   1.000  C
  C619     1.0000 0.73820  0.54300  0.51100  Biso   1.000  C
  H417     1.0000 0.75590  0.52490  0.49060  Biso   1.000  H
  C620     1.0000 0.54700  0.72360  0.47370  Biso   1.000  C
  H418     1.0000 0.52860  0.77250  0.48760  Biso   1.000  H
  H419     1.0000 0.70520  0.56240  0.47390  Biso   1.000  H
  H420     1.0000 0.54170  0.75300  0.46240  Biso   1.000  H
  O129     1.0000 0.45630  0.53910  0.62185  Biso   1.000  O
  Zn33     1.0000 0.49466  0.49588  0.64746  Biso   1.000  Zn
  Zn34     1.0000 0.40977  0.00034  0.66604  Biso   1.000  Zn
  Zn35     1.0000 0.91096  0.42384  0.63569  Biso   1.000  Zn
  Zn36     1.0000 0.50226  0.07689  0.65438  Biso   1.000  Zn
  Zn37     1.0000 0.42268  0.49186  0.59759  Biso   1.000  Zn
  Zn38     1.0000 0.40190  0.57209  0.64221  Biso   1.000  Zn
  Zn39     1.0000 0.49084  0.98154  0.61774  Biso   1.000  Zn
  Zn40     1.0000 0.50684  0.58850  0.60729  Biso   1.000  Zn
  O130     1.0000 0.57290  0.63330  0.60340  Biso   1.000  O
  C621     1.0000 0.57850  0.67260  0.58870  Biso   1.000  C
  H421     1.0000 0.54850  0.68990  0.58190  Biso   1.000  H
  N17      1.0000 0.62680  0.69040  0.58260  Biso   1.000  N
  C622     1.0000 0.67140  0.66810  0.59550  Biso   1.000  C
  H422     1.0000 0.70290  0.68760  0.59040  Biso   1.000  H
  H423     1.0000 0.67520  0.63140  0.59020  Biso   1.000  H
  H424     1.0000 0.66670  0.67000  0.61470  Biso   1.000  H
  C623     1.0000 0.63990  0.73180  0.56630  Biso   1.000  C
  H425     1.0000 0.67780  0.73790  0.56720  Biso   1.000  H
  H426     1.0000 0.62130  0.76340  0.57210  Biso   1.000  H
  H427     1.0000 0.62990  0.72340  0.54800  Biso   1.000  H
  C624     1.0000 0.44760  0.89620  0.65080  Biso   1.000  C
  O131     1.0000 0.48340  0.91630  0.63620  Biso   1.000  O
  O132     1.0000 0.41870  0.92170  0.66592  Biso   1.000  O
  C625     1.0000 0.43520  0.67290  0.63240  Biso   1.000  C
  O133     1.0000 0.46770  0.65450  0.61760  Biso   1.000  O
  O134     1.0000 0.39970  0.64680  0.64300  Biso   1.000  O
  C626     1.0000 0.44210  0.83830  0.64830  Biso   1.000  C
  C627     1.0000 0.48710  0.80860  0.64370  Biso   1.000  C
  H428     1.0000 0.52050  0.82490  0.64460  Biso   1.000  H
  C628     1.0000 0.48390  0.75620  0.63790  Biso   1.000  C
  H429     1.0000 0.51480  0.73730  0.63360  Biso   1.000  H
  C629     1.0000 0.43550  0.73020  0.63840  Biso   1.000  C
  C630     1.0000 0.38960  0.75850  0.64340  Biso   1.000  C
  C631     1.0000 0.39420  0.81220  0.65010  Biso   1.000  C
  C632     1.0000 0.33300  0.73940  0.64241  Biso   1.000  C
  H430     1.0000 0.33030  0.70130  0.63800  Biso   1.000  H
  C633     1.0000 0.34090  0.83780  0.65424  Biso   1.000  C
  H431     1.0000 0.34360  0.87580  0.65900  Biso   1.000  H
  C634     1.0000 0.30450  0.77460  0.62210  Biso   1.000  C
  C635     1.0000 0.30870  0.82870  0.62940  Biso   1.000  C
  C636     1.0000 0.28360  0.86830  0.61490  Biso   1.000  C
  H432     1.0000 0.28510  0.90430  0.61970  Biso   1.000  H
  C637     1.0000 0.25540  0.84900  0.59220  Biso   1.000  C
  H433     1.0000 0.23630  0.87340  0.58180  Biso   1.000  H
  C638     1.0000 0.25460  0.80040  0.58540  Biso   1.000  C
  H434     1.0000 0.23680  0.79060  0.56960  Biso   1.000  H
  C639     1.0000 0.27930  0.76170  0.60050  Biso   1.000  C
  H435     1.0000 0.27770  0.72600  0.59520  Biso   1.000  H
  C640     1.0000 0.31020  0.75210  0.66920  Biso   1.000  C
  C641     1.0000 0.31540  0.80600  0.67550  Biso   1.000  C
  C642     1.0000 0.29720  0.82330  0.70010  Biso   1.000  C
  H436     1.0000 0.30060  0.85900  0.70520  Biso   1.000  H
  C643     1.0000 0.27330  0.78600  0.71740  Biso   1.000  C
  H437     1.0000 0.26070  0.79680  0.73420  Biso   1.000  H
  C644     1.0000 0.26870  0.73560  0.70990  Biso   1.000  C
  H438     1.0000 0.25340  0.71110  0.72180  Biso   1.000  H
  C645     1.0000 0.28550  0.71880  0.68570  Biso   1.000  C
  H439     1.0000 0.27980  0.68350  0.68050  Biso   1.000  H
  C646     1.0000 0.81700  0.47560  0.62080  Biso   1.000  C
  O135     1.0000 0.83950  0.50310  0.60320  Biso   1.000  O
  O136     1.0000 0.83580  0.43650  0.63287  Biso   1.000  O
  C647     1.0000 0.59450  0.51400  0.63200  Biso   1.000  C
  O137     1.0000 0.57220  0.53890  0.61630  Biso   1.000  O
  O138     1.0000 0.57050  0.48690  0.64920  Biso   1.000  O
  C648     1.0000 0.76080  0.48770  0.62554  Biso   1.000  C
  C649     1.0000 0.72900  0.50270  0.60440  Biso   1.000  C
  H440     1.0000 0.74480  0.50670  0.58750  Biso   1.000  H
  C650     1.0000 0.67800  0.51180  0.60660  Biso   1.000  C
  H441     1.0000 0.65820  0.52060  0.59130  Biso   1.000  H
  C651     1.0000 0.65300  0.50860  0.63150  Biso   1.000  C
  C652     1.0000 0.68380  0.49600  0.65360  Biso   1.000  C
  C653     1.0000 0.73750  0.48380  0.65014  Biso   1.000  C
  C654     1.0000 0.66600  0.49190  0.68258  Biso   1.000  C
  H442     1.0000 0.62760  0.49840  0.68490  Biso   1.000  H
  C655     1.0000 0.76460  0.47390  0.67705  Biso   1.000  C
  H443     1.0000 0.80290  0.46680  0.67490  Biso   1.000  H
  C656     1.0000 0.70090  0.53180  0.69810  Biso   1.000  C
  C657     1.0000 0.75500  0.51970  0.69480  Biso   1.000  C
  C658     1.0000 0.79420  0.55090  0.70650  Biso   1.000  C
  H444     1.0000 0.83060  0.54540  0.70360  Biso   1.000  H
  C659     1.0000 0.77460  0.59130  0.72330  Biso   1.000  C
  H445     1.0000 0.79920  0.61340  0.73190  Biso   1.000  H
  C660     1.0000 0.72510  0.59970  0.72750  Biso   1.000  C
  H446     1.0000 0.71450  0.62630  0.73950  Biso   1.000  H
  C661     1.0000 0.68750  0.56960  0.71430  Biso   1.000  C
  H447     1.0000 0.65140  0.57680  0.71710  Biso   1.000  H
  C662     1.0000 0.68230  0.43810  0.69156  Biso   1.000  C
  C663     1.0000 0.73670  0.42850  0.68880  Biso   1.000  C
  C664     1.0000 0.75670  0.37950  0.69590  Biso   1.000  C
  H448     1.0000 0.79210  0.37050  0.69220  Biso   1.000  H
  C665     1.0000 0.72180  0.34230  0.70920  Biso   1.000  C
  H449     1.0000 0.73440  0.30980  0.71570  Biso   1.000  H
  C666     1.0000 0.67210  0.35570  0.71190  Biso   1.000  C
  H450     1.0000 0.64930  0.33150  0.72030  Biso   1.000  H
  C667     1.0000 0.65090  0.40280  0.70310  Biso   1.000  C
  H451     1.0000 0.61460  0.40980  0.70530  Biso   1.000  H
  C668     1.0000 0.49720  0.04110  0.70511  Biso   1.000  C
  O139     1.0000 0.51620  0.07960  0.69262  Biso   1.000  O
  O140     1.0000 0.47670  0.00520  0.69290  Biso   1.000  O
  C669     1.0000 0.53100  0.04450  0.81789  Biso   1.000  C
  O141     1.0000 0.55760  0.08040  0.82626  Biso   1.000  O
  O142     1.0000 0.50480  0.01340  0.83120  Biso   1.000  O
  C670     1.0000 0.50720  0.03670  0.73403  Biso   1.000  C
  C671     1.0000 0.52520  0.08290  0.74689  Biso   1.000  C
  H452     1.0000 0.53350  0.11320  0.73680  Biso   1.000  H
  C672     1.0000 0.53030  0.08330  0.77326  Biso   1.000  C
  H453     1.0000 0.53670  0.11580  0.78190  Biso   1.000  H
  C673     1.0000 0.52680  0.03870  0.78838  Biso   1.000  C
  C674     1.0000 0.50990  0.99210  0.77643  Biso   1.000  C
  C675     1.0000 0.50070  0.99180  0.74881  Biso   1.000  C
  C676     1.0000 0.50240  0.93800  0.78890  Biso   1.000  C
  H454     1.0000 0.50920  0.93800  0.80840  Biso   1.000  H
  C677     1.0000 0.48440  0.93720  0.73940  Biso   1.000  C
  H455     1.0000 0.47780  0.93670  0.71990  Biso   1.000  H
  C678     1.0000 0.53840  0.89970  0.77360  Biso   1.000  C
  C679     1.0000 0.52700  0.89950  0.74690  Biso   1.000  C
  C680     1.0000 0.55080  0.86340  0.72980  Biso   1.000  C
  H456     1.0000 0.54300  0.86080  0.71140  Biso   1.000  H
  C681     1.0000 0.58820  0.83080  0.74310  Biso   1.000  C
  H457     1.0000 0.60220  0.80230  0.73330  Biso   1.000  H
  C682     1.0000 0.60460  0.83650  0.76700  Biso   1.000  C
  H458     1.0000 0.63650  0.82190  0.77330  Biso   1.000  H
  C683     1.0000 0.57200  0.86530  0.78230  Biso   1.000  C
  H459     1.0000 0.57380  0.86000  0.80090  Biso   1.000  H
  C684     1.0000 0.44740  0.92340  0.78220  Biso   1.000  C
  C685     1.0000 0.43770  0.92200  0.75430  Biso   1.000  C
  C686     1.0000 0.38890  0.90740  0.74520  Biso   1.000  C
  H460     1.0000 0.38170  0.90460  0.72680  Biso   1.000  H
  C687     1.0000 0.34990  0.89670  0.76440  Biso   1.000  C
  H461     1.0000 0.31440  0.89330  0.75900  Biso   1.000  H
  C688     1.0000 0.36200  0.89120  0.79020  Biso   1.000  C
  H462     1.0000 0.33730  0.87630  0.80210  Biso   1.000  H
  C689     1.0000 0.41030  0.90720  0.79920  Biso   1.000  C
  H463     1.0000 0.41750  0.90670  0.81770  Biso   1.000  H
  C690     1.0000 0.46590  0.17120  0.62840  Biso   1.000  C
  O143     1.0000 0.43040  0.14910  0.61500  Biso   1.000  O
  O144     1.0000 0.49740  0.14930  0.64400  Biso   1.000  O
  C691     1.0000 0.45750  0.39810  0.62420  Biso   1.000  C
  O145     1.0000 0.44050  0.41740  0.60378  Biso   1.000  O
  O146     1.0000 0.46590  0.42280  0.64538  Biso   1.000  O
  C692     1.0000 0.47000  0.23000  0.62720  Biso   1.000  C
  C693     1.0000 0.43210  0.25650  0.61190  Biso   1.000  C
  H464     1.0000 0.40770  0.23590  0.60220  Biso   1.000  H
  C694     1.0000 0.42840  0.30870  0.61020  Biso   1.000  C
  H465     1.0000 0.40250  0.32470  0.59930  Biso   1.000  H
  C695     1.0000 0.46430  0.33940  0.62500  Biso   1.000  C
  C696     1.0000 0.50310  0.31620  0.64050  Biso   1.000  C
  C697     1.0000 0.50590  0.26030  0.64050  Biso   1.000  C
  C698     1.0000 0.54330  0.34240  0.65830  Biso   1.000  C
  H466     1.0000 0.53810  0.38120  0.65960  Biso   1.000  H
  C699     1.0000 0.55430  0.24320  0.65590  Biso   1.000  C
  H467     1.0000 0.55910  0.20430  0.65500  Biso   1.000  H
  C700     1.0000 0.59830  0.32730  0.64690  Biso   1.000  C
  C701     1.0000 0.60130  0.27140  0.64490  Biso   1.000  C
  C702     1.0000 0.64560  0.24820  0.63400  Biso   1.000  C
  H468     1.0000 0.65040  0.21130  0.63300  Biso   1.000  H
  C703     1.0000 0.68280  0.28480  0.62450  Biso   1.000  C
  H469     1.0000 0.71060  0.27130  0.61390  Biso   1.000  H
  C704     1.0000 0.68280  0.33510  0.62870  Biso   1.000  C
  H470     1.0000 0.71290  0.35590  0.62520  Biso   1.000  H
  C705     1.0000 0.63660  0.35760  0.63880  Biso   1.000  C
  H471     1.0000 0.63320  0.39460  0.63980  Biso   1.000  H
  C706     1.0000 0.53760  0.31560  0.68460  Biso   1.000  C
  C707     1.0000 0.54740  0.26090  0.68360  Biso   1.000  C
  C708     1.0000 0.54320  0.23380  0.70720  Biso   1.000  C
  H472     1.0000 0.54710  0.19680  0.70740  Biso   1.000  H
  C709     1.0000 0.53310  0.26160  0.73110  Biso   1.000  C
  H473     1.0000 0.53540  0.24390  0.74760  Biso   1.000  H
  C710     1.0000 0.52040  0.31250  0.73050  Biso   1.000  C
  H474     1.0000 0.50540  0.32880  0.74560  Biso   1.000  H
  C711     1.0000 0.52900  0.34080  0.70810  Biso   1.000  C
  H475     1.0000 0.52890  0.37800  0.70880  Biso   1.000  H
  C712     1.0000 0.09280  0.48340  0.61830  Biso   1.000  C
  O147     1.0000 0.06750  0.51820  0.63054  Biso   1.000  O
  O148     1.0000 0.07390  0.44440  0.60691  Biso   1.000  O
  C713     1.0000 0.31720  0.51520  0.61790  Biso   1.000  C
  O149     1.0000 0.33190  0.54950  0.63329  Biso   1.000  O
  O150     1.0000 0.34730  0.48830  0.60360  Biso   1.000  O
  C714     1.0000 0.15090  0.48980  0.61710  Biso   1.000  C
  C715     1.0000 0.17670  0.51170  0.63900  Biso   1.000  C
  H476     1.0000 0.15690  0.52210  0.65400  Biso   1.000  H
  C716     1.0000 0.22870  0.51820  0.63900  Biso   1.000  C
  H477     1.0000 0.24540  0.53170  0.65440  Biso   1.000  H
  C717     1.0000 0.25890  0.50540  0.61680  Biso   1.000  C
  C718     1.0000 0.23580  0.48250  0.59455  Biso   1.000  C
  C719     1.0000 0.18040  0.47410  0.59540  Biso   1.000  C
  C720     1.0000 0.26070  0.46310  0.56950  Biso   1.000  C
  H478     1.0000 0.29970  0.46660  0.56960  Biso   1.000  H
  C721     1.0000 0.16100  0.45220  0.56940  Biso   1.000  C
  H479     1.0000 0.12210  0.44770  0.56950  Biso   1.000  H
  C722     1.0000 0.23470  0.49400  0.54630  Biso   1.000  C
  C723     1.0000 0.17830  0.48900  0.54780  Biso   1.000  C
  C724     1.0000 0.14700  0.51550  0.52950  Biso   1.000  C
  H480     1.0000 0.10980  0.51380  0.53010  Biso   1.000  H
  C725     1.0000 0.17400  0.54520  0.51000  Biso   1.000  C
  H481     1.0000 0.15410  0.56060  0.49610  Biso   1.000  H
  C726     1.0000 0.22430  0.55240  0.51010  Biso   1.000  C
  H482     1.0000 0.24030  0.57500  0.49750  Biso   1.000  H
  C727     1.0000 0.25500  0.52600  0.52930  Biso   1.000  C
  H483     1.0000 0.29170  0.53200  0.52970  Biso   1.000  H
  C728     1.0000 0.24290  0.40700  0.56640  Biso   1.000  C
  C729     1.0000 0.18800  0.40160  0.56550  Biso   1.000  C
  C730     1.0000 0.16760  0.35240  0.56360  Biso   1.000  C
  H484     1.0000 0.13060  0.34810  0.56320  Biso   1.000  H
  C731     1.0000 0.20100  0.30650  0.56190  Biso   1.000  C
  H485     1.0000 0.18670  0.27220  0.56140  Biso   1.000  H
  C732     1.0000 0.25340  0.31450  0.56110  Biso   1.000  C
  H486     1.0000 0.27640  0.28530  0.55980  Biso   1.000  H
  C733     1.0000 0.27370  0.36460  0.56200  Biso   1.000  C
  H487     1.0000 0.31030  0.36950  0.55960  Biso   1.000  H
  C734     1.0000 0.44270  0.53950  0.69330  Biso   1.000  C
  O151     1.0000 0.48190  0.51240  0.68422  Biso   1.000  O
  O152     1.0000 0.40740  0.55650  0.68037  Biso   1.000  O
  C735     1.0000 0.44810  0.54940  0.72160  Biso   1.000  C
  C736     1.0000 0.48000  0.51530  0.73690  Biso   1.000  C
  H488     1.0000 0.49880  0.48820  0.72820  Biso   1.000  H
  C737     1.0000 0.41440  0.58270  0.73660  Biso   1.000  C
  C738     1.0000 0.37500  0.62170  0.72450  Biso   1.000  C
  H489     1.0000 0.37380  0.62020  0.70470  Biso   1.000  H
  C739     1.0000 0.32160  0.60780  0.73769  Biso   1.000  C
  C740     1.0000 0.27820  0.59100  0.72340  Biso   1.000  C
  H490     1.0000 0.27840  0.58870  0.70470  Biso   1.000  H
  C741     1.0000 0.39390  0.67690  0.73540  Biso   1.000  C
  C742     1.0000 0.40390  0.71900  0.72030  Biso   1.000  C
  H491     1.0000 0.40220  0.71760  0.70150  Biso   1.000  H
  C743     1.0000 0.23480  0.57800  0.73830  Biso   1.000  C
  H492     1.0000 0.20440  0.56530  0.72950  Biso   1.000  H
  C744     1.0000 0.41730  0.76630  0.73420  Biso   1.000  C
  H493     1.0000 0.42280  0.79800  0.72480  Biso   1.000  H
  O153     1.0000 0.45160  0.03230  0.63754  Biso   1.000  O
  O154     1.0000 0.43820  0.50830  0.56330  Biso   1.000  O
  C745     1.0000 0.48820  0.52960  0.52730  Biso   1.000  C
  C746     1.0000 0.47920  0.53660  0.55600  Biso   1.000  C
  O155     1.0000 0.50030  0.57050  0.56810  Biso   1.000  O
  C747     1.0000 0.49100  0.46700  0.51410  Biso   1.000  C
  C748     1.0000 0.56230  0.60100  0.52100  Biso   1.000  C
  H494     1.0000 0.55710  0.61490  0.53940  Biso   1.000  H
  C749     1.0000 0.60850  0.56130  0.52010  Biso   1.000  C
  C750     1.0000 0.65040  0.57400  0.53610  Biso   1.000  C
  H495     1.0000 0.64660  0.58840  0.55330  Biso   1.000  H
  C751     1.0000 0.69890  0.56200  0.52490  Biso   1.000  C
  C752     1.0000 0.54700  0.53890  0.51590  Biso   1.000  C
  C753     1.0000 0.54000  0.67830  0.51550  Biso   1.000  C
  H496     1.0000 0.53200  0.67840  0.53380  Biso   1.000  H
  C754     1.0000 0.53600  0.72430  0.50100  Biso   1.000  C
  C755     1.0000 0.55700  0.63270  0.50390  Biso   1.000  C
  C756     1.0000 0.57690  0.58920  0.52410  Biso   1.000  C
  C757     1.0000 0.51420  0.56840  0.51200  Biso   1.000  C
  H497     1.0000 0.57170  0.59900  0.54310  Biso   1.000  H
  O156     1.0000 0.54800  0.64910  0.58820  Biso   1.000  O
  C758     1.0000 0.59360  0.65720  0.59600  Biso   1.000  C
  H498     1.0000 0.60730  0.63380  0.60890  Biso   1.000  H
  N18      1.0000 0.62480  0.69560  0.58790  Biso   1.000  N
  C759     1.0000 0.60100  0.73400  0.57010  Biso   1.000  C
  H499     1.0000 0.56420  0.72400  0.56690  Biso   1.000  H
  H500     1.0000 0.61990  0.73440  0.55330  Biso   1.000  H
  H501     1.0000 0.60210  0.76870  0.57830  Biso   1.000  H
  C760     1.0000 0.67300  0.71130  0.59620  Biso   1.000  C
  H502     1.0000 0.68200  0.74470  0.58770  Biso   1.000  H
  H503     1.0000 0.69900  0.68470  0.59130  Biso   1.000  H
  H504     1.0000 0.67270  0.71580  0.61550  Biso   1.000  H
  O157     1.0000 0.39010  0.01920  0.70170  Biso   1.000  O
  C761     1.0000 0.34330  0.02700  0.70630  Biso   1.000  C
  H505     1.0000 0.31920  0.02300  0.69210  Biso   1.000  H
  N19      1.0000 0.32400  0.04070  0.73020  Biso   1.000  N
  C762     1.0000 0.36050  0.04990  0.75170  Biso   1.000  C
  H506     1.0000 0.34250  0.06840  0.76610  Biso   1.000  H
  H507     1.0000 0.38980  0.07140  0.74530  Biso   1.000  H
  H508     1.0000 0.37390  0.01630  0.75820  Biso   1.000  H
  C763     1.0000 0.27320  0.04540  0.73720  Biso   1.000  C
  H509     1.0000 0.27070  0.05150  0.75630  Biso   1.000  H
  H510     1.0000 0.25450  0.01310  0.73260  Biso   1.000  H
  H511     1.0000 0.25760  0.07500  0.72760  Biso   1.000  H
  O158     1.0000 0.35130  0.00610  0.69260  Biso   1.000  O
  C764     1.0000 0.35480  0.00700  0.71710  Biso   1.000  C
  H512     1.0000 0.36660  0.97560  0.72520  Biso   1.000  H
  N20      1.0000 0.34430  0.04700  0.73380  Biso   1.000  N
  C765     1.0000 0.35100  0.03800  0.76190  Biso   1.000  C
  H513     1.0000 0.34740  0.07100  0.77150  Biso   1.000  H
  H514     1.0000 0.38640  0.02350  0.76510  Biso   1.000  H
  H515     1.0000 0.32480  0.01280  0.76820  Biso   1.000  H
  C766     1.0000 0.33100  0.09700  0.72810  Biso   1.000  C
  H516     1.0000 0.32640  0.11670  0.74460  Biso   1.000  H
  H517     1.0000 0.29820  0.09750  0.71800  Biso   1.000  H
  H518     1.0000 0.35890  0.11330  0.71760  Biso   1.000  H
  C767     1.0000 0.48960  0.52160  0.55590  Biso   1.000  C
  O159     1.0000 0.44950  0.49130  0.56220  Biso   1.000  O
  O160     1.0000 0.51540  0.54790  0.57060  Biso   1.000  O
  H519     1.0000 0.49370  0.43140  0.51930  Biso   1.000  H
  C768     1.0000 0.50600  0.51150  0.52830  Biso   1.000  C
  C769     1.0000 0.45280  0.50470  0.51090  Biso   1.000  C
  C770     1.0000 0.63460  0.57000  0.51770  Biso   1.000  C
  H520     1.0000 0.71870  0.58710  0.53460  Biso   1.000  H
  C771     1.0000 0.67260  0.56600  0.53550  Biso   1.000  C
  H521     1.0000 0.66720  0.57630  0.55340  Biso   1.000  H
  C772     1.0000 0.56050  0.64740  0.49960  Biso   1.000  C
  C773     1.0000 0.55650  0.69680  0.50800  Biso   1.000  C
  C774     1.0000 0.54300  0.73820  0.48900  Biso   1.000  C
  H522     1.0000 0.52490  0.75590  0.50940  Biso   1.000  H
  C775     1.0000 0.72360  0.54700  0.52630  Biso   1.000  C
  H523     1.0000 0.77250  0.52860  0.51240  Biso   1.000  H
  H524     1.0000 0.56240  0.70520  0.52610  Biso   1.000  H
  H525     1.0000 0.75300  0.54170  0.53760  Biso   1.000  H
  O161     1.0000 0.54370  0.46090  0.12185  Biso   1.000  O
  Zn41     1.0000 0.50534  0.50412  0.14746  Biso   1.000  Zn
  Zn42     1.0000 0.59023  0.99966  0.16604  Biso   1.000  Zn
  Zn43     1.0000 0.08904  0.57616  0.13569  Biso   1.000  Zn
  Zn44     1.0000 0.49774  0.92311  0.15438  Biso   1.000  Zn
  Zn45     1.0000 0.57732  0.50814  0.09759  Biso   1.000  Zn
  Zn46     1.0000 0.59810  0.42791  0.14221  Biso   1.000  Zn
  Zn47     1.0000 0.50916  0.01846  0.11774  Biso   1.000  Zn
  Zn48     1.0000 0.49316  0.41150  0.10729  Biso   1.000  Zn
  O162     1.0000 0.42710  0.36670  0.10340  Biso   1.000  O
  C776     1.0000 0.42150  0.32740  0.08870  Biso   1.000  C
  H526     1.0000 0.45150  0.31010  0.08190  Biso   1.000  H
  N21      1.0000 0.37320  0.30960  0.08260  Biso   1.000  N
  C777     1.0000 0.32860  0.33190  0.09550  Biso   1.000  C
  H527     1.0000 0.29710  0.31240  0.09040  Biso   1.000  H
  H528     1.0000 0.32480  0.36860  0.09020  Biso   1.000  H
  H529     1.0000 0.33330  0.33000  0.11470  Biso   1.000  H
  C778     1.0000 0.36010  0.26820  0.06630  Biso   1.000  C
  H530     1.0000 0.32220  0.26210  0.06720  Biso   1.000  H
  H531     1.0000 0.37870  0.23660  0.07210  Biso   1.000  H
  H532     1.0000 0.37010  0.27660  0.04800  Biso   1.000  H
  C779     1.0000 0.55240  0.10380  0.15080  Biso   1.000  C
  O163     1.0000 0.51660  0.08370  0.13620  Biso   1.000  O
  O164     1.0000 0.58130  0.07830  0.16592  Biso   1.000  O
  C780     1.0000 0.56480  0.32710  0.13240  Biso   1.000  C
  O165     1.0000 0.53230  0.34550  0.11760  Biso   1.000  O
  O166     1.0000 0.60030  0.35320  0.14300  Biso   1.000  O
  C781     1.0000 0.55790  0.16170  0.14830  Biso   1.000  C
  C782     1.0000 0.51290  0.19140  0.14370  Biso   1.000  C
  H533     1.0000 0.47950  0.17510  0.14460  Biso   1.000  H
  C783     1.0000 0.51610  0.24380  0.13790  Biso   1.000  C
  H534     1.0000 0.48520  0.26270  0.13360  Biso   1.000  H
  C784     1.0000 0.56450  0.26980  0.13840  Biso   1.000  C
  C785     1.0000 0.61040  0.24150  0.14340  Biso   1.000  C
  C786     1.0000 0.60580  0.18780  0.15010  Biso   1.000  C
  C787     1.0000 0.66700  0.26060  0.14241  Biso   1.000  C
  H535     1.0000 0.66970  0.29870  0.13800  Biso   1.000  H
  C788     1.0000 0.65910  0.16220  0.15424  Biso   1.000  C
  H536     1.0000 0.65640  0.12420  0.15900  Biso   1.000  H
  C789     1.0000 0.69550  0.22540  0.12210  Biso   1.000  C
  C790     1.0000 0.69130  0.17130  0.12940  Biso   1.000  C
  C791     1.0000 0.71640  0.13170  0.11490  Biso   1.000  C
  H537     1.0000 0.71490  0.09570  0.11970  Biso   1.000  H
  C792     1.0000 0.74460  0.15100  0.09220  Biso   1.000  C
  H538     1.0000 0.76370  0.12660  0.08180  Biso   1.000  H
  C793     1.0000 0.74540  0.19960  0.08540  Biso   1.000  C
  H539     1.0000 0.76320  0.20940  0.06960  Biso   1.000  H
  C794     1.0000 0.72070  0.23830  0.10050  Biso   1.000  C
  H540     1.0000 0.72230  0.27400  0.09520  Biso   1.000  H
  C795     1.0000 0.68980  0.24790  0.16920  Biso   1.000  C
  C796     1.0000 0.68460  0.19400  0.17550  Biso   1.000  C
  C797     1.0000 0.70280  0.17670  0.20010  Biso   1.000  C
  H541     1.0000 0.69940  0.14100  0.20520  Biso   1.000  H
  C798     1.0000 0.72670  0.21400  0.21740  Biso   1.000  C
  H542     1.0000 0.73930  0.20320  0.23420  Biso   1.000  H
  C799     1.0000 0.73130  0.26440  0.20990  Biso   1.000  C
  H543     1.0000 0.74660  0.28890  0.22180  Biso   1.000  H
  C800     1.0000 0.71450  0.28120  0.18570  Biso   1.000  C
  H544     1.0000 0.72020  0.31650  0.18050  Biso   1.000  H
  C801     1.0000 0.18300  0.52440  0.12080  Biso   1.000  C
  O167     1.0000 0.16050  0.49690  0.10320  Biso   1.000  O
  O168     1.0000 0.16420  0.56350  0.13287  Biso   1.000  O
  C802     1.0000 0.40550  0.48600  0.13200  Biso   1.000  C
  O169     1.0000 0.42780  0.46110  0.11630  Biso   1.000  O
  O170     1.0000 0.42950  0.51310  0.14920  Biso   1.000  O
  C803     1.0000 0.23920  0.51230  0.12554  Biso   1.000  C
  C804     1.0000 0.27100  0.49730  0.10440  Biso   1.000  C
  H545     1.0000 0.25520  0.49330  0.08750  Biso   1.000  H
  C805     1.0000 0.32200  0.48820  0.10660  Biso   1.000  C
  H546     1.0000 0.34180  0.47940  0.09130  Biso   1.000  H
  C806     1.0000 0.34700  0.49140  0.13150  Biso   1.000  C
  C807     1.0000 0.31620  0.50400  0.15360  Biso   1.000  C
  C808     1.0000 0.26250  0.51620  0.15014  Biso   1.000  C
  C809     1.0000 0.33400  0.50810  0.18258  Biso   1.000  C
  H547     1.0000 0.37240  0.50160  0.18490  Biso   1.000  H
  C810     1.0000 0.23540  0.52610  0.17705  Biso   1.000  C
  H548     1.0000 0.19710  0.53320  0.17490  Biso   1.000  H
  C811     1.0000 0.29910  0.46820  0.19810  Biso   1.000  C
  C812     1.0000 0.24500  0.48030  0.19480  Biso   1.000  C
  C813     1.0000 0.20580  0.44910  0.20650  Biso   1.000  C
  H549     1.0000 0.16940  0.45460  0.20360  Biso   1.000  H
  C814     1.0000 0.22540  0.40870  0.22330  Biso   1.000  C
  H550     1.0000 0.20080  0.38660  0.23190  Biso   1.000  H
  C815     1.0000 0.27490  0.40030  0.22750  Biso   1.000  C
  H551     1.0000 0.28550  0.37370  0.23950  Biso   1.000  H
  C816     1.0000 0.31250  0.43040  0.21430  Biso   1.000  C
  H552     1.0000 0.34860  0.42320  0.21710  Biso   1.000  H
  C817     1.0000 0.31770  0.56190  0.19156  Biso   1.000  C
  C818     1.0000 0.26330  0.57150  0.18880  Biso   1.000  C
  C819     1.0000 0.24330  0.62050  0.19590  Biso   1.000  C
  H553     1.0000 0.20790  0.62950  0.19220  Biso   1.000  H
  C820     1.0000 0.27820  0.65770  0.20920  Biso   1.000  C
  H554     1.0000 0.26560  0.69020  0.21570  Biso   1.000  H
  C821     1.0000 0.32790  0.64430  0.21190  Biso   1.000  C
  H555     1.0000 0.35070  0.66850  0.22030  Biso   1.000  H
  C822     1.0000 0.34910  0.59720  0.20310  Biso   1.000  C
  H556     1.0000 0.38540  0.59020  0.20530  Biso   1.000  H
  C823     1.0000 0.50280  0.95890  0.20511  Biso   1.000  C
  O171     1.0000 0.48380  0.92040  0.19262  Biso   1.000  O
  O172     1.0000 0.52330  0.99480  0.19290  Biso   1.000  O
  C824     1.0000 0.46900  0.95550  0.31789  Biso   1.000  C
  O173     1.0000 0.44240  0.91960  0.32626  Biso   1.000  O
  O174     1.0000 0.49520  0.98660  0.33120  Biso   1.000  O
  C825     1.0000 0.49280  0.96330  0.23403  Biso   1.000  C
  C826     1.0000 0.47480  0.91710  0.24689  Biso   1.000  C
  H557     1.0000 0.46650  0.88680  0.23680  Biso   1.000  H
  C827     1.0000 0.46970  0.91670  0.27326  Biso   1.000  C
  H558     1.0000 0.46330  0.88420  0.28190  Biso   1.000  H
  C828     1.0000 0.47320  0.96130  0.28838  Biso   1.000  C
  C829     1.0000 0.49010  0.00790  0.27643  Biso   1.000  C
  C830     1.0000 0.49930  0.00820  0.24881  Biso   1.000  C
  C831     1.0000 0.49760  0.06200  0.28890  Biso   1.000  C
  H559     1.0000 0.49080  0.06200  0.30840  Biso   1.000  H
  C832     1.0000 0.51560  0.06280  0.23940  Biso   1.000  C
  H560     1.0000 0.52220  0.06330  0.21990  Biso   1.000  H
  C833     1.0000 0.46160  0.10030  0.27360  Biso   1.000  C
  C834     1.0000 0.47300  0.10050  0.24690  Biso   1.000  C
  C835     1.0000 0.44920  0.13660  0.22980  Biso   1.000  C
  H561     1.0000 0.45700  0.13920  0.21140  Biso   1.000  H
  C836     1.0000 0.41180  0.16920  0.24310  Biso   1.000  C
  H562     1.0000 0.39780  0.19770  0.23330  Biso   1.000  H
  C837     1.0000 0.39540  0.16350  0.26700  Biso   1.000  C
  H563     1.0000 0.36350  0.17810  0.27330  Biso   1.000  H
  C838     1.0000 0.42800  0.13470  0.28230  Biso   1.000  C
  H564     1.0000 0.42620  0.14000  0.30090  Biso   1.000  H
  C839     1.0000 0.55260  0.07660  0.28220  Biso   1.000  C
  C840     1.0000 0.56230  0.07800  0.25430  Biso   1.000  C
  C841     1.0000 0.61110  0.09260  0.24520  Biso   1.000  C
  H565     1.0000 0.61830  0.09540  0.22680  Biso   1.000  H
  C842     1.0000 0.65010  0.10330  0.26440  Biso   1.000  C
  H566     1.0000 0.68560  0.10670  0.25900  Biso   1.000  H
  C843     1.0000 0.63800  0.10880  0.29020  Biso   1.000  C
  H567     1.0000 0.66270  0.12370  0.30210  Biso   1.000  H
  C844     1.0000 0.58970  0.09280  0.29920  Biso   1.000  C
  H568     1.0000 0.58250  0.09330  0.31770  Biso   1.000  H
  C845     1.0000 0.53410  0.82880  0.12840  Biso   1.000  C
  O175     1.0000 0.56960  0.85090  0.11500  Biso   1.000  O
  O176     1.0000 0.50260  0.85070  0.14400  Biso   1.000  O
  C846     1.0000 0.54250  0.60190  0.12420  Biso   1.000  C
  O177     1.0000 0.55950  0.58260  0.10378  Biso   1.000  O
  O178     1.0000 0.53410  0.57720  0.14538  Biso   1.000  O
  C847     1.0000 0.53000  0.77000  0.12720  Biso   1.000  C
  C848     1.0000 0.56790  0.74350  0.11190  Biso   1.000  C
  H569     1.0000 0.59230  0.76410  0.10220  Biso   1.000  H
  C849     1.0000 0.57160  0.69130  0.11020  Biso   1.000  C
  H570     1.0000 0.59750  0.67530  0.09930  Biso   1.000  H
  C850     1.0000 0.53570  0.66060  0.12500  Biso   1.000  C
  C851     1.0000 0.49690  0.68380  0.14050  Biso   1.000  C
  C852     1.0000 0.49410  0.73970  0.14050  Biso   1.000  C
  C853     1.0000 0.45670  0.65760  0.15830  Biso   1.000  C
  H571     1.0000 0.46190  0.61880  0.15960  Biso   1.000  H
  C854     1.0000 0.44570  0.75680  0.15590  Biso   1.000  C
  H572     1.0000 0.44090  0.79570  0.15500  Biso   1.000  H
  C855     1.0000 0.40170  0.67270  0.14690  Biso   1.000  C
  C856     1.0000 0.39870  0.72860  0.14490  Biso   1.000  C
  C857     1.0000 0.35440  0.75180  0.13400  Biso   1.000  C
  H573     1.0000 0.34960  0.78870  0.13300  Biso   1.000  H
  C858     1.0000 0.31720  0.71520  0.12450  Biso   1.000  C
  H574     1.0000 0.28940  0.72870  0.11390  Biso   1.000  H
  C859     1.0000 0.31720  0.66490  0.12870  Biso   1.000  C
  H575     1.0000 0.28710  0.64410  0.12520  Biso   1.000  H
  C860     1.0000 0.36340  0.64240  0.13880  Biso   1.000  C
  H576     1.0000 0.36680  0.60540  0.13980  Biso   1.000  H
  C861     1.0000 0.46240  0.68440  0.18460  Biso   1.000  C
  C862     1.0000 0.45260  0.73910  0.18360  Biso   1.000  C
  C863     1.0000 0.45680  0.76620  0.20720  Biso   1.000  C
  H577     1.0000 0.45290  0.80320  0.20740  Biso   1.000  H
  C864     1.0000 0.46690  0.73840  0.23110  Biso   1.000  C
  H578     1.0000 0.46460  0.75610  0.24760  Biso   1.000  H
  C865     1.0000 0.47960  0.68750  0.23050  Biso   1.000  C
  H579     1.0000 0.49460  0.67120  0.24560  Biso   1.000  H
  C866     1.0000 0.47100  0.65920  0.20810  Biso   1.000  C
  H580     1.0000 0.47110  0.62200  0.20880  Biso   1.000  H
  C867     1.0000 0.90720  0.51660  0.11830  Biso   1.000  C
  O179     1.0000 0.93250  0.48180  0.13054  Biso   1.000  O
  O180     1.0000 0.92610  0.55560  0.10691  Biso   1.000  O
  C868     1.0000 0.68280  0.48480  0.11790  Biso   1.000  C
  O181     1.0000 0.66810  0.45050  0.13329  Biso   1.000  O
  O182     1.0000 0.65270  0.51170  0.10360  Biso   1.000  O
  C869     1.0000 0.84910  0.51020  0.11710  Biso   1.000  C
  C870     1.0000 0.82330  0.48830  0.13900  Biso   1.000  C
  H581     1.0000 0.84310  0.47790  0.15400  Biso   1.000  H
  C871     1.0000 0.77130  0.48180  0.13900  Biso   1.000  C
  H582     1.0000 0.75460  0.46830  0.15440  Biso   1.000  H
  C872     1.0000 0.74110  0.49460  0.11680  Biso   1.000  C
  C873     1.0000 0.76420  0.51750  0.09455  Biso   1.000  C
  C874     1.0000 0.81960  0.52590  0.09540  Biso   1.000  C
  C875     1.0000 0.73930  0.53690  0.06950  Biso   1.000  C
  H583     1.0000 0.70030  0.53340  0.06960  Biso   1.000  H
  C876     1.0000 0.83900  0.54780  0.06940  Biso   1.000  C
  H584     1.0000 0.87790  0.55230  0.06950  Biso   1.000  H
  C877     1.0000 0.76530  0.50600  0.04630  Biso   1.000  C
  C878     1.0000 0.82170  0.51100  0.04780  Biso   1.000  C
  C879     1.0000 0.85300  0.48450  0.02950  Biso   1.000  C
  H585     1.0000 0.89020  0.48620  0.03010  Biso   1.000  H
  C880     1.0000 0.82600  0.45480  0.01000  Biso   1.000  C
  H586     1.0000 0.84590  0.43940  0.99610  Biso   1.000  H
  C881     1.0000 0.77570  0.44760  0.01010  Biso   1.000  C
  H587     1.0000 0.75970  0.42500  0.99750  Biso   1.000  H
  C882     1.0000 0.74500  0.47400  0.02930  Biso   1.000  C
  H588     1.0000 0.70830  0.46800  0.02970  Biso   1.000  H
  C883     1.0000 0.75710  0.59300  0.06640  Biso   1.000  C
  C884     1.0000 0.81200  0.59840  0.06550  Biso   1.000  C
  C885     1.0000 0.83240  0.64760  0.06360  Biso   1.000  C
  H589     1.0000 0.86940  0.65190  0.06320  Biso   1.000  H
  C886     1.0000 0.79900  0.69350  0.06190  Biso   1.000  C
  H590     1.0000 0.81330  0.72780  0.06140  Biso   1.000  H
  C887     1.0000 0.74660  0.68550  0.06110  Biso   1.000  C
  H591     1.0000 0.72360  0.71470  0.05980  Biso   1.000  H
  C888     1.0000 0.72630  0.63540  0.06200  Biso   1.000  C
  H592     1.0000 0.68970  0.63050  0.05960  Biso   1.000  H
  C889     1.0000 0.55730  0.46050  0.19330  Biso   1.000  C
  O183     1.0000 0.51810  0.48760  0.18422  Biso   1.000  O
  O184     1.0000 0.59260  0.44350  0.18037  Biso   1.000  O
  C890     1.0000 0.55190  0.45060  0.22160  Biso   1.000  C
  C891     1.0000 0.52000  0.48470  0.23690  Biso   1.000  C
  H593     1.0000 0.50120  0.51180  0.22820  Biso   1.000  H
  C892     1.0000 0.58560  0.41730  0.23660  Biso   1.000  C
  C893     1.0000 0.62500  0.37830  0.22450  Biso   1.000  C
  H594     1.0000 0.62620  0.37980  0.20470  Biso   1.000  H
  C894     1.0000 0.67840  0.39220  0.23769  Biso   1.000  C
  C895     1.0000 0.72180  0.40900  0.22340  Biso   1.000  C
  H595     1.0000 0.72160  0.41130  0.20470  Biso   1.000  H
  C896     1.0000 0.60610  0.32310  0.23540  Biso   1.000  C
  C897     1.0000 0.59610  0.28100  0.22030  Biso   1.000  C
  H596     1.0000 0.59780  0.28240  0.20150  Biso   1.000  H
  C898     1.0000 0.76520  0.42200  0.23830  Biso   1.000  C
  H597     1.0000 0.79560  0.43470  0.22950  Biso   1.000  H
  C899     1.0000 0.58270  0.23370  0.23420  Biso   1.000  C
  H598     1.0000 0.57720  0.20200  0.22480  Biso   1.000  H
  O185     1.0000 0.54840  0.96770  0.13754  Biso   1.000  O
  O186     1.0000 0.56180  0.49170  0.06330  Biso   1.000  O
  C900     1.0000 0.51180  0.47040  0.02730  Biso   1.000  C
  C901     1.0000 0.52080  0.46340  0.05600  Biso   1.000  C
  O187     1.0000 0.49970  0.42950  0.06810  Biso   1.000  O
  C902     1.0000 0.50900  0.53300  0.01410  Biso   1.000  C
  C903     1.0000 0.43770  0.39900  0.02100  Biso   1.000  C
  H599     1.0000 0.44290  0.38510  0.03940  Biso   1.000  H
  C904     1.0000 0.39150  0.43870  0.02010  Biso   1.000  C
  C905     1.0000 0.34960  0.42600  0.03610  Biso   1.000  C
  H600     1.0000 0.35340  0.41160  0.05330  Biso   1.000  H
  C906     1.0000 0.30110  0.43800  0.02490  Biso   1.000  C
  C907     1.0000 0.45300  0.46110  0.01590  Biso   1.000  C
  C908     1.0000 0.46000  0.32170  0.01550  Biso   1.000  C
  H601     1.0000 0.46800  0.32160  0.03380  Biso   1.000  H
  C909     1.0000 0.46400  0.27570  0.00100  Biso   1.000  C
  C910     1.0000 0.44300  0.36730  0.00390  Biso   1.000  C
  C911     1.0000 0.42310  0.41080  0.02410  Biso   1.000  C
  C912     1.0000 0.48580  0.43160  0.01200  Biso   1.000  C
  H602     1.0000 0.42830  0.40100  0.04310  Biso   1.000  H
  O188     1.0000 0.45200  0.35090  0.08820  Biso   1.000  O
  C913     1.0000 0.40640  0.34280  0.09600  Biso   1.000  C
  H603     1.0000 0.39270  0.36620  0.10890  Biso   1.000  H
  N22      1.0000 0.37520  0.30440  0.08790  Biso   1.000  N
  C914     1.0000 0.39900  0.26600  0.07010  Biso   1.000  C
  H604     1.0000 0.43580  0.27600  0.06690  Biso   1.000  H
  H605     1.0000 0.38010  0.26560  0.05330  Biso   1.000  H
  H606     1.0000 0.39790  0.23130  0.07830  Biso   1.000  H
  C915     1.0000 0.32700  0.28870  0.09620  Biso   1.000  C
  H607     1.0000 0.31800  0.25530  0.08770  Biso   1.000  H
  H608     1.0000 0.30100  0.31530  0.09130  Biso   1.000  H
  H609     1.0000 0.32730  0.28420  0.11550  Biso   1.000  H
  O189     1.0000 0.60990  0.98080  0.20170  Biso   1.000  O
  C916     1.0000 0.65670  0.97300  0.20630  Biso   1.000  C
  H610     1.0000 0.68080  0.97700  0.19210  Biso   1.000  H
  N23      1.0000 0.67600  0.95930  0.23020  Biso   1.000  N
  C917     1.0000 0.63950  0.95010  0.25170  Biso   1.000  C
  H611     1.0000 0.65750  0.93160  0.26610  Biso   1.000  H
  H612     1.0000 0.61020  0.92860  0.24530  Biso   1.000  H
  H613     1.0000 0.62610  0.98370  0.25820  Biso   1.000  H
  C918     1.0000 0.72680  0.95460  0.23720  Biso   1.000  C
  H614     1.0000 0.72930  0.94850  0.25630  Biso   1.000  H
  H615     1.0000 0.74550  0.98690  0.23260  Biso   1.000  H
  H616     1.0000 0.74240  0.92500  0.22760  Biso   1.000  H
  O190     1.0000 0.64870  0.99390  0.19260  Biso   1.000  O
  C919     1.0000 0.64520  0.99300  0.21710  Biso   1.000  C
  H617     1.0000 0.63340  0.02440  0.22520  Biso   1.000  H
  N24      1.0000 0.65570  0.95300  0.23380  Biso   1.000  N
  C920     1.0000 0.64900  0.96200  0.26190  Biso   1.000  C
  H618     1.0000 0.65260  0.92900  0.27150  Biso   1.000  H
  H619     1.0000 0.61360  0.97650  0.26510  Biso   1.000  H
  H620     1.0000 0.67520  0.98720  0.26820  Biso   1.000  H
  C921     1.0000 0.66900  0.90300  0.22810  Biso   1.000  C
  H621     1.0000 0.67360  0.88330  0.24460  Biso   1.000  H
  H622     1.0000 0.70180  0.90250  0.21800  Biso   1.000  H
  H623     1.0000 0.64110  0.88670  0.21760  Biso   1.000  H
  C922     1.0000 0.51040  0.47840  0.05590  Biso   1.000  C
  O191     1.0000 0.55050  0.50870  0.06220  Biso   1.000  O
  O192     1.0000 0.48460  0.45210  0.07060  Biso   1.000  O
  H624     1.0000 0.50630  0.56860  0.01930  Biso   1.000  H
  C923     1.0000 0.49400  0.48850  0.02830  Biso   1.000  C
  C924     1.0000 0.54720  0.49530  0.01090  Biso   1.000  C
  C925     1.0000 0.36540  0.43000  0.01770  Biso   1.000  C
  H625     1.0000 0.28130  0.41290  0.03460  Biso   1.000  H
  C926     1.0000 0.32740  0.43400  0.03550  Biso   1.000  C
  H626     1.0000 0.33280  0.42370  0.05340  Biso   1.000  H
  C927     1.0000 0.43950  0.35260  0.99960  Biso   1.000  C
  C928     1.0000 0.44350  0.30320  0.00800  Biso   1.000  C
  C929     1.0000 0.45700  0.26180  0.98900  Biso   1.000  C
  H627     1.0000 0.47510  0.24410  0.00940  Biso   1.000  H
  C930     1.0000 0.27640  0.45300  0.02630  Biso   1.000  C
  H628     1.0000 0.22750  0.47140  0.01240  Biso   1.000  H
  H629     1.0000 0.43760  0.29480  0.02610  Biso   1.000  H
  H630     1.0000 0.24700  0.45830  0.03760  Biso   1.000  H
  O193     1.0000 0.03910  0.04370  0.87185  Biso   1.000  O
  Zn49     1.0000 0.99588  0.00534  0.89746  Biso   1.000  Zn
  Zn50     1.0000 0.50034  0.09023  0.91604  Biso   1.000  Zn
  Zn51     1.0000 0.92384  0.58904  0.88569  Biso   1.000  Zn
  Zn52     1.0000 0.57689  0.99774  0.90438  Biso   1.000  Zn
  Zn53     1.0000 0.99186  0.07732  0.84759  Biso   1.000  Zn
  Zn54     1.0000 0.07209  0.09810  0.89221  Biso   1.000  Zn
  Zn55     1.0000 0.48154  0.00916  0.86774  Biso   1.000  Zn
  Zn56     1.0000 0.08850  0.99316  0.85729  Biso   1.000  Zn
  O194     1.0000 0.13330  0.92710  0.85340  Biso   1.000  O
  C931     1.0000 0.17260  0.92150  0.83870  Biso   1.000  C
  H631     1.0000 0.18990  0.95150  0.83190  Biso   1.000  H
  N25      1.0000 0.19040  0.87320  0.83260  Biso   1.000  N
  C932     1.0000 0.16810  0.82860  0.84550  Biso   1.000  C
  H632     1.0000 0.18760  0.79710  0.84040  Biso   1.000  H
  H633     1.0000 0.13140  0.82480  0.84020  Biso   1.000  H
  H634     1.0000 0.17000  0.83330  0.86470  Biso   1.000  H
  C933     1.0000 0.23180  0.86010  0.81630  Biso   1.000  C
  H635     1.0000 0.23790  0.82220  0.81720  Biso   1.000  H
  H636     1.0000 0.26340  0.87870  0.82210  Biso   1.000  H
  H637     1.0000 0.22340  0.87010  0.79800  Biso   1.000  H
  C934     1.0000 0.39620  0.05240  0.90080  Biso   1.000  C
  O195     1.0000 0.41630  0.01660  0.88620  Biso   1.000  O
  O196     1.0000 0.42170  0.08130  0.91592  Biso   1.000  O
  C935     1.0000 0.17290  0.06480  0.88240  Biso   1.000  C
  O197     1.0000 0.15450  0.03230  0.86760  Biso   1.000  O
  O198     1.0000 0.14680  0.10030  0.89300  Biso   1.000  O
  C936     1.0000 0.33830  0.05790  0.89830  Biso   1.000  C
  C937     1.0000 0.30860  0.01290  0.89370  Biso   1.000  C
  H638     1.0000 0.32490  0.97950  0.89460  Biso   1.000  H
  C938     1.0000 0.25620  0.01610  0.88790  Biso   1.000  C
  H639     1.0000 0.23730  0.98520  0.88360  Biso   1.000  H
  C939     1.0000 0.23020  0.06450  0.88840  Biso   1.000  C
  C940     1.0000 0.25850  0.11040  0.89340  Biso   1.000  C
  C941     1.0000 0.31220  0.10580  0.90010  Biso   1.000  C
  C942     1.0000 0.23940  0.16700  0.89241  Biso   1.000  C
  H640     1.0000 0.20130  0.16970  0.88800  Biso   1.000  H
  C943     1.0000 0.33780  0.15910  0.90424  Biso   1.000  C
  H641     1.0000 0.37580  0.15640  0.90900  Biso   1.000  H
  C944     1.0000 0.27460  0.19550  0.87210  Biso   1.000  C
  C945     1.0000 0.32870  0.19130  0.87940  Biso   1.000  C
  C946     1.0000 0.36830  0.21640  0.86490  Biso   1.000  C
  H642     1.0000 0.40430  0.21490  0.86970  Biso   1.000  H
  C947     1.0000 0.34900  0.24460  0.84220  Biso   1.000  C
  H643     1.0000 0.37340  0.26370  0.83180  Biso   1.000  H
  C948     1.0000 0.30040  0.24540  0.83540  Biso   1.000  C
  H644     1.0000 0.29060  0.26320  0.81960  Biso   1.000  H
  C949     1.0000 0.26170  0.22070  0.85050  Biso   1.000  C
  H645     1.0000 0.22600  0.22230  0.84520  Biso   1.000  H
  C950     1.0000 0.25210  0.18980  0.91920  Biso   1.000  C
  C951     1.0000 0.30600  0.18460  0.92550  Biso   1.000  C
  C952     1.0000 0.32330  0.20280  0.95010  Biso   1.000  C
  H646     1.0000 0.35900  0.19940  0.95520  Biso   1.000  H
  C953     1.0000 0.28600  0.22670  0.96740  Biso   1.000  C
  H647     1.0000 0.29680  0.23930  0.98420  Biso   1.000  H
  C954     1.0000 0.23560  0.23130  0.95990  Biso   1.000  C
  H648     1.0000 0.21110  0.24660  0.97180  Biso   1.000  H
  C955     1.0000 0.21880  0.21450  0.93570  Biso   1.000  C
  H649     1.0000 0.18350  0.22020  0.93050  Biso   1.000  H
  C956     1.0000 0.97560  0.68300  0.87080  Biso   1.000  C
  O199     1.0000 0.00310  0.66050  0.85320  Biso   1.000  O
  O200     1.0000 0.93650  0.66420  0.88287  Biso   1.000  O
  C957     1.0000 0.01400  0.90550  0.88200  Biso   1.000  C
  O201     1.0000 0.03890  0.92780  0.86630  Biso   1.000  O
  O202     1.0000 0.98690  0.92950  0.89920  Biso   1.000  O
  C958     1.0000 0.98770  0.73920  0.87554  Biso   1.000  C
  C959     1.0000 0.00270  0.77100  0.85440  Biso   1.000  C
  H650     1.0000 0.00670  0.75520  0.83750  Biso   1.000  H
  C960     1.0000 0.01180  0.82200  0.85660  Biso   1.000  C
  H651     1.0000 0.02060  0.84180  0.84130  Biso   1.000  H
  C961     1.0000 0.00860  0.84700  0.88150  Biso   1.000  C
  C962     1.0000 0.99600  0.81620  0.90360  Biso   1.000  C
  C963     1.0000 0.98380  0.76250  0.90014  Biso   1.000  C
  C964     1.0000 0.99190  0.83400  0.93258  Biso   1.000  C
  H652     1.0000 0.99840  0.87240  0.93490  Biso   1.000  H
  C965     1.0000 0.97390  0.73540  0.92705  Biso   1.000  C
  H653     1.0000 0.96680  0.69710  0.92490  Biso   1.000  H
  C966     1.0000 0.03180  0.79910  0.94810  Biso   1.000  C
  C967     1.0000 0.01970  0.74500  0.94480  Biso   1.000  C
  C968     1.0000 0.05090  0.70580  0.95650  Biso   1.000  C
  H654     1.0000 0.04540  0.66940  0.95360  Biso   1.000  H
  C969     1.0000 0.09130  0.72540  0.97330  Biso   1.000  C
  H655     1.0000 0.11340  0.70080  0.98190  Biso   1.000  H
  C970     1.0000 0.09970  0.77490  0.97750  Biso   1.000  C
  H656     1.0000 0.12630  0.78550  0.98950  Biso   1.000  H
  C971     1.0000 0.06960  0.81250  0.96430  Biso   1.000  C
  H657     1.0000 0.07680  0.84860  0.96710  Biso   1.000  H
  C972     1.0000 0.93810  0.81770  0.94156  Biso   1.000  C
  C973     1.0000 0.92850  0.76330  0.93880  Biso   1.000  C
  C974     1.0000 0.87950  0.74330  0.94590  Biso   1.000  C
  H658     1.0000 0.87050  0.70790  0.94220  Biso   1.000  H
  C975     1.0000 0.84230  0.77820  0.95920  Biso   1.000  C
  H659     1.0000 0.80980  0.76560  0.96570  Biso   1.000  H
  C976     1.0000 0.85570  0.82790  0.96190  Biso   1.000  C
  H660     1.0000 0.83150  0.85070  0.97030  Biso   1.000  H
  C977     1.0000 0.90280  0.84910  0.95310  Biso   1.000  C
  H661     1.0000 0.90980  0.88540  0.95530  Biso   1.000  H
  C978     1.0000 0.54110  0.00280  0.95511  Biso   1.000  C
  O203     1.0000 0.57960  0.98380  0.94262  Biso   1.000  O
  O204     1.0000 0.50520  0.02330  0.94290  Biso   1.000  O
  C979     1.0000 0.54450  0.96900  0.06789  Biso   1.000  C
  O205     1.0000 0.58040  0.94240  0.07626  Biso   1.000  O
  O206     1.0000 0.51340  0.99520  0.08120  Biso   1.000  O
  C980     1.0000 0.53670  0.99280  0.98403  Biso   1.000  C
  C981     1.0000 0.58290  0.97480  0.99689  Biso   1.000  C
  H662     1.0000 0.61320  0.96650  0.98680  Biso   1.000  H
  C982     1.0000 0.58330  0.96970  0.02326  Biso   1.000  C
  H663     1.0000 0.61580  0.96330  0.03190  Biso   1.000  H
  C983     1.0000 0.53870  0.97320  0.03838  Biso   1.000  C
  C984     1.0000 0.49210  0.99010  0.02643  Biso   1.000  C
  C985     1.0000 0.49180  0.99930  0.99881  Biso   1.000  C
  C986     1.0000 0.43800  0.99760  0.03890  Biso   1.000  C
  H664     1.0000 0.43800  0.99080  0.05840  Biso   1.000  H
  C987     1.0000 0.43720  0.01560  0.98940  Biso   1.000  C
  H665     1.0000 0.43670  0.02220  0.96990  Biso   1.000  H
  C988     1.0000 0.39970  0.96160  0.02360  Biso   1.000  C
  C989     1.0000 0.39950  0.97300  0.99690  Biso   1.000  C
  C990     1.0000 0.36340  0.94920  0.97980  Biso   1.000  C
  H666     1.0000 0.36080  0.95700  0.96140  Biso   1.000  H
  C991     1.0000 0.33080  0.91180  0.99310  Biso   1.000  C
  H667     1.0000 0.30230  0.89780  0.98330  Biso   1.000  H
  C992     1.0000 0.33650  0.89540  0.01700  Biso   1.000  C
  H668     1.0000 0.32190  0.86350  0.02330  Biso   1.000  H
  C993     1.0000 0.36530  0.92800  0.03230  Biso   1.000  C
  H669     1.0000 0.36000  0.92620  0.05090  Biso   1.000  H
  C994     1.0000 0.42340  0.05260  0.03220  Biso   1.000  C
  C995     1.0000 0.42200  0.06230  0.00430  Biso   1.000  C
  C996     1.0000 0.40740  0.11110  0.99520  Biso   1.000  C
  H670     1.0000 0.40460  0.11830  0.97680  Biso   1.000  H
  C997     1.0000 0.39670  0.15010  0.01440  Biso   1.000  C
  H671     1.0000 0.39330  0.18560  0.00900  Biso   1.000  H
  C998     1.0000 0.39120  0.13800  0.04020  Biso   1.000  C
  H672     1.0000 0.37630  0.16270  0.05210  Biso   1.000  H
  C999     1.0000 0.40720  0.08970  0.04920  Biso   1.000  C
  H673     1.0000 0.40670  0.08250  0.06770  Biso   1.000  H
  C1000    1.0000 0.67120  0.03410  0.87840  Biso   1.000  C
  O207     1.0000 0.64910  0.06960  0.86500  Biso   1.000  O
  O208     1.0000 0.64930  0.00260  0.89400  Biso   1.000  O
  C1001    1.0000 0.89810  0.04250  0.87420  Biso   1.000  C
  O209     1.0000 0.91740  0.05950  0.85378  Biso   1.000  O
  O210     1.0000 0.92280  0.03410  0.89538  Biso   1.000  O
  C1002    1.0000 0.73000  0.03000  0.87720  Biso   1.000  C
  C1003    1.0000 0.75650  0.06790  0.86190  Biso   1.000  C
  H674     1.0000 0.73590  0.09230  0.85220  Biso   1.000  H
  C1004    1.0000 0.80870  0.07160  0.86020  Biso   1.000  C
  H675     1.0000 0.82470  0.09750  0.84930  Biso   1.000  H
  C1005    1.0000 0.83940  0.03570  0.87500  Biso   1.000  C
  C1006    1.0000 0.81620  0.99690  0.89050  Biso   1.000  C
  C1007    1.0000 0.76030  0.99410  0.89050  Biso   1.000  C
  C1008    1.0000 0.84240  0.95670  0.90830  Biso   1.000  C
  H676     1.0000 0.88120  0.96190  0.90960  Biso   1.000  H
  C1009    1.0000 0.74320  0.94570  0.90590  Biso   1.000  C
  H677     1.0000 0.70430  0.94090  0.90500  Biso   1.000  H
  C1010    1.0000 0.82730  0.90170  0.89690  Biso   1.000  C
  C1011    1.0000 0.77140  0.89870  0.89490  Biso   1.000  C
  C1012    1.0000 0.74820  0.85440  0.88400  Biso   1.000  C
  H678     1.0000 0.71130  0.84960  0.88300  Biso   1.000  H
  C1013    1.0000 0.78480  0.81720  0.87450  Biso   1.000  C
  H679     1.0000 0.77130  0.78940  0.86390  Biso   1.000  H
  C1014    1.0000 0.83510  0.81720  0.87870  Biso   1.000  C
  H680     1.0000 0.85590  0.78710  0.87520  Biso   1.000  H
  C1015    1.0000 0.85760  0.86340  0.88880  Biso   1.000  C
  H681     1.0000 0.89460  0.86680  0.88980  Biso   1.000  H
  C1016    1.0000 0.81560  0.96240  0.93460  Biso   1.000  C
  C1017    1.0000 0.76090  0.95260  0.93360  Biso   1.000  C
  C1018    1.0000 0.73380  0.95680  0.95720  Biso   1.000  C
  H682     1.0000 0.69680  0.95290  0.95740  Biso   1.000  H
  C1019    1.0000 0.76160  0.96690  0.98110  Biso   1.000  C
  H683     1.0000 0.74390  0.96460  0.99760  Biso   1.000  H
  C1020    1.0000 0.81250  0.97960  0.98050  Biso   1.000  C
  H684     1.0000 0.82880  0.99460  0.99560  Biso   1.000  H
  C1021    1.0000 0.84080  0.97100  0.95810  Biso   1.000  C
  H685     1.0000 0.87800  0.97110  0.95880  Biso   1.000  H
  C1022    1.0000 0.98340  0.40720  0.86830  Biso   1.000  C
  O211     1.0000 0.01820  0.43250  0.88054  Biso   1.000  O
  O212     1.0000 0.94440  0.42610  0.85691  Biso   1.000  O
  C1023    1.0000 0.01520  0.18280  0.86790  Biso   1.000  C
  O213     1.0000 0.04950  0.16810  0.88329  Biso   1.000  O
  O214     1.0000 0.98830  0.15270  0.85360  Biso   1.000  O
  C1024    1.0000 0.98980  0.34910  0.86710  Biso   1.000  C
  C1025    1.0000 0.01170  0.32330  0.88900  Biso   1.000  C
  H686     1.0000 0.02210  0.34310  0.90400  Biso   1.000  H
  C1026    1.0000 0.01820  0.27130  0.88900  Biso   1.000  C
  H687     1.0000 0.03170  0.25460  0.90440  Biso   1.000  H
  C1027    1.0000 0.00540  0.24110  0.86680  Biso   1.000  C
  C1028    1.0000 0.98250  0.26420  0.84455  Biso   1.000  C
  C1029    1.0000 0.97410  0.31960  0.84540  Biso   1.000  C
  C1030    1.0000 0.96310  0.23930  0.81950  Biso   1.000  C
  H688     1.0000 0.96660  0.20030  0.81960  Biso   1.000  H
  C1031    1.0000 0.95220  0.33900  0.81940  Biso   1.000  C
  H689     1.0000 0.94770  0.37790  0.81950  Biso   1.000  H
  C1032    1.0000 0.99400  0.26530  0.79630  Biso   1.000  C
  C1033    1.0000 0.98900  0.32170  0.79780  Biso   1.000  C
  C1034    1.0000 0.01550  0.35300  0.77950  Biso   1.000  C
  H690     1.0000 0.01380  0.39020  0.78010  Biso   1.000  H
  C1035    1.0000 0.04520  0.32600  0.76000  Biso   1.000  C
  H691     1.0000 0.06060  0.34590  0.74610  Biso   1.000  H
  C1036    1.0000 0.05240  0.27570  0.76010  Biso   1.000  C
  H692     1.0000 0.07500  0.25970  0.74750  Biso   1.000  H
  C1037    1.0000 0.02600  0.24500  0.77930  Biso   1.000  C
  H693     1.0000 0.03200  0.20830  0.77970  Biso   1.000  H
  C1038    1.0000 0.90700  0.25710  0.81640  Biso   1.000  C
  C1039    1.0000 0.90160  0.31200  0.81550  Biso   1.000  C
  C1040    1.0000 0.85240  0.33240  0.81360  Biso   1.000  C
  H694     1.0000 0.84810  0.36940  0.81320  Biso   1.000  H
  C1041    1.0000 0.80650  0.29900  0.81190  Biso   1.000  C
  H695     1.0000 0.77220  0.31330  0.81140  Biso   1.000  H
  C1042    1.0000 0.81450  0.24660  0.81110  Biso   1.000  C
  H696     1.0000 0.78530  0.22360  0.80980  Biso   1.000  H
  C1043    1.0000 0.86460  0.22630  0.81200  Biso   1.000  C
  H697     1.0000 0.86950  0.18970  0.80960  Biso   1.000  H
  C1044    1.0000 0.03950  0.05730  0.94330  Biso   1.000  C
  O215     1.0000 0.01240  0.01810  0.93422  Biso   1.000  O
  O216     1.0000 0.05650  0.09260  0.93037  Biso   1.000  O
  C1045    1.0000 0.04940  0.05190  0.97160  Biso   1.000  C
  C1046    1.0000 0.01530  0.02000  0.98690  Biso   1.000  C
  H698     1.0000 0.98820  0.00120  0.97820  Biso   1.000  H
  C1047    1.0000 0.08270  0.08560  0.98660  Biso   1.000  C
  C1048    1.0000 0.12170  0.12500  0.97450  Biso   1.000  C
  H699     1.0000 0.12020  0.12620  0.95470  Biso   1.000  H
  C1049    1.0000 0.10780  0.17840  0.98769  Biso   1.000  C
  C1050    1.0000 0.09100  0.22180  0.97340  Biso   1.000  C
  H700     1.0000 0.08870  0.22160  0.95470  Biso   1.000  H
  C1051    1.0000 0.17690  0.10610  0.98540  Biso   1.000  C
  C1052    1.0000 0.21900  0.09610  0.97030  Biso   1.000  C
  H701     1.0000 0.21760  0.09780  0.95150  Biso   1.000  H
  C1053    1.0000 0.07800  0.26520  0.98830  Biso   1.000  C
  H702     1.0000 0.06530  0.29560  0.97950  Biso   1.000  H
  C1054    1.0000 0.26630  0.08270  0.98420  Biso   1.000  C
  H703     1.0000 0.29800  0.07720  0.97480  Biso   1.000  H
  O217     1.0000 0.53230  0.04840  0.88754  Biso   1.000  O
  O218     1.0000 0.00830  0.06180  0.81330  Biso   1.000  O
  C1055    1.0000 0.02960  0.01180  0.77730  Biso   1.000  C
  C1056    1.0000 0.03660  0.02080  0.80600  Biso   1.000  C
  O219     1.0000 0.07050  0.99970  0.81810  Biso   1.000  O
  C1057    1.0000 0.96700  0.00900  0.76410  Biso   1.000  C
  C1058    1.0000 0.10100  0.93770  0.77100  Biso   1.000  C
  H704     1.0000 0.11490  0.94290  0.78940  Biso   1.000  H
  C1059    1.0000 0.06130  0.89150  0.77010  Biso   1.000  C
  C1060    1.0000 0.07400  0.84960  0.78610  Biso   1.000  C
  H705     1.0000 0.08840  0.85340  0.80330  Biso   1.000  H
  C1061    1.0000 0.06200  0.80110  0.77490  Biso   1.000  C
  C1062    1.0000 0.03890  0.95300  0.76590  Biso   1.000  C
  C1063    1.0000 0.17830  0.96000  0.76550  Biso   1.000  C
  H706     1.0000 0.17840  0.96800  0.78380  Biso   1.000  H
  C1064    1.0000 0.22430  0.96400  0.75100  Biso   1.000  C
  C1065    1.0000 0.13270  0.94300  0.75390  Biso   1.000  C
  C1066    1.0000 0.08920  0.92310  0.77410  Biso   1.000  C
  C1067    1.0000 0.06840  0.98580  0.76200  Biso   1.000  C
  H707     1.0000 0.09900  0.92830  0.79310  Biso   1.000  H
  O220     1.0000 0.14910  0.95200  0.83820  Biso   1.000  O
  C1068    1.0000 0.15720  0.90640  0.84600  Biso   1.000  C
  H708     1.0000 0.13380  0.89270  0.85890  Biso   1.000  H
  N26      1.0000 0.19560  0.87520  0.83790  Biso   1.000  N
  C1069    1.0000 0.23400  0.89900  0.82010  Biso   1.000  C
  H709     1.0000 0.22400  0.93580  0.81690  Biso   1.000  H
  H710     1.0000 0.23440  0.88010  0.80330  Biso   1.000  H
  H711     1.0000 0.26870  0.89790  0.82830  Biso   1.000  H
  C1070    1.0000 0.21130  0.82700  0.84620  Biso   1.000  C
  H712     1.0000 0.24470  0.81800  0.83770  Biso   1.000  H
  H713     1.0000 0.18470  0.80100  0.84130  Biso   1.000  H
  H714     1.0000 0.21580  0.82730  0.86550  Biso   1.000  H
  O221     1.0000 0.51920  0.10990  0.95170  Biso   1.000  O
  C1071    1.0000 0.52700  0.15670  0.95630  Biso   1.000  C
  H715     1.0000 0.52300  0.18080  0.94210  Biso   1.000  H
  N27      1.0000 0.54070  0.17600  0.98020  Biso   1.000  N
  C1072    1.0000 0.54990  0.13950  0.00170  Biso   1.000  C
  H716     1.0000 0.56840  0.15750  0.01610  Biso   1.000  H
  H717     1.0000 0.57140  0.11020  0.99530  Biso   1.000  H
  H718     1.0000 0.51630  0.12610  0.00820  Biso   1.000  H
  C1073    1.0000 0.54540  0.22680  0.98720  Biso   1.000  C
  H719     1.0000 0.55150  0.22930  0.00630  Biso   1.000  H
  H720     1.0000 0.51310  0.24550  0.98260  Biso   1.000  H
  H721     1.0000 0.57500  0.24240  0.97760  Biso   1.000  H
  O222     1.0000 0.50610  0.14870  0.94260  Biso   1.000  O
  C1074    1.0000 0.50700  0.14520  0.96710  Biso   1.000  C
  H722     1.0000 0.47560  0.13340  0.97520  Biso   1.000  H
  N28      1.0000 0.54700  0.15570  0.98380  Biso   1.000  N
  C1075    1.0000 0.53800  0.14900  0.01190  Biso   1.000  C
  H723     1.0000 0.57100  0.15260  0.02150  Biso   1.000  H
  H724     1.0000 0.52350  0.11360  0.01510  Biso   1.000  H
  H725     1.0000 0.51280  0.17520  0.01820  Biso   1.000  H
  C1076    1.0000 0.59700  0.16900  0.97810  Biso   1.000  C
  H726     1.0000 0.61670  0.17360  0.99460  Biso   1.000  H
  H727     1.0000 0.59750  0.20180  0.96800  Biso   1.000  H
  H728     1.0000 0.61330  0.14110  0.96760  Biso   1.000  H
  C1077    1.0000 0.02160  0.01040  0.80590  Biso   1.000  C
  O223     1.0000 0.99130  0.05050  0.81220  Biso   1.000  O
  O224     1.0000 0.04790  0.98460  0.82060  Biso   1.000  O
  H729     1.0000 0.93140  0.00630  0.76930  Biso   1.000  H
  C1078    1.0000 0.01150  0.99400  0.77830  Biso   1.000  C
  C1079    1.0000 0.00470  0.04720  0.76090  Biso   1.000  C
  C1080    1.0000 0.07000  0.86540  0.76770  Biso   1.000  C
  H730     1.0000 0.08710  0.78130  0.78460  Biso   1.000  H
  C1081    1.0000 0.06600  0.82740  0.78550  Biso   1.000  C
  H731     1.0000 0.07630  0.83280  0.80340  Biso   1.000  H
  C1082    1.0000 0.14740  0.93950  0.74960  Biso   1.000  C
  C1083    1.0000 0.19680  0.94350  0.75800  Biso   1.000  C
  C1084    1.0000 0.23820  0.95700  0.73900  Biso   1.000  C
  H732     1.0000 0.25590  0.97510  0.75940  Biso   1.000  H
  C1085    1.0000 0.04700  0.77640  0.77630  Biso   1.000  C
  H733     1.0000 0.02860  0.72750  0.76240  Biso   1.000  H
  H734     1.0000 0.20520  0.93760  0.77610  Biso   1.000  H
  H735     1.0000 0.04170  0.74700  0.78760  Biso   1.000  H
  O225     1.0000 0.96090  0.95630  0.37185  Biso   1.000  O
  Zn57     1.0000 0.00412  0.99466  0.39746  Biso   1.000  Zn
  Zn58     1.0000 0.49966  0.90977  0.41604  Biso   1.000  Zn
  Zn59     1.0000 0.07616  0.41096  0.38569  Biso   1.000  Zn
  Zn60     1.0000 0.42311  0.00226  0.40438  Biso   1.000  Zn
  Zn61     1.0000 0.00814  0.92268  0.34759  Biso   1.000  Zn
  Zn62     1.0000 0.92791  0.90190  0.39221  Biso   1.000  Zn
  Zn63     1.0000 0.51846  0.99084  0.36774  Biso   1.000  Zn
  Zn64     1.0000 0.91150  0.00684  0.35729  Biso   1.000  Zn
  O226     1.0000 0.86670  0.07290  0.35340  Biso   1.000  O
  C1086    1.0000 0.82740  0.07850  0.33870  Biso   1.000  C
  H736     1.0000 0.81010  0.04850  0.33190  Biso   1.000  H
  N29      1.0000 0.80960  0.12680  0.33260  Biso   1.000  N
  C1087    1.0000 0.83190  0.17140  0.34550  Biso   1.000  C
  H737     1.0000 0.81240  0.20290  0.34040  Biso   1.000  H
  H738     1.0000 0.86860  0.17520  0.34020  Biso   1.000  H
  H739     1.0000 0.83000  0.16670  0.36470  Biso   1.000  H
  C1088    1.0000 0.76820  0.13990  0.31630  Biso   1.000  C
  H740     1.0000 0.76210  0.17780  0.31720  Biso   1.000  H
  H741     1.0000 0.73660  0.12130  0.32210  Biso   1.000  H
  H742     1.0000 0.77660  0.12990  0.29800  Biso   1.000  H
  C1089    1.0000 0.60380  0.94760  0.40080  Biso   1.000  C
  O227     1.0000 0.58370  0.98340  0.38620  Biso   1.000  O
  O228     1.0000 0.57830  0.91870  0.41592  Biso   1.000  O
  C1090    1.0000 0.82710  0.93520  0.38240  Biso   1.000  C
  O229     1.0000 0.84550  0.96770  0.36760  Biso   1.000  O
  O230     1.0000 0.85320  0.89970  0.39300  Biso   1.000  O
  C1091    1.0000 0.66170  0.94210  0.39830  Biso   1.000  C
  C1092    1.0000 0.69140  0.98710  0.39370  Biso   1.000  C
  H743     1.0000 0.67510  0.02050  0.39460  Biso   1.000  H
  C1093    1.0000 0.74380  0.98390  0.38790  Biso   1.000  C
  H744     1.0000 0.76270  0.01480  0.38360  Biso   1.000  H
  C1094    1.0000 0.76980  0.93550  0.38840  Biso   1.000  C
  C1095    1.0000 0.74150  0.88960  0.39340  Biso   1.000  C
  C1096    1.0000 0.68780  0.89420  0.40010  Biso   1.000  C
  C1097    1.0000 0.76060  0.83300  0.39241  Biso   1.000  C
  H745     1.0000 0.79870  0.83030  0.38800  Biso   1.000  H
  C1098    1.0000 0.66220  0.84090  0.40424  Biso   1.000  C
  H746     1.0000 0.62420  0.84360  0.40900  Biso   1.000  H
  C1099    1.0000 0.72540  0.80450  0.37210  Biso   1.000  C
  C1100    1.0000 0.67130  0.80870  0.37940  Biso   1.000  C
  C1101    1.0000 0.63170  0.78360  0.36490  Biso   1.000  C
  H747     1.0000 0.59570  0.78510  0.36970  Biso   1.000  H
  C1102    1.0000 0.65100  0.75540  0.34220  Biso   1.000  C
  H748     1.0000 0.62660  0.73630  0.33180  Biso   1.000  H
  C1103    1.0000 0.69960  0.75460  0.33540  Biso   1.000  C
  H749     1.0000 0.70940  0.73680  0.31960  Biso   1.000  H
  C1104    1.0000 0.73830  0.77930  0.35050  Biso   1.000  C
  H750     1.0000 0.77400  0.77770  0.34520  Biso   1.000  H
  C1105    1.0000 0.74790  0.81020  0.41920  Biso   1.000  C
  C1106    1.0000 0.69400  0.81540  0.42550  Biso   1.000  C
  C1107    1.0000 0.67670  0.79720  0.45010  Biso   1.000  C
  H751     1.0000 0.64100  0.80060  0.45520  Biso   1.000  H
  C1108    1.0000 0.71400  0.77330  0.46740  Biso   1.000  C
  H752     1.0000 0.70320  0.76070  0.48420  Biso   1.000  H
  C1109    1.0000 0.76440  0.76870  0.45990  Biso   1.000  C
  H753     1.0000 0.78890  0.75340  0.47180  Biso   1.000  H
  C1110    1.0000 0.78120  0.78550  0.43570  Biso   1.000  C
  H754     1.0000 0.81650  0.77980  0.43050  Biso   1.000  H
  C1111    1.0000 0.02440  0.31700  0.37080  Biso   1.000  C
  O231     1.0000 0.99690  0.33950  0.35320  Biso   1.000  O
  O232     1.0000 0.06350  0.33580  0.38287  Biso   1.000  O
  C1112    1.0000 0.98600  0.09450  0.38200  Biso   1.000  C
  O233     1.0000 0.96110  0.07220  0.36630  Biso   1.000  O
  O234     1.0000 0.01310  0.07050  0.39920  Biso   1.000  O
  C1113    1.0000 0.01230  0.26080  0.37554  Biso   1.000  C
  C1114    1.0000 0.99730  0.22900  0.35440  Biso   1.000  C
  H755     1.0000 0.99330  0.24480  0.33750  Biso   1.000  H
  C1115    1.0000 0.98820  0.17800  0.35660  Biso   1.000  C
  H756     1.0000 0.97940  0.15820  0.34130  Biso   1.000  H
  C1116    1.0000 0.99140  0.15300  0.38150  Biso   1.000  C
  C1117    1.0000 0.00400  0.18380  0.40360  Biso   1.000  C
  C1118    1.0000 0.01620  0.23750  0.40014  Biso   1.000  C
  C1119    1.0000 0.00810  0.16600  0.43258  Biso   1.000  C
  H757     1.0000 0.00160  0.12760  0.43490  Biso   1.000  H
  C1120    1.0000 0.02610  0.26460  0.42705  Biso   1.000  C
  H758     1.0000 0.03320  0.30290  0.42490  Biso   1.000  H
  C1121    1.0000 0.96820  0.20090  0.44810  Biso   1.000  C
  C1122    1.0000 0.98030  0.25500  0.44480  Biso   1.000  C
  C1123    1.0000 0.94910  0.29420  0.45650  Biso   1.000  C
  H759     1.0000 0.95460  0.33060  0.45360  Biso   1.000  H
  C1124    1.0000 0.90870  0.27460  0.47330  Biso   1.000  C
  H760     1.0000 0.88660  0.29920  0.48190  Biso   1.000  H
  C1125    1.0000 0.90030  0.22510  0.47750  Biso   1.000  C
  H761     1.0000 0.87370  0.21450  0.48950  Biso   1.000  H
  C1126    1.0000 0.93040  0.18750  0.46430  Biso   1.000  C
  H762     1.0000 0.92320  0.15140  0.46710  Biso   1.000  H
  C1127    1.0000 0.06190  0.18230  0.44156  Biso   1.000  C
  C1128    1.0000 0.07150  0.23670  0.43880  Biso   1.000  C
  C1129    1.0000 0.12050  0.25670  0.44590  Biso   1.000  C
  H763     1.0000 0.12950  0.29210  0.44220  Biso   1.000  H
  C1130    1.0000 0.15770  0.22180  0.45920  Biso   1.000  C
  H764     1.0000 0.19020  0.23440  0.46570  Biso   1.000  H
  C1131    1.0000 0.14430  0.17210  0.46190  Biso   1.000  C
  H765     1.0000 0.16850  0.14930  0.47030  Biso   1.000  H
  C1132    1.0000 0.09720  0.15090  0.45310  Biso   1.000  C
  H766     1.0000 0.09020  0.11460  0.45530  Biso   1.000  H
  C1133    1.0000 0.45890  0.99720  0.45511  Biso   1.000  C
  O235     1.0000 0.42040  0.01620  0.44262  Biso   1.000  O
  O236     1.0000 0.49480  0.97670  0.44290  Biso   1.000  O
  C1134    1.0000 0.45550  0.03100  0.56789  Biso   1.000  C
  O237     1.0000 0.41960  0.05760  0.57626  Biso   1.000  O
  O238     1.0000 0.48660  0.00480  0.58120  Biso   1.000  O
  C1135    1.0000 0.46330  0.00720  0.48403  Biso   1.000  C
  C1136    1.0000 0.41710  0.02520  0.49689  Biso   1.000  C
  H767     1.0000 0.38680  0.03350  0.48680  Biso   1.000  H
  C1137    1.0000 0.41670  0.03030  0.52326  Biso   1.000  C
  H768     1.0000 0.38420  0.03670  0.53190  Biso   1.000  H
  C1138    1.0000 0.46130  0.02680  0.53838  Biso   1.000  C
  C1139    1.0000 0.50790  0.00990  0.52643  Biso   1.000  C
  C1140    1.0000 0.50820  0.00070  0.49881  Biso   1.000  C
  C1141    1.0000 0.56200  0.00240  0.53890  Biso   1.000  C
  H769     1.0000 0.56200  0.00920  0.55840  Biso   1.000  H
  C1142    1.0000 0.56280  0.98440  0.48940  Biso   1.000  C
  H770     1.0000 0.56330  0.97780  0.46990  Biso   1.000  H
  C1143    1.0000 0.60030  0.03840  0.52360  Biso   1.000  C
  C1144    1.0000 0.60050  0.02700  0.49690  Biso   1.000  C
  C1145    1.0000 0.63660  0.05080  0.47980  Biso   1.000  C
  H771     1.0000 0.63920  0.04300  0.46140  Biso   1.000  H
  C1146    1.0000 0.66920  0.08820  0.49310  Biso   1.000  C
  H772     1.0000 0.69770  0.10220  0.48330  Biso   1.000  H
  C1147    1.0000 0.66350  0.10460  0.51700  Biso   1.000  C
  H773     1.0000 0.67810  0.13650  0.52330  Biso   1.000  H
  C1148    1.0000 0.63470  0.07200  0.53230  Biso   1.000  C
  H774     1.0000 0.64000  0.07380  0.55090  Biso   1.000  H
  C1149    1.0000 0.57660  0.94740  0.53220  Biso   1.000  C
  C1150    1.0000 0.57800  0.93770  0.50430  Biso   1.000  C
  C1151    1.0000 0.59260  0.88890  0.49520  Biso   1.000  C
  H775     1.0000 0.59540  0.88170  0.47680  Biso   1.000  H
  C1152    1.0000 0.60330  0.84990  0.51440  Biso   1.000  C
  H776     1.0000 0.60670  0.81440  0.50900  Biso   1.000  H
  C1153    1.0000 0.60880  0.86200  0.54020  Biso   1.000  C
  H777     1.0000 0.62370  0.83730  0.55210  Biso   1.000  H
  C1154    1.0000 0.59280  0.91030  0.54920  Biso   1.000  C
  H778     1.0000 0.59330  0.91750  0.56770  Biso   1.000  H
  C1155    1.0000 0.32880  0.96590  0.37840  Biso   1.000  C
  O239     1.0000 0.35090  0.93040  0.36500  Biso   1.000  O
  O240     1.0000 0.35070  0.99740  0.39400  Biso   1.000  O
  C1156    1.0000 0.10190  0.95750  0.37420  Biso   1.000  C
  O241     1.0000 0.08260  0.94050  0.35378  Biso   1.000  O
  O242     1.0000 0.07720  0.96590  0.39538  Biso   1.000  O
  C1157    1.0000 0.27000  0.97000  0.37720  Biso   1.000  C
  C1158    1.0000 0.24350  0.93210  0.36190  Biso   1.000  C
  H779     1.0000 0.26410  0.90770  0.35220  Biso   1.000  H
  C1159    1.0000 0.19130  0.92840  0.36020  Biso   1.000  C
  H780     1.0000 0.17530  0.90250  0.34930  Biso   1.000  H
  C1160    1.0000 0.16060  0.96430  0.37500  Biso   1.000  C
  C1161    1.0000 0.18380  0.00310  0.39050  Biso   1.000  C
  C1162    1.0000 0.23970  0.00590  0.39050  Biso   1.000  C
  C1163    1.0000 0.15760  0.04330  0.40830  Biso   1.000  C
  H781     1.0000 0.11880  0.03810  0.40960  Biso   1.000  H
  C1164    1.0000 0.25680  0.05430  0.40590  Biso   1.000  C
  H782     1.0000 0.29570  0.05910  0.40500  Biso   1.000  H
  C1165    1.0000 0.17270  0.09830  0.39690  Biso   1.000  C
  C1166    1.0000 0.22860  0.10130  0.39490  Biso   1.000  C
  C1167    1.0000 0.25180  0.14560  0.38400  Biso   1.000  C
  H783     1.0000 0.28870  0.15040  0.38300  Biso   1.000  H
  C1168    1.0000 0.21520  0.18280  0.37450  Biso   1.000  C
  H784     1.0000 0.22870  0.21060  0.36390  Biso   1.000  H
  C1169    1.0000 0.16490  0.18280  0.37870  Biso   1.000  C
  H785     1.0000 0.14410  0.21290  0.37520  Biso   1.000  H
  C1170    1.0000 0.14240  0.13660  0.38880  Biso   1.000  C
  H786     1.0000 0.10540  0.13320  0.38980  Biso   1.000  H
  C1171    1.0000 0.18440  0.03760  0.43460  Biso   1.000  C
  C1172    1.0000 0.23910  0.04740  0.43360  Biso   1.000  C
  C1173    1.0000 0.26620  0.04320  0.45720  Biso   1.000  C
  H787     1.0000 0.30320  0.04710  0.45740  Biso   1.000  H
  C1174    1.0000 0.23840  0.03310  0.48110  Biso   1.000  C
  H788     1.0000 0.25610  0.03540  0.49760  Biso   1.000  H
  C1175    1.0000 0.18750  0.02040  0.48050  Biso   1.000  C
  H789     1.0000 0.17120  0.00540  0.49560  Biso   1.000  H
  C1176    1.0000 0.15920  0.02900  0.45810  Biso   1.000  C
  H790     1.0000 0.12200  0.02890  0.45880  Biso   1.000  H
  C1177    1.0000 0.01660  0.59280  0.36830  Biso   1.000  C
  O243     1.0000 0.98180  0.56750  0.38054  Biso   1.000  O
  O244     1.0000 0.05560  0.57390  0.35691  Biso   1.000  O
  C1178    1.0000 0.98480  0.81720  0.36790  Biso   1.000  C
  O245     1.0000 0.95050  0.83190  0.38329  Biso   1.000  O
  O246     1.0000 0.01170  0.84730  0.35360  Biso   1.000  O
  C1179    1.0000 0.01020  0.65090  0.36710  Biso   1.000  C
  C1180    1.0000 0.98830  0.67670  0.38900  Biso   1.000  C
  H791     1.0000 0.97790  0.65690  0.40400  Biso   1.000  H
  C1181    1.0000 0.98180  0.72870  0.38900  Biso   1.000  C
  H792     1.0000 0.96830  0.74540  0.40440  Biso   1.000  H
  C1182    1.0000 0.99460  0.75890  0.36680  Biso   1.000  C
  C1183    1.0000 0.01750  0.73580  0.34455  Biso   1.000  C
  C1184    1.0000 0.02590  0.68040  0.34540  Biso   1.000  C
  C1185    1.0000 0.03690  0.76070  0.31950  Biso   1.000  C
  H793     1.0000 0.03340  0.79970  0.31960  Biso   1.000  H
  C1186    1.0000 0.04780  0.66100  0.31940  Biso   1.000  C
  H794     1.0000 0.05230  0.62210  0.31950  Biso   1.000  H
  C1187    1.0000 0.00600  0.73470  0.29630  Biso   1.000  C
  C1188    1.0000 0.01100  0.67830  0.29780  Biso   1.000  C
  C1189    1.0000 0.98450  0.64700  0.27950  Biso   1.000  C
  H795     1.0000 0.98620  0.60980  0.28010  Biso   1.000  H
  C1190    1.0000 0.95480  0.67400  0.26000  Biso   1.000  C
  H796     1.0000 0.93940  0.65410  0.24610  Biso   1.000  H
  C1191    1.0000 0.94760  0.72430  0.26010  Biso   1.000  C
  H797     1.0000 0.92500  0.74030  0.24750  Biso   1.000  H
  C1192    1.0000 0.97400  0.75500  0.27930  Biso   1.000  C
  H798     1.0000 0.96800  0.79170  0.27970  Biso   1.000  H
  C1193    1.0000 0.09300  0.74290  0.31640  Biso   1.000  C
  C1194    1.0000 0.09840  0.68800  0.31550  Biso   1.000  C
  C1195    1.0000 0.14760  0.66760  0.31360  Biso   1.000  C
  H799     1.0000 0.15190  0.63060  0.31320  Biso   1.000  H
  C1196    1.0000 0.19350  0.70100  0.31190  Biso   1.000  C
  H800     1.0000 0.22780  0.68670  0.31140  Biso   1.000  H
  C1197    1.0000 0.18550  0.75340  0.31110  Biso   1.000  C
  H801     1.0000 0.21470  0.77640  0.30980  Biso   1.000  H
  C1198    1.0000 0.13540  0.77370  0.31200  Biso   1.000  C
  H802     1.0000 0.13050  0.81030  0.30960  Biso   1.000  H
  C1199    1.0000 0.96050  0.94270  0.44330  Biso   1.000  C
  O247     1.0000 0.98760  0.98190  0.43422  Biso   1.000  O
  O248     1.0000 0.94350  0.90740  0.43037  Biso   1.000  O
  C1200    1.0000 0.95060  0.94810  0.47160  Biso   1.000  C
  C1201    1.0000 0.98470  0.98000  0.48690  Biso   1.000  C
  H803     1.0000 0.01180  0.99880  0.47820  Biso   1.000  H
  C1202    1.0000 0.91730  0.91440  0.48660  Biso   1.000  C
  C1203    1.0000 0.87830  0.87500  0.47450  Biso   1.000  C
  H804     1.0000 0.87980  0.87380  0.45470  Biso   1.000  H
  C1204    1.0000 0.89220  0.82160  0.48769  Biso   1.000  C
  C1205    1.0000 0.90900  0.77820  0.47340  Biso   1.000  C
  H805     1.0000 0.91130  0.77840  0.45470  Biso   1.000  H
  C1206    1.0000 0.82310  0.89390  0.48540  Biso   1.000  C
  C1207    1.0000 0.78100  0.90390  0.47030  Biso   1.000  C
  H806     1.0000 0.78240  0.90220  0.45150  Biso   1.000  H
  C1208    1.0000 0.92200  0.73480  0.48830  Biso   1.000  C
  H807     1.0000 0.93470  0.70440  0.47950  Biso   1.000  H
  C1209    1.0000 0.73370  0.91730  0.48420  Biso   1.000  C
  H808     1.0000 0.70200  0.92280  0.47480  Biso   1.000  H
  O249     1.0000 0.46770  0.95160  0.38754  Biso   1.000  O
  O250     1.0000 0.99170  0.93820  0.31330  Biso   1.000  O
  C1210    1.0000 0.97040  0.98820  0.27730  Biso   1.000  C
  C1211    1.0000 0.96340  0.97920  0.30600  Biso   1.000  C
  O251     1.0000 0.92950  0.00030  0.31810  Biso   1.000  O
  C1212    1.0000 0.03300  0.99100  0.26410  Biso   1.000  C
  C1213    1.0000 0.89900  0.06230  0.27100  Biso   1.000  C
  H809     1.0000 0.88510  0.05710  0.28940  Biso   1.000  H
  C1214    1.0000 0.93870  0.10850  0.27010  Biso   1.000  C
  C1215    1.0000 0.92600  0.15040  0.28610  Biso   1.000  C
  H810     1.0000 0.91160  0.14660  0.30330  Biso   1.000  H
  C1216    1.0000 0.93800  0.19890  0.27490  Biso   1.000  C
  C1217    1.0000 0.96110  0.04700  0.26590  Biso   1.000  C
  C1218    1.0000 0.82170  0.04000  0.26550  Biso   1.000  C
  H811     1.0000 0.82160  0.03200  0.28380  Biso   1.000  H
  C1219    1.0000 0.77570  0.03600  0.25100  Biso   1.000  C
  C1220    1.0000 0.86730  0.05700  0.25390  Biso   1.000  C
  C1221    1.0000 0.91080  0.07690  0.27410  Biso   1.000  C
  C1222    1.0000 0.93160  0.01420  0.26200  Biso   1.000  C
  H812     1.0000 0.90100  0.07170  0.29310  Biso   1.000  H
  O252     1.0000 0.85090  0.04800  0.33820  Biso   1.000  O
  C1223    1.0000 0.84280  0.09360  0.34600  Biso   1.000  C
  H813     1.0000 0.86620  0.10730  0.35890  Biso   1.000  H
  N30      1.0000 0.80440  0.12480  0.33790  Biso   1.000  N
  C1224    1.0000 0.76600  0.10100  0.32010  Biso   1.000  C
  H814     1.0000 0.77600  0.06420  0.31690  Biso   1.000  H
  H815     1.0000 0.76560  0.11990  0.30330  Biso   1.000  H
  H816     1.0000 0.73130  0.10210  0.32830  Biso   1.000  H
  C1225    1.0000 0.78870  0.17300  0.34620  Biso   1.000  C
  H817     1.0000 0.75530  0.18200  0.33770  Biso   1.000  H
  H818     1.0000 0.81530  0.19900  0.34130  Biso   1.000  H
  H819     1.0000 0.78420  0.17270  0.36550  Biso   1.000  H
  O253     1.0000 0.48080  0.89010  0.45170  Biso   1.000  O
  C1226    1.0000 0.47300  0.84330  0.45630  Biso   1.000  C
  H820     1.0000 0.47700  0.81920  0.44210  Biso   1.000  H
  N31      1.0000 0.45930  0.82400  0.48020  Biso   1.000  N
  C1227    1.0000 0.45010  0.86050  0.50170  Biso   1.000  C
  H821     1.0000 0.43160  0.84250  0.51610  Biso   1.000  H
  H822     1.0000 0.42860  0.88980  0.49530  Biso   1.000  H
  H823     1.0000 0.48370  0.87390  0.50820  Biso   1.000  H
  C1228    1.0000 0.45460  0.77320  0.48720  Biso   1.000  C
  H824     1.0000 0.44850  0.77070  0.50630  Biso   1.000  H
  H825     1.0000 0.48690  0.75450  0.48260  Biso   1.000  H
  H826     1.0000 0.42500  0.75760  0.47760  Biso   1.000  H
  O254     1.0000 0.49390  0.85130  0.44260  Biso   1.000  O
  C1229    1.0000 0.49300  0.85480  0.46710  Biso   1.000  C
  H827     1.0000 0.52440  0.86660  0.47520  Biso   1.000  H
  N32      1.0000 0.45300  0.84430  0.48380  Biso   1.000  N
  C1230    1.0000 0.46200  0.85100  0.51190  Biso   1.000  C
  H828     1.0000 0.42900  0.84740  0.52150  Biso   1.000  H
  H829     1.0000 0.47650  0.88640  0.51510  Biso   1.000  H
  H830     1.0000 0.48720  0.82480  0.51820  Biso   1.000  H
  C1231    1.0000 0.40300  0.83100  0.47810  Biso   1.000  C
  H831     1.0000 0.38330  0.82640  0.49460  Biso   1.000  H
  H832     1.0000 0.40250  0.79820  0.46800  Biso   1.000  H
  H833     1.0000 0.38670  0.85890  0.46760  Biso   1.000  H
  C1232    1.0000 0.97840  0.98960  0.30590  Biso   1.000  C
  O255     1.0000 0.00870  0.94950  0.31220  Biso   1.000  O
  O256     1.0000 0.95210  0.01540  0.32060  Biso   1.000  O
  H834     1.0000 0.06860  0.99370  0.26930  Biso   1.000  H
  C1233    1.0000 0.98850  0.00600  0.27830  Biso   1.000  C
  C1234    1.0000 0.99530  0.95280  0.26090  Biso   1.000  C
  C1235    1.0000 0.93000  0.13460  0.26770  Biso   1.000  C
  H835     1.0000 0.91290  0.21870  0.28460  Biso   1.000  H
  C1236    1.0000 0.93400  0.17260  0.28550  Biso   1.000  C
  H836     1.0000 0.92370  0.16720  0.30340  Biso   1.000  H
  C1237    1.0000 0.85260  0.06050  0.24960  Biso   1.000  C
  C1238    1.0000 0.80320  0.05650  0.25800  Biso   1.000  C
  C1239    1.0000 0.76180  0.04300  0.23900  Biso   1.000  C
  H837     1.0000 0.74410  0.02490  0.25940  Biso   1.000  H
  C1240    1.0000 0.95300  0.22360  0.27630  Biso   1.000  C
  H838     1.0000 0.97140  0.27250  0.26240  Biso   1.000  H
  H839     1.0000 0.79480  0.06240  0.27610  Biso   1.000  H
  H840     1.0000 0.95830  0.25300  0.28760  Biso   1.000  H
