data_image0
_cell_length_a       35.053
_cell_length_b       35.053
_cell_length_c       12.665
_cell_angle_alpha    90
_cell_angle_beta     90
_cell_angle_gamma    90

_symmetry_space_group_name_H-M    "P 1"
_symmetry_int_tables_number       1

loop_
  _symmetry_equiv_pos_as_xyz
  'x, y, z'

loop_
  _atom_site_label
  _atom_site_occupancy
  _atom_site_fract_x
  _atom_site_fract_y
  _atom_site_fract_z
  _atom_site_thermal_displace_type
  _atom_site_B_iso_or_equiv
  _atom_site_type_symbol
  O1       1.0000 0.51366  0.59450  0.68150  Biso   1.000  O
  O2       1.0000 0.45753  0.60091  0.59640  Biso   1.000  O
  O3       1.0000 0.50549  0.91408  0.78720  Biso   1.000  O
  O4       1.0000 0.45319  0.90332  0.88800  Biso   1.000  O
  O5       1.0000 0.52721  0.47840  0.63380  Biso   1.000  O
  O6       1.0000 0.43891  0.48785  0.51190  Biso   1.000  O
  C1       1.0000 0.48487  0.61329  0.65450  Biso   1.000  C
  C2       1.0000 0.48432  0.65485  0.67820  Biso   1.000  C
  C3       1.0000 0.51254  0.67173  0.73970  Biso   1.000  C
  H1       1.0000 0.53270  0.65670  0.76750  Biso   1.000  H
  C4       1.0000 0.48172  0.73270  0.71980  Biso   1.000  C
  C5       1.0000 0.45482  0.67692  0.63760  Biso   1.000  C
  H2       1.0000 0.43550  0.66540  0.59560  Biso   1.000  H
  C6       1.0000 0.51123  0.71065  0.76050  Biso   1.000  C
  C7       1.0000 0.54270  0.72720  0.82770  Biso   1.000  C
  H3       1.0000 0.56050  0.70680  0.84780  Biso   1.000  H
  H4       1.0000 0.53180  0.73860  0.89150  Biso   1.000  H
  H5       1.0000 0.55640  0.74680  0.78760  Biso   1.000  H
  C8       1.0000 0.45351  0.71583  0.65840  Biso   1.000  C
  H6       1.0000 0.43330  0.73090  0.63060  Biso   1.000  H
  C9       1.0000 0.47719  0.89330  0.82150  Biso   1.000  C
  C10      1.0000 0.47938  0.85172  0.79260  Biso   1.000  C
  C11      1.0000 0.50514  0.83818  0.71800  Biso   1.000  C
  H7       1.0000 0.52210  0.85530  0.68370  Biso   1.000  H
  C12      1.0000 0.50615  0.79951  0.69370  Biso   1.000  C
  C13      1.0000 0.48139  0.77440  0.74400  Biso   1.000  C
  C14      1.0000 0.45563  0.78797  0.81850  Biso   1.000  C
  H8       1.0000 0.43870  0.77080  0.85290  Biso   1.000  H
  C15      1.0000 0.45461  0.82663  0.84280  Biso   1.000  C
  H9       1.0000 0.43700  0.83590  0.89370  Biso   1.000  H
  C16      1.0000 0.53540  0.78530  0.60960  Biso   1.000  C
  H10      1.0000 0.56030  0.78160  0.64350  Biso   1.000  H
  H11      1.0000 0.53800  0.80360  0.55160  Biso   1.000  H
  H12      1.0000 0.52620  0.76080  0.58190  Biso   1.000  H
  C17      1.0000 0.51050  0.70960  0.76970  Biso   1.000  C
  H13      1.0000 0.52730  0.71990  0.82110  Biso   1.000  H
  C18      1.0000 0.45510  0.71940  0.65150  Biso   1.000  C
  C19      1.0000 0.42460  0.74260  0.59710  Biso   1.000  C
  H14      1.0000 0.42860  0.76970  0.61220  Biso   1.000  H
  H15      1.0000 0.39950  0.73480  0.62300  Biso   1.000  H
  H16      1.0000 0.42600  0.73840  0.52070  Biso   1.000  H
  O7       1.0000 0.98634  0.90550  0.68150  Biso   1.000  O
  O8       1.0000 0.04247  0.89909  0.59640  Biso   1.000  O
  O9       1.0000 0.99451  0.58592  0.78720  Biso   1.000  O
  O10      1.0000 0.04681  0.59668  0.88800  Biso   1.000  O
  O11      1.0000 0.97279  0.02160  0.63380  Biso   1.000  O
  O12      1.0000 0.06109  0.01215  0.51190  Biso   1.000  O
  C20      1.0000 0.01513  0.88671  0.65450  Biso   1.000  C
  C21      1.0000 0.01568  0.84515  0.67820  Biso   1.000  C
  C22      1.0000 0.98746  0.82827  0.73970  Biso   1.000  C
  H17      1.0000 0.96730  0.84330  0.76750  Biso   1.000  H
  C23      1.0000 0.01828  0.76730  0.71980  Biso   1.000  C
  C24      1.0000 0.04518  0.82308  0.63760  Biso   1.000  C
  H18      1.0000 0.06450  0.83460  0.59560  Biso   1.000  H
  C25      1.0000 0.98877  0.78935  0.76050  Biso   1.000  C
  C26      1.0000 0.95730  0.77280  0.82770  Biso   1.000  C
  H19      1.0000 0.93950  0.79320  0.84780  Biso   1.000  H
  H20      1.0000 0.96820  0.76140  0.89150  Biso   1.000  H
  H21      1.0000 0.94360  0.75320  0.78760  Biso   1.000  H
  C27      1.0000 0.04649  0.78417  0.65840  Biso   1.000  C
  H22      1.0000 0.06670  0.76910  0.63060  Biso   1.000  H
  C28      1.0000 0.02281  0.60670  0.82150  Biso   1.000  C
  C29      1.0000 0.02062  0.64828  0.79260  Biso   1.000  C
  C30      1.0000 0.99486  0.66182  0.71800  Biso   1.000  C
  H23      1.0000 0.97790  0.64470  0.68370  Biso   1.000  H
  C31      1.0000 0.99385  0.70049  0.69370  Biso   1.000  C
  C32      1.0000 0.01861  0.72560  0.74400  Biso   1.000  C
  C33      1.0000 0.04437  0.71203  0.81850  Biso   1.000  C
  H24      1.0000 0.06130  0.72920  0.85290  Biso   1.000  H
  C34      1.0000 0.04539  0.67337  0.84280  Biso   1.000  C
  H25      1.0000 0.06300  0.66410  0.89370  Biso   1.000  H
  C35      1.0000 0.96460  0.71470  0.60960  Biso   1.000  C
  H26      1.0000 0.93970  0.71840  0.64350  Biso   1.000  H
  H27      1.0000 0.96200  0.69640  0.55160  Biso   1.000  H
  H28      1.0000 0.97380  0.73920  0.58190  Biso   1.000  H
  C36      1.0000 0.98950  0.79040  0.76970  Biso   1.000  C
  H29      1.0000 0.97270  0.78010  0.82110  Biso   1.000  H
  C37      1.0000 0.04490  0.78060  0.65150  Biso   1.000  C
  C38      1.0000 0.07540  0.75740  0.59710  Biso   1.000  C
  H30      1.0000 0.07140  0.73030  0.61220  Biso   1.000  H
  H31      1.0000 0.10050  0.76520  0.62300  Biso   1.000  H
  H32      1.0000 0.07400  0.76160  0.52070  Biso   1.000  H
  O13      1.0000 0.90550  0.51366  0.18150  Biso   1.000  O
  O14      1.0000 0.89909  0.45753  0.09640  Biso   1.000  O
  O15      1.0000 0.58592  0.50549  0.28720  Biso   1.000  O
  O16      1.0000 0.59668  0.45319  0.38800  Biso   1.000  O
  O17      1.0000 0.02160  0.52721  0.13380  Biso   1.000  O
  O18      1.0000 0.01215  0.43891  0.01190  Biso   1.000  O
  C39      1.0000 0.88671  0.48487  0.15450  Biso   1.000  C
  C40      1.0000 0.84515  0.48432  0.17820  Biso   1.000  C
  C41      1.0000 0.82827  0.51254  0.23970  Biso   1.000  C
  H33      1.0000 0.84330  0.53270  0.26750  Biso   1.000  H
  C42      1.0000 0.76730  0.48172  0.21980  Biso   1.000  C
  C43      1.0000 0.82308  0.45482  0.13760  Biso   1.000  C
  H34      1.0000 0.83460  0.43550  0.09560  Biso   1.000  H
  C44      1.0000 0.78935  0.51123  0.26050  Biso   1.000  C
  C45      1.0000 0.77280  0.54270  0.32770  Biso   1.000  C
  H35      1.0000 0.79320  0.56050  0.34780  Biso   1.000  H
  H36      1.0000 0.76140  0.53180  0.39150  Biso   1.000  H
  H37      1.0000 0.75320  0.55640  0.28760  Biso   1.000  H
  C46      1.0000 0.78417  0.45351  0.15840  Biso   1.000  C
  H38      1.0000 0.76910  0.43330  0.13060  Biso   1.000  H
  C47      1.0000 0.60670  0.47719  0.32150  Biso   1.000  C
  C48      1.0000 0.64828  0.47938  0.29260  Biso   1.000  C
  C49      1.0000 0.66182  0.50514  0.21800  Biso   1.000  C
  H39      1.0000 0.64470  0.52210  0.18370  Biso   1.000  H
  C50      1.0000 0.70049  0.50615  0.19370  Biso   1.000  C
  C51      1.0000 0.72560  0.48139  0.24400  Biso   1.000  C
  C52      1.0000 0.71203  0.45563  0.31850  Biso   1.000  C
  H40      1.0000 0.72920  0.43870  0.35290  Biso   1.000  H
  C53      1.0000 0.67337  0.45461  0.34280  Biso   1.000  C
  H41      1.0000 0.66410  0.43700  0.39370  Biso   1.000  H
  C54      1.0000 0.71470  0.53540  0.10960  Biso   1.000  C
  H42      1.0000 0.71840  0.56030  0.14350  Biso   1.000  H
  H43      1.0000 0.69640  0.53800  0.05160  Biso   1.000  H
  H44      1.0000 0.73920  0.52620  0.08190  Biso   1.000  H
  C55      1.0000 0.79040  0.51050  0.26970  Biso   1.000  C
  H45      1.0000 0.78010  0.52730  0.32110  Biso   1.000  H
  C56      1.0000 0.78060  0.45510  0.15150  Biso   1.000  C
  C57      1.0000 0.75740  0.42460  0.09710  Biso   1.000  C
  H46      1.0000 0.73030  0.42860  0.11220  Biso   1.000  H
  H47      1.0000 0.76520  0.39950  0.12300  Biso   1.000  H
  H48      1.0000 0.76160  0.42600  0.02070  Biso   1.000  H
  O19      1.0000 0.59450  0.98634  0.18150  Biso   1.000  O
  O20      1.0000 0.60091  0.04247  0.09640  Biso   1.000  O
  O21      1.0000 0.91408  0.99451  0.28720  Biso   1.000  O
  O22      1.0000 0.90332  0.04681  0.38800  Biso   1.000  O
  O23      1.0000 0.47840  0.97279  0.13380  Biso   1.000  O
  O24      1.0000 0.48785  0.06109  0.01190  Biso   1.000  O
  C58      1.0000 0.61329  0.01513  0.15450  Biso   1.000  C
  C59      1.0000 0.65485  0.01568  0.17820  Biso   1.000  C
  C60      1.0000 0.67173  0.98746  0.23970  Biso   1.000  C
  H49      1.0000 0.65670  0.96730  0.26750  Biso   1.000  H
  C61      1.0000 0.73270  0.01828  0.21980  Biso   1.000  C
  C62      1.0000 0.67692  0.04518  0.13760  Biso   1.000  C
  H50      1.0000 0.66540  0.06450  0.09560  Biso   1.000  H
  C63      1.0000 0.71065  0.98877  0.26050  Biso   1.000  C
  C64      1.0000 0.72720  0.95730  0.32770  Biso   1.000  C
  H51      1.0000 0.70680  0.93950  0.34780  Biso   1.000  H
  H52      1.0000 0.73860  0.96820  0.39150  Biso   1.000  H
  H53      1.0000 0.74680  0.94360  0.28760  Biso   1.000  H
  C65      1.0000 0.71583  0.04649  0.15840  Biso   1.000  C
  H54      1.0000 0.73090  0.06670  0.13060  Biso   1.000  H
  C66      1.0000 0.89330  0.02281  0.32150  Biso   1.000  C
  C67      1.0000 0.85172  0.02062  0.29260  Biso   1.000  C
  C68      1.0000 0.83818  0.99486  0.21800  Biso   1.000  C
  H55      1.0000 0.85530  0.97790  0.18370  Biso   1.000  H
  C69      1.0000 0.79951  0.99385  0.19370  Biso   1.000  C
  C70      1.0000 0.77440  0.01861  0.24400  Biso   1.000  C
  C71      1.0000 0.78797  0.04437  0.31850  Biso   1.000  C
  H56      1.0000 0.77080  0.06130  0.35290  Biso   1.000  H
  C72      1.0000 0.82663  0.04539  0.34280  Biso   1.000  C
  H57      1.0000 0.83590  0.06300  0.39370  Biso   1.000  H
  C73      1.0000 0.78530  0.96460  0.10960  Biso   1.000  C
  H58      1.0000 0.78160  0.93970  0.14350  Biso   1.000  H
  H59      1.0000 0.80360  0.96200  0.05160  Biso   1.000  H
  H60      1.0000 0.76080  0.97380  0.08190  Biso   1.000  H
  C74      1.0000 0.70960  0.98950  0.26970  Biso   1.000  C
  H61      1.0000 0.71990  0.97270  0.32110  Biso   1.000  H
  C75      1.0000 0.71940  0.04490  0.15150  Biso   1.000  C
  C76      1.0000 0.74260  0.07540  0.09710  Biso   1.000  C
  H62      1.0000 0.76970  0.07140  0.11220  Biso   1.000  H
  H63      1.0000 0.73480  0.10050  0.12300  Biso   1.000  H
  H64      1.0000 0.73840  0.07400  0.02070  Biso   1.000  H
  O25      1.0000 0.48634  0.09450  0.81850  Biso   1.000  O
  O26      1.0000 0.54247  0.10091  0.90360  Biso   1.000  O
  O27      1.0000 0.49451  0.41408  0.71280  Biso   1.000  O
  O28      1.0000 0.54681  0.40332  0.61200  Biso   1.000  O
  O29      1.0000 0.47279  0.97840  0.86620  Biso   1.000  O
  O30      1.0000 0.56109  0.98785  0.98810  Biso   1.000  O
  C77      1.0000 0.51513  0.11329  0.84550  Biso   1.000  C
  C78      1.0000 0.51568  0.15485  0.82180  Biso   1.000  C
  C79      1.0000 0.48746  0.17173  0.76030  Biso   1.000  C
  H65      1.0000 0.46730  0.15670  0.73250  Biso   1.000  H
  C80      1.0000 0.51828  0.23270  0.78020  Biso   1.000  C
  C81      1.0000 0.54518  0.17692  0.86240  Biso   1.000  C
  H66      1.0000 0.56450  0.16540  0.90440  Biso   1.000  H
  C82      1.0000 0.48877  0.21065  0.73950  Biso   1.000  C
  C83      1.0000 0.45730  0.22720  0.67230  Biso   1.000  C
  H67      1.0000 0.43950  0.20680  0.65220  Biso   1.000  H
  H68      1.0000 0.46820  0.23860  0.60850  Biso   1.000  H
  H69      1.0000 0.44360  0.24680  0.71240  Biso   1.000  H
  C84      1.0000 0.54649  0.21583  0.84160  Biso   1.000  C
  H70      1.0000 0.56670  0.23090  0.86940  Biso   1.000  H
  C85      1.0000 0.52281  0.39330  0.67850  Biso   1.000  C
  C86      1.0000 0.52062  0.35172  0.70740  Biso   1.000  C
  C87      1.0000 0.49486  0.33818  0.78200  Biso   1.000  C
  H71      1.0000 0.47790  0.35530  0.81630  Biso   1.000  H
  C88      1.0000 0.49385  0.29951  0.80630  Biso   1.000  C
  C89      1.0000 0.51861  0.27440  0.75600  Biso   1.000  C
  C90      1.0000 0.54437  0.28797  0.68150  Biso   1.000  C
  H72      1.0000 0.56130  0.27080  0.64710  Biso   1.000  H
  C91      1.0000 0.54539  0.32663  0.65720  Biso   1.000  C
  H73      1.0000 0.56300  0.33590  0.60630  Biso   1.000  H
  C92      1.0000 0.46460  0.28530  0.89040  Biso   1.000  C
  H74      1.0000 0.43970  0.28160  0.85650  Biso   1.000  H
  H75      1.0000 0.46200  0.30360  0.94840  Biso   1.000  H
  H76      1.0000 0.47380  0.26080  0.91810  Biso   1.000  H
  C93      1.0000 0.48950  0.20960  0.73030  Biso   1.000  C
  H77      1.0000 0.47270  0.21990  0.67890  Biso   1.000  H
  C94      1.0000 0.54490  0.21940  0.84850  Biso   1.000  C
  C95      1.0000 0.57540  0.24260  0.90290  Biso   1.000  C
  H78      1.0000 0.57140  0.26970  0.88780  Biso   1.000  H
  H79      1.0000 0.60050  0.23480  0.87700  Biso   1.000  H
  H80      1.0000 0.57400  0.23840  0.97930  Biso   1.000  H
  O31      1.0000 0.01366  0.40550  0.81850  Biso   1.000  O
  O32      1.0000 0.95753  0.39909  0.90360  Biso   1.000  O
  O33      1.0000 0.00549  0.08592  0.71280  Biso   1.000  O
  O34      1.0000 0.95319  0.09668  0.61200  Biso   1.000  O
  O35      1.0000 0.02721  0.52160  0.86620  Biso   1.000  O
  O36      1.0000 0.93891  0.51215  0.98810  Biso   1.000  O
  C96      1.0000 0.98487  0.38671  0.84550  Biso   1.000  C
  C97      1.0000 0.98432  0.34515  0.82180  Biso   1.000  C
  C98      1.0000 0.01254  0.32827  0.76030  Biso   1.000  C
  H81      1.0000 0.03270  0.34330  0.73250  Biso   1.000  H
  C99      1.0000 0.98172  0.26730  0.78020  Biso   1.000  C
  C100     1.0000 0.95482  0.32308  0.86240  Biso   1.000  C
  H82      1.0000 0.93550  0.33460  0.90440  Biso   1.000  H
  C101     1.0000 0.01123  0.28935  0.73950  Biso   1.000  C
  C102     1.0000 0.04270  0.27280  0.67230  Biso   1.000  C
  H83      1.0000 0.06050  0.29320  0.65220  Biso   1.000  H
  H84      1.0000 0.03180  0.26140  0.60850  Biso   1.000  H
  H85      1.0000 0.05640  0.25320  0.71240  Biso   1.000  H
  C103     1.0000 0.95351  0.28417  0.84160  Biso   1.000  C
  H86      1.0000 0.93330  0.26910  0.86940  Biso   1.000  H
  C104     1.0000 0.97719  0.10670  0.67850  Biso   1.000  C
  C105     1.0000 0.97938  0.14828  0.70740  Biso   1.000  C
  C106     1.0000 0.00514  0.16182  0.78200  Biso   1.000  C
  H87      1.0000 0.02210  0.14470  0.81630  Biso   1.000  H
  C107     1.0000 0.00615  0.20049  0.80630  Biso   1.000  C
  C108     1.0000 0.98139  0.22560  0.75600  Biso   1.000  C
  C109     1.0000 0.95563  0.21203  0.68150  Biso   1.000  C
  H88      1.0000 0.93870  0.22920  0.64710  Biso   1.000  H
  C110     1.0000 0.95461  0.17337  0.65720  Biso   1.000  C
  H89      1.0000 0.93700  0.16410  0.60630  Biso   1.000  H
  C111     1.0000 0.03540  0.21470  0.89040  Biso   1.000  C
  H90      1.0000 0.06030  0.21840  0.85650  Biso   1.000  H
  H91      1.0000 0.03800  0.19640  0.94840  Biso   1.000  H
  H92      1.0000 0.02620  0.23920  0.91810  Biso   1.000  H
  C112     1.0000 0.01050  0.29040  0.73030  Biso   1.000  C
  H93      1.0000 0.02730  0.28010  0.67890  Biso   1.000  H
  C113     1.0000 0.95510  0.28060  0.84850  Biso   1.000  C
  C114     1.0000 0.92460  0.25740  0.90290  Biso   1.000  C
  H94      1.0000 0.92860  0.23030  0.88780  Biso   1.000  H
  H95      1.0000 0.89950  0.26520  0.87700  Biso   1.000  H
  H96      1.0000 0.92600  0.26160  0.97930  Biso   1.000  H
  O37      1.0000 0.09450  0.01366  0.31850  Biso   1.000  O
  O38      1.0000 0.10091  0.95753  0.40360  Biso   1.000  O
  O39      1.0000 0.41408  0.00549  0.21280  Biso   1.000  O
  O40      1.0000 0.40332  0.95319  0.11200  Biso   1.000  O
  O41      1.0000 0.97840  0.02721  0.36620  Biso   1.000  O
  O42      1.0000 0.98785  0.93891  0.48810  Biso   1.000  O
  C115     1.0000 0.11329  0.98487  0.34550  Biso   1.000  C
  C116     1.0000 0.15485  0.98432  0.32180  Biso   1.000  C
  C117     1.0000 0.17173  0.01254  0.26030  Biso   1.000  C
  H97      1.0000 0.15670  0.03270  0.23250  Biso   1.000  H
  C118     1.0000 0.23270  0.98172  0.28020  Biso   1.000  C
  C119     1.0000 0.17692  0.95482  0.36240  Biso   1.000  C
  H98      1.0000 0.16540  0.93550  0.40440  Biso   1.000  H
  C120     1.0000 0.21065  0.01123  0.23950  Biso   1.000  C
  C121     1.0000 0.22720  0.04270  0.17230  Biso   1.000  C
  H99      1.0000 0.20680  0.06050  0.15220  Biso   1.000  H
  H100     1.0000 0.23860  0.03180  0.10850  Biso   1.000  H
  H101     1.0000 0.24680  0.05640  0.21240  Biso   1.000  H
  C122     1.0000 0.21583  0.95351  0.34160  Biso   1.000  C
  H102     1.0000 0.23090  0.93330  0.36940  Biso   1.000  H
  C123     1.0000 0.39330  0.97719  0.17850  Biso   1.000  C
  C124     1.0000 0.35172  0.97938  0.20740  Biso   1.000  C
  C125     1.0000 0.33818  0.00514  0.28200  Biso   1.000  C
  H103     1.0000 0.35530  0.02210  0.31630  Biso   1.000  H
  C126     1.0000 0.29951  0.00615  0.30630  Biso   1.000  C
  C127     1.0000 0.27440  0.98139  0.25600  Biso   1.000  C
  C128     1.0000 0.28797  0.95563  0.18150  Biso   1.000  C
  H104     1.0000 0.27080  0.93870  0.14710  Biso   1.000  H
  C129     1.0000 0.32663  0.95461  0.15720  Biso   1.000  C
  H105     1.0000 0.33590  0.93700  0.10630  Biso   1.000  H
  C130     1.0000 0.28530  0.03540  0.39040  Biso   1.000  C
  H106     1.0000 0.28160  0.06030  0.35650  Biso   1.000  H
  H107     1.0000 0.30360  0.03800  0.44840  Biso   1.000  H
  H108     1.0000 0.26080  0.02620  0.41810  Biso   1.000  H
  C131     1.0000 0.20960  0.01050  0.23030  Biso   1.000  C
  H109     1.0000 0.21990  0.02730  0.17890  Biso   1.000  H
  C132     1.0000 0.21940  0.95510  0.34850  Biso   1.000  C
  C133     1.0000 0.24260  0.92460  0.40290  Biso   1.000  C
  H110     1.0000 0.26970  0.92860  0.38780  Biso   1.000  H
  H111     1.0000 0.23480  0.89950  0.37700  Biso   1.000  H
  H112     1.0000 0.23840  0.92600  0.47930  Biso   1.000  H
  O43      1.0000 0.40550  0.48634  0.31850  Biso   1.000  O
  O44      1.0000 0.39909  0.54247  0.40360  Biso   1.000  O
  O45      1.0000 0.08592  0.49451  0.21280  Biso   1.000  O
  O46      1.0000 0.09668  0.54681  0.11200  Biso   1.000  O
  O47      1.0000 0.52160  0.47279  0.36620  Biso   1.000  O
  O48      1.0000 0.51215  0.56109  0.48810  Biso   1.000  O
  C134     1.0000 0.38671  0.51513  0.34550  Biso   1.000  C
  C135     1.0000 0.34515  0.51568  0.32180  Biso   1.000  C
  C136     1.0000 0.32827  0.48746  0.26030  Biso   1.000  C
  H113     1.0000 0.34330  0.46730  0.23250  Biso   1.000  H
  C137     1.0000 0.26730  0.51828  0.28020  Biso   1.000  C
  C138     1.0000 0.32308  0.54518  0.36240  Biso   1.000  C
  H114     1.0000 0.33460  0.56450  0.40440  Biso   1.000  H
  C139     1.0000 0.28935  0.48877  0.23950  Biso   1.000  C
  C140     1.0000 0.27280  0.45730  0.17230  Biso   1.000  C
  H115     1.0000 0.29320  0.43950  0.15220  Biso   1.000  H
  H116     1.0000 0.26140  0.46820  0.10850  Biso   1.000  H
  H117     1.0000 0.25320  0.44360  0.21240  Biso   1.000  H
  C141     1.0000 0.28417  0.54649  0.34160  Biso   1.000  C
  H118     1.0000 0.26910  0.56670  0.36940  Biso   1.000  H
  C142     1.0000 0.10670  0.52281  0.17850  Biso   1.000  C
  C143     1.0000 0.14828  0.52062  0.20740  Biso   1.000  C
  C144     1.0000 0.16182  0.49486  0.28200  Biso   1.000  C
  H119     1.0000 0.14470  0.47790  0.31630  Biso   1.000  H
  C145     1.0000 0.20049  0.49385  0.30630  Biso   1.000  C
  C146     1.0000 0.22560  0.51861  0.25600  Biso   1.000  C
  C147     1.0000 0.21203  0.54437  0.18150  Biso   1.000  C
  H120     1.0000 0.22920  0.56130  0.14710  Biso   1.000  H
  C148     1.0000 0.17337  0.54539  0.15720  Biso   1.000  C
  H121     1.0000 0.16410  0.56300  0.10630  Biso   1.000  H
  C149     1.0000 0.21470  0.46460  0.39040  Biso   1.000  C
  H122     1.0000 0.21840  0.43970  0.35650  Biso   1.000  H
  H123     1.0000 0.19640  0.46200  0.44840  Biso   1.000  H
  H124     1.0000 0.23920  0.47380  0.41810  Biso   1.000  H
  C150     1.0000 0.29040  0.48950  0.23030  Biso   1.000  C
  H125     1.0000 0.28010  0.47270  0.17890  Biso   1.000  H
  C151     1.0000 0.28060  0.54490  0.34850  Biso   1.000  C
  C152     1.0000 0.25740  0.57540  0.40290  Biso   1.000  C
  H126     1.0000 0.23030  0.57140  0.38780  Biso   1.000  H
  H127     1.0000 0.26520  0.60050  0.37700  Biso   1.000  H
  H128     1.0000 0.26160  0.57400  0.47930  Biso   1.000  H
  O49      1.0000 0.48634  0.40550  0.31850  Biso   1.000  O
  O50      1.0000 0.54247  0.39909  0.40360  Biso   1.000  O
  O51      1.0000 0.49451  0.08592  0.21280  Biso   1.000  O
  O52      1.0000 0.54681  0.09668  0.11200  Biso   1.000  O
  O53      1.0000 0.47279  0.52160  0.36620  Biso   1.000  O
  O54      1.0000 0.56109  0.51215  0.48810  Biso   1.000  O
  C153     1.0000 0.51513  0.38671  0.34550  Biso   1.000  C
  C154     1.0000 0.51568  0.34515  0.32180  Biso   1.000  C
  C155     1.0000 0.48746  0.32827  0.26030  Biso   1.000  C
  H129     1.0000 0.46730  0.34330  0.23250  Biso   1.000  H
  C156     1.0000 0.51828  0.26730  0.28020  Biso   1.000  C
  C157     1.0000 0.54518  0.32308  0.36240  Biso   1.000  C
  H130     1.0000 0.56450  0.33460  0.40440  Biso   1.000  H
  C158     1.0000 0.48877  0.28935  0.23950  Biso   1.000  C
  C159     1.0000 0.45730  0.27280  0.17230  Biso   1.000  C
  H131     1.0000 0.43950  0.29320  0.15220  Biso   1.000  H
  H132     1.0000 0.46820  0.26140  0.10850  Biso   1.000  H
  H133     1.0000 0.44360  0.25320  0.21240  Biso   1.000  H
  C160     1.0000 0.54649  0.28417  0.34160  Biso   1.000  C
  H134     1.0000 0.56670  0.26910  0.36940  Biso   1.000  H
  C161     1.0000 0.52281  0.10670  0.17850  Biso   1.000  C
  C162     1.0000 0.52062  0.14828  0.20740  Biso   1.000  C
  C163     1.0000 0.49486  0.16182  0.28200  Biso   1.000  C
  H135     1.0000 0.47790  0.14470  0.31630  Biso   1.000  H
  C164     1.0000 0.49385  0.20049  0.30630  Biso   1.000  C
  C165     1.0000 0.51861  0.22560  0.25600  Biso   1.000  C
  C166     1.0000 0.54437  0.21203  0.18150  Biso   1.000  C
  H136     1.0000 0.56130  0.22920  0.14710  Biso   1.000  H
  C167     1.0000 0.54539  0.17337  0.15720  Biso   1.000  C
  H137     1.0000 0.56300  0.16410  0.10630  Biso   1.000  H
  C168     1.0000 0.46460  0.21470  0.39040  Biso   1.000  C
  H138     1.0000 0.43970  0.21840  0.35650  Biso   1.000  H
  H139     1.0000 0.46200  0.19640  0.44840  Biso   1.000  H
  H140     1.0000 0.47380  0.23920  0.41810  Biso   1.000  H
  C169     1.0000 0.48950  0.29040  0.23030  Biso   1.000  C
  H141     1.0000 0.47270  0.28010  0.17890  Biso   1.000  H
  C170     1.0000 0.54490  0.28060  0.34850  Biso   1.000  C
  C171     1.0000 0.57540  0.25740  0.40290  Biso   1.000  C
  H142     1.0000 0.57140  0.23030  0.38780  Biso   1.000  H
  H143     1.0000 0.60050  0.26520  0.37700  Biso   1.000  H
  H144     1.0000 0.57400  0.26160  0.47930  Biso   1.000  H
  O55      1.0000 0.01366  0.09450  0.31850  Biso   1.000  O
  O56      1.0000 0.95753  0.10091  0.40360  Biso   1.000  O
  O57      1.0000 0.00549  0.41408  0.21280  Biso   1.000  O
  O58      1.0000 0.95319  0.40332  0.11200  Biso   1.000  O
  O59      1.0000 0.02721  0.97840  0.36620  Biso   1.000  O
  O60      1.0000 0.93891  0.98785  0.48810  Biso   1.000  O
  C172     1.0000 0.98487  0.11329  0.34550  Biso   1.000  C
  C173     1.0000 0.98432  0.15485  0.32180  Biso   1.000  C
  C174     1.0000 0.01254  0.17173  0.26030  Biso   1.000  C
  H145     1.0000 0.03270  0.15670  0.23250  Biso   1.000  H
  C175     1.0000 0.98172  0.23270  0.28020  Biso   1.000  C
  C176     1.0000 0.95482  0.17692  0.36240  Biso   1.000  C
  H146     1.0000 0.93550  0.16540  0.40440  Biso   1.000  H
  C177     1.0000 0.01123  0.21065  0.23950  Biso   1.000  C
  C178     1.0000 0.04270  0.22720  0.17230  Biso   1.000  C
  H147     1.0000 0.06050  0.20680  0.15220  Biso   1.000  H
  H148     1.0000 0.03180  0.23860  0.10850  Biso   1.000  H
  H149     1.0000 0.05640  0.24680  0.21240  Biso   1.000  H
  C179     1.0000 0.95351  0.21583  0.34160  Biso   1.000  C
  H150     1.0000 0.93330  0.23090  0.36940  Biso   1.000  H
  C180     1.0000 0.97719  0.39330  0.17850  Biso   1.000  C
  C181     1.0000 0.97938  0.35172  0.20740  Biso   1.000  C
  C182     1.0000 0.00514  0.33818  0.28200  Biso   1.000  C
  H151     1.0000 0.02210  0.35530  0.31630  Biso   1.000  H
  C183     1.0000 0.00615  0.29951  0.30630  Biso   1.000  C
  C184     1.0000 0.98139  0.27440  0.25600  Biso   1.000  C
  C185     1.0000 0.95563  0.28797  0.18150  Biso   1.000  C
  H152     1.0000 0.93870  0.27080  0.14710  Biso   1.000  H
  C186     1.0000 0.95461  0.32663  0.15720  Biso   1.000  C
  H153     1.0000 0.93700  0.33590  0.10630  Biso   1.000  H
  C187     1.0000 0.03540  0.28530  0.39040  Biso   1.000  C
  H154     1.0000 0.06030  0.28160  0.35650  Biso   1.000  H
  H155     1.0000 0.03800  0.30360  0.44840  Biso   1.000  H
  H156     1.0000 0.02620  0.26080  0.41810  Biso   1.000  H
  C188     1.0000 0.01050  0.20960  0.23030  Biso   1.000  C
  H157     1.0000 0.02730  0.21990  0.17890  Biso   1.000  H
  C189     1.0000 0.95510  0.21940  0.34850  Biso   1.000  C
  C190     1.0000 0.92460  0.24260  0.40290  Biso   1.000  C
  H158     1.0000 0.92860  0.26970  0.38780  Biso   1.000  H
  H159     1.0000 0.89950  0.23480  0.37700  Biso   1.000  H
  H160     1.0000 0.92600  0.23840  0.47930  Biso   1.000  H
  O61      1.0000 0.09450  0.48634  0.81850  Biso   1.000  O
  O62      1.0000 0.10091  0.54247  0.90360  Biso   1.000  O
  O63      1.0000 0.41408  0.49451  0.71280  Biso   1.000  O
  O64      1.0000 0.40332  0.54681  0.61200  Biso   1.000  O
  O65      1.0000 0.97840  0.47279  0.86620  Biso   1.000  O
  O66      1.0000 0.98785  0.56109  0.98810  Biso   1.000  O
  C191     1.0000 0.11329  0.51513  0.84550  Biso   1.000  C
  C192     1.0000 0.15485  0.51568  0.82180  Biso   1.000  C
  C193     1.0000 0.17173  0.48746  0.76030  Biso   1.000  C
  H161     1.0000 0.15670  0.46730  0.73250  Biso   1.000  H
  C194     1.0000 0.23270  0.51828  0.78020  Biso   1.000  C
  C195     1.0000 0.17692  0.54518  0.86240  Biso   1.000  C
  H162     1.0000 0.16540  0.56450  0.90440  Biso   1.000  H
  C196     1.0000 0.21065  0.48877  0.73950  Biso   1.000  C
  C197     1.0000 0.22720  0.45730  0.67230  Biso   1.000  C
  H163     1.0000 0.20680  0.43950  0.65220  Biso   1.000  H
  H164     1.0000 0.23860  0.46820  0.60850  Biso   1.000  H
  H165     1.0000 0.24680  0.44360  0.71240  Biso   1.000  H
  C198     1.0000 0.21583  0.54649  0.84160  Biso   1.000  C
  H166     1.0000 0.23090  0.56670  0.86940  Biso   1.000  H
  C199     1.0000 0.39330  0.52281  0.67850  Biso   1.000  C
  C200     1.0000 0.35172  0.52062  0.70740  Biso   1.000  C
  C201     1.0000 0.33818  0.49486  0.78200  Biso   1.000  C
  H167     1.0000 0.35530  0.47790  0.81630  Biso   1.000  H
  C202     1.0000 0.29951  0.49385  0.80630  Biso   1.000  C
  C203     1.0000 0.27440  0.51861  0.75600  Biso   1.000  C
  C204     1.0000 0.28797  0.54437  0.68150  Biso   1.000  C
  H168     1.0000 0.27080  0.56130  0.64710  Biso   1.000  H
  C205     1.0000 0.32663  0.54539  0.65720  Biso   1.000  C
  H169     1.0000 0.33590  0.56300  0.60630  Biso   1.000  H
  C206     1.0000 0.28530  0.46460  0.89040  Biso   1.000  C
  H170     1.0000 0.28160  0.43970  0.85650  Biso   1.000  H
  H171     1.0000 0.30360  0.46200  0.94840  Biso   1.000  H
  H172     1.0000 0.26080  0.47380  0.91810  Biso   1.000  H
  C207     1.0000 0.20960  0.48950  0.73030  Biso   1.000  C
  H173     1.0000 0.21990  0.47270  0.67890  Biso   1.000  H
  C208     1.0000 0.21940  0.54490  0.84850  Biso   1.000  C
  C209     1.0000 0.24260  0.57540  0.90290  Biso   1.000  C
  H174     1.0000 0.26970  0.57140  0.88780  Biso   1.000  H
  H175     1.0000 0.23480  0.60050  0.87700  Biso   1.000  H
  H176     1.0000 0.23840  0.57400  0.97930  Biso   1.000  H
  O67      1.0000 0.40550  0.01366  0.81850  Biso   1.000  O
  O68      1.0000 0.39909  0.95753  0.90360  Biso   1.000  O
  O69      1.0000 0.08592  0.00549  0.71280  Biso   1.000  O
  O70      1.0000 0.09668  0.95319  0.61200  Biso   1.000  O
  O71      1.0000 0.52160  0.02721  0.86620  Biso   1.000  O
  O72      1.0000 0.51215  0.93891  0.98810  Biso   1.000  O
  C210     1.0000 0.38671  0.98487  0.84550  Biso   1.000  C
  C211     1.0000 0.34515  0.98432  0.82180  Biso   1.000  C
  C212     1.0000 0.32827  0.01254  0.76030  Biso   1.000  C
  H177     1.0000 0.34330  0.03270  0.73250  Biso   1.000  H
  C213     1.0000 0.26730  0.98172  0.78020  Biso   1.000  C
  C214     1.0000 0.32308  0.95482  0.86240  Biso   1.000  C
  H178     1.0000 0.33460  0.93550  0.90440  Biso   1.000  H
  C215     1.0000 0.28935  0.01123  0.73950  Biso   1.000  C
  C216     1.0000 0.27280  0.04270  0.67230  Biso   1.000  C
  H179     1.0000 0.29320  0.06050  0.65220  Biso   1.000  H
  H180     1.0000 0.26140  0.03180  0.60850  Biso   1.000  H
  H181     1.0000 0.25320  0.05640  0.71240  Biso   1.000  H
  C217     1.0000 0.28417  0.95351  0.84160  Biso   1.000  C
  H182     1.0000 0.26910  0.93330  0.86940  Biso   1.000  H
  C218     1.0000 0.10670  0.97719  0.67850  Biso   1.000  C
  C219     1.0000 0.14828  0.97938  0.70740  Biso   1.000  C
  C220     1.0000 0.16182  0.00514  0.78200  Biso   1.000  C
  H183     1.0000 0.14470  0.02210  0.81630  Biso   1.000  H
  C221     1.0000 0.20049  0.00615  0.80630  Biso   1.000  C
  C222     1.0000 0.22560  0.98139  0.75600  Biso   1.000  C
  C223     1.0000 0.21203  0.95563  0.68150  Biso   1.000  C
  H184     1.0000 0.22920  0.93870  0.64710  Biso   1.000  H
  C224     1.0000 0.17337  0.95461  0.65720  Biso   1.000  C
  H185     1.0000 0.16410  0.93700  0.60630  Biso   1.000  H
  C225     1.0000 0.21470  0.03540  0.89040  Biso   1.000  C
  H186     1.0000 0.21840  0.06030  0.85650  Biso   1.000  H
  H187     1.0000 0.19640  0.03800  0.94840  Biso   1.000  H
  H188     1.0000 0.23920  0.02620  0.91810  Biso   1.000  H
  C226     1.0000 0.29040  0.01050  0.73030  Biso   1.000  C
  H189     1.0000 0.28010  0.02730  0.67890  Biso   1.000  H
  C227     1.0000 0.28060  0.95510  0.84850  Biso   1.000  C
  C228     1.0000 0.25740  0.92460  0.90290  Biso   1.000  C
  H190     1.0000 0.23030  0.92860  0.88780  Biso   1.000  H
  H191     1.0000 0.26520  0.89950  0.87700  Biso   1.000  H
  H192     1.0000 0.26160  0.92600  0.97930  Biso   1.000  H
  O73      1.0000 0.51366  0.90550  0.18150  Biso   1.000  O
  O74      1.0000 0.45753  0.89909  0.09640  Biso   1.000  O
  O75      1.0000 0.50549  0.58592  0.28720  Biso   1.000  O
  O76      1.0000 0.45319  0.59668  0.38800  Biso   1.000  O
  O77      1.0000 0.52721  0.02160  0.13380  Biso   1.000  O
  O78      1.0000 0.43891  0.01215  0.01190  Biso   1.000  O
  C229     1.0000 0.48487  0.88671  0.15450  Biso   1.000  C
  C230     1.0000 0.48432  0.84515  0.17820  Biso   1.000  C
  C231     1.0000 0.51254  0.82827  0.23970  Biso   1.000  C
  H193     1.0000 0.53270  0.84330  0.26750  Biso   1.000  H
  C232     1.0000 0.48172  0.76730  0.21980  Biso   1.000  C
  C233     1.0000 0.45482  0.82308  0.13760  Biso   1.000  C
  H194     1.0000 0.43550  0.83460  0.09560  Biso   1.000  H
  C234     1.0000 0.51123  0.78935  0.26050  Biso   1.000  C
  C235     1.0000 0.54270  0.77280  0.32770  Biso   1.000  C
  H195     1.0000 0.56050  0.79320  0.34780  Biso   1.000  H
  H196     1.0000 0.53180  0.76140  0.39150  Biso   1.000  H
  H197     1.0000 0.55640  0.75320  0.28760  Biso   1.000  H
  C236     1.0000 0.45351  0.78417  0.15840  Biso   1.000  C
  H198     1.0000 0.43330  0.76910  0.13060  Biso   1.000  H
  C237     1.0000 0.47719  0.60670  0.32150  Biso   1.000  C
  C238     1.0000 0.47938  0.64828  0.29260  Biso   1.000  C
  C239     1.0000 0.50514  0.66182  0.21800  Biso   1.000  C
  H199     1.0000 0.52210  0.64470  0.18370  Biso   1.000  H
  C240     1.0000 0.50615  0.70049  0.19370  Biso   1.000  C
  C241     1.0000 0.48139  0.72560  0.24400  Biso   1.000  C
  C242     1.0000 0.45563  0.71203  0.31850  Biso   1.000  C
  H200     1.0000 0.43870  0.72920  0.35290  Biso   1.000  H
  C243     1.0000 0.45461  0.67337  0.34280  Biso   1.000  C
  H201     1.0000 0.43700  0.66410  0.39370  Biso   1.000  H
  C244     1.0000 0.53540  0.71470  0.10960  Biso   1.000  C
  H202     1.0000 0.56030  0.71840  0.14350  Biso   1.000  H
  H203     1.0000 0.53800  0.69640  0.05160  Biso   1.000  H
  H204     1.0000 0.52620  0.73920  0.08190  Biso   1.000  H
  C245     1.0000 0.51050  0.79040  0.26970  Biso   1.000  C
  H205     1.0000 0.52730  0.78010  0.32110  Biso   1.000  H
  C246     1.0000 0.45510  0.78060  0.15150  Biso   1.000  C
  C247     1.0000 0.42460  0.75740  0.09710  Biso   1.000  C
  H206     1.0000 0.42860  0.73030  0.11220  Biso   1.000  H
  H207     1.0000 0.39950  0.76520  0.12300  Biso   1.000  H
  H208     1.0000 0.42600  0.76160  0.02070  Biso   1.000  H
  O79      1.0000 0.98634  0.59450  0.18150  Biso   1.000  O
  O80      1.0000 0.04247  0.60091  0.09640  Biso   1.000  O
  O81      1.0000 0.99451  0.91408  0.28720  Biso   1.000  O
  O82      1.0000 0.04681  0.90332  0.38800  Biso   1.000  O
  O83      1.0000 0.97279  0.47840  0.13380  Biso   1.000  O
  O84      1.0000 0.06109  0.48785  0.01190  Biso   1.000  O
  C248     1.0000 0.01513  0.61329  0.15450  Biso   1.000  C
  C249     1.0000 0.01568  0.65485  0.17820  Biso   1.000  C
  C250     1.0000 0.98746  0.67173  0.23970  Biso   1.000  C
  H209     1.0000 0.96730  0.65670  0.26750  Biso   1.000  H
  C251     1.0000 0.01828  0.73270  0.21980  Biso   1.000  C
  C252     1.0000 0.04518  0.67692  0.13760  Biso   1.000  C
  H210     1.0000 0.06450  0.66540  0.09560  Biso   1.000  H
  C253     1.0000 0.98877  0.71065  0.26050  Biso   1.000  C
  C254     1.0000 0.95730  0.72720  0.32770  Biso   1.000  C
  H211     1.0000 0.93950  0.70680  0.34780  Biso   1.000  H
  H212     1.0000 0.96820  0.73860  0.39150  Biso   1.000  H
  H213     1.0000 0.94360  0.74680  0.28760  Biso   1.000  H
  C255     1.0000 0.04649  0.71583  0.15840  Biso   1.000  C
  H214     1.0000 0.06670  0.73090  0.13060  Biso   1.000  H
  C256     1.0000 0.02281  0.89330  0.32150  Biso   1.000  C
  C257     1.0000 0.02062  0.85172  0.29260  Biso   1.000  C
  C258     1.0000 0.99486  0.83818  0.21800  Biso   1.000  C
  H215     1.0000 0.97790  0.85530  0.18370  Biso   1.000  H
  C259     1.0000 0.99385  0.79951  0.19370  Biso   1.000  C
  C260     1.0000 0.01861  0.77440  0.24400  Biso   1.000  C
  C261     1.0000 0.04437  0.78797  0.31850  Biso   1.000  C
  H216     1.0000 0.06130  0.77080  0.35290  Biso   1.000  H
  C262     1.0000 0.04539  0.82663  0.34280  Biso   1.000  C
  H217     1.0000 0.06300  0.83590  0.39370  Biso   1.000  H
  C263     1.0000 0.96460  0.78530  0.10960  Biso   1.000  C
  H218     1.0000 0.93970  0.78160  0.14350  Biso   1.000  H
  H219     1.0000 0.96200  0.80360  0.05160  Biso   1.000  H
  H220     1.0000 0.97380  0.76080  0.08190  Biso   1.000  H
  C264     1.0000 0.98950  0.70960  0.26970  Biso   1.000  C
  H221     1.0000 0.97270  0.71990  0.32110  Biso   1.000  H
  C265     1.0000 0.04490  0.71940  0.15150  Biso   1.000  C
  C266     1.0000 0.07540  0.74260  0.09710  Biso   1.000  C
  H222     1.0000 0.07140  0.76970  0.11220  Biso   1.000  H
  H223     1.0000 0.10050  0.73480  0.12300  Biso   1.000  H
  H224     1.0000 0.07400  0.73840  0.02070  Biso   1.000  H
  O85      1.0000 0.90550  0.98634  0.68150  Biso   1.000  O
  O86      1.0000 0.89909  0.04247  0.59640  Biso   1.000  O
  O87      1.0000 0.58592  0.99451  0.78720  Biso   1.000  O
  O88      1.0000 0.59668  0.04681  0.88800  Biso   1.000  O
  O89      1.0000 0.02160  0.97279  0.63380  Biso   1.000  O
  O90      1.0000 0.01215  0.06109  0.51190  Biso   1.000  O
  C267     1.0000 0.88671  0.01513  0.65450  Biso   1.000  C
  C268     1.0000 0.84515  0.01568  0.67820  Biso   1.000  C
  C269     1.0000 0.82827  0.98746  0.73970  Biso   1.000  C
  H225     1.0000 0.84330  0.96730  0.76750  Biso   1.000  H
  C270     1.0000 0.76730  0.01828  0.71980  Biso   1.000  C
  C271     1.0000 0.82308  0.04518  0.63760  Biso   1.000  C
  H226     1.0000 0.83460  0.06450  0.59560  Biso   1.000  H
  C272     1.0000 0.78935  0.98877  0.76050  Biso   1.000  C
  C273     1.0000 0.77280  0.95730  0.82770  Biso   1.000  C
  H227     1.0000 0.79320  0.93950  0.84780  Biso   1.000  H
  H228     1.0000 0.76140  0.96820  0.89150  Biso   1.000  H
  H229     1.0000 0.75320  0.94360  0.78760  Biso   1.000  H
  C274     1.0000 0.78417  0.04649  0.65840  Biso   1.000  C
  H230     1.0000 0.76910  0.06670  0.63060  Biso   1.000  H
  C275     1.0000 0.60670  0.02281  0.82150  Biso   1.000  C
  C276     1.0000 0.64828  0.02062  0.79260  Biso   1.000  C
  C277     1.0000 0.66182  0.99486  0.71800  Biso   1.000  C
  H231     1.0000 0.64470  0.97790  0.68370  Biso   1.000  H
  C278     1.0000 0.70049  0.99385  0.69370  Biso   1.000  C
  C279     1.0000 0.72560  0.01861  0.74400  Biso   1.000  C
  C280     1.0000 0.71203  0.04437  0.81850  Biso   1.000  C
  H232     1.0000 0.72920  0.06130  0.85290  Biso   1.000  H
  C281     1.0000 0.67337  0.04539  0.84280  Biso   1.000  C
  H233     1.0000 0.66410  0.06300  0.89370  Biso   1.000  H
  C282     1.0000 0.71470  0.96460  0.60960  Biso   1.000  C
  H234     1.0000 0.71840  0.93970  0.64350  Biso   1.000  H
  H235     1.0000 0.69640  0.96200  0.55160  Biso   1.000  H
  H236     1.0000 0.73920  0.97380  0.58190  Biso   1.000  H
  C283     1.0000 0.79040  0.98950  0.76970  Biso   1.000  C
  H237     1.0000 0.78010  0.97270  0.82110  Biso   1.000  H
  C284     1.0000 0.78060  0.04490  0.65150  Biso   1.000  C
  C285     1.0000 0.75740  0.07540  0.59710  Biso   1.000  C
  H238     1.0000 0.73030  0.07140  0.61220  Biso   1.000  H
  H239     1.0000 0.76520  0.10050  0.62300  Biso   1.000  H
  H240     1.0000 0.76160  0.07400  0.52070  Biso   1.000  H
  O91      1.0000 0.59450  0.51366  0.68150  Biso   1.000  O
  O92      1.0000 0.60091  0.45753  0.59640  Biso   1.000  O
  O93      1.0000 0.91408  0.50549  0.78720  Biso   1.000  O
  O94      1.0000 0.90332  0.45319  0.88800  Biso   1.000  O
  O95      1.0000 0.47840  0.52721  0.63380  Biso   1.000  O
  O96      1.0000 0.48785  0.43891  0.51190  Biso   1.000  O
  C286     1.0000 0.61329  0.48487  0.65450  Biso   1.000  C
  C287     1.0000 0.65485  0.48432  0.67820  Biso   1.000  C
  C288     1.0000 0.67173  0.51254  0.73970  Biso   1.000  C
  H241     1.0000 0.65670  0.53270  0.76750  Biso   1.000  H
  C289     1.0000 0.73270  0.48172  0.71980  Biso   1.000  C
  C290     1.0000 0.67692  0.45482  0.63760  Biso   1.000  C
  H242     1.0000 0.66540  0.43550  0.59560  Biso   1.000  H
  C291     1.0000 0.71065  0.51123  0.76050  Biso   1.000  C
  C292     1.0000 0.72720  0.54270  0.82770  Biso   1.000  C
  H243     1.0000 0.70680  0.56050  0.84780  Biso   1.000  H
  H244     1.0000 0.73860  0.53180  0.89150  Biso   1.000  H
  H245     1.0000 0.74680  0.55640  0.78760  Biso   1.000  H
  C293     1.0000 0.71583  0.45351  0.65840  Biso   1.000  C
  H246     1.0000 0.73090  0.43330  0.63060  Biso   1.000  H
  C294     1.0000 0.89330  0.47719  0.82150  Biso   1.000  C
  C295     1.0000 0.85172  0.47938  0.79260  Biso   1.000  C
  C296     1.0000 0.83818  0.50514  0.71800  Biso   1.000  C
  H247     1.0000 0.85530  0.52210  0.68370  Biso   1.000  H
  C297     1.0000 0.79951  0.50615  0.69370  Biso   1.000  C
  C298     1.0000 0.77440  0.48139  0.74400  Biso   1.000  C
  C299     1.0000 0.78797  0.45563  0.81850  Biso   1.000  C
  H248     1.0000 0.77080  0.43870  0.85290  Biso   1.000  H
  C300     1.0000 0.82663  0.45461  0.84280  Biso   1.000  C
  H249     1.0000 0.83590  0.43700  0.89370  Biso   1.000  H
  C301     1.0000 0.78530  0.53540  0.60960  Biso   1.000  C
  H250     1.0000 0.78160  0.56030  0.64350  Biso   1.000  H
  H251     1.0000 0.80360  0.53800  0.55160  Biso   1.000  H
  H252     1.0000 0.76080  0.52620  0.58190  Biso   1.000  H
  C302     1.0000 0.70960  0.51050  0.76970  Biso   1.000  C
  H253     1.0000 0.71990  0.52730  0.82110  Biso   1.000  H
  C303     1.0000 0.71940  0.45510  0.65150  Biso   1.000  C
  C304     1.0000 0.74260  0.42460  0.59710  Biso   1.000  C
  H254     1.0000 0.76970  0.42860  0.61220  Biso   1.000  H
  H255     1.0000 0.73480  0.39950  0.62300  Biso   1.000  H
  H256     1.0000 0.73840  0.42600  0.52070  Biso   1.000  H
  Zr1      1.0000 0.53803  0.53803  0.62839  Biso   1.000  Zr
  Zr2      1.0000 0.46786  0.46786  0.65183  Biso   1.000  Zr
  O97      1.0000 0.52885  0.52885  0.79910  Biso   1.000  O
  O98      1.0000 0.48391  0.48391  0.81330  Biso   1.000  O
  C305     1.0000 0.50731  0.50731  0.85350  Biso   1.000  C
  C306     1.0000 0.51034  0.51034  0.96690  Biso   1.000  C
  H257     1.0000 0.52810  0.52810  0.99540  Biso   1.000  H
  Zr3      1.0000 0.96197  0.96197  0.62839  Biso   1.000  Zr
  Zr4      1.0000 0.03214  0.03214  0.65183  Biso   1.000  Zr
  O99      1.0000 0.97115  0.97115  0.79910  Biso   1.000  O
  O100     1.0000 0.01609  0.01609  0.81330  Biso   1.000  O
  C307     1.0000 0.99269  0.99269  0.85350  Biso   1.000  C
  C308     1.0000 0.98966  0.98966  0.96690  Biso   1.000  C
  H258     1.0000 0.97190  0.97190  0.99540  Biso   1.000  H
  Zr5      1.0000 0.96197  0.53803  0.12839  Biso   1.000  Zr
  Zr6      1.0000 0.03214  0.46786  0.15183  Biso   1.000  Zr
  O101     1.0000 0.97115  0.52885  0.29910  Biso   1.000  O
  O102     1.0000 0.01609  0.48391  0.31330  Biso   1.000  O
  C309     1.0000 0.99269  0.50731  0.35350  Biso   1.000  C
  C310     1.0000 0.98966  0.51034  0.46690  Biso   1.000  C
  H259     1.0000 0.97190  0.52810  0.49540  Biso   1.000  H
  Zr7      1.0000 0.53803  0.96197  0.12839  Biso   1.000  Zr
  Zr8      1.0000 0.46786  0.03214  0.15183  Biso   1.000  Zr
  O103     1.0000 0.52885  0.97115  0.29910  Biso   1.000  O
  O104     1.0000 0.48391  0.01609  0.31330  Biso   1.000  O
  C311     1.0000 0.50731  0.99269  0.35350  Biso   1.000  C
  C312     1.0000 0.51034  0.98966  0.46690  Biso   1.000  C
  H260     1.0000 0.52810  0.97190  0.49540  Biso   1.000  H
  Zr9      1.0000 0.46197  0.03803  0.87161  Biso   1.000  Zr
  Zr10     1.0000 0.53214  0.96786  0.84817  Biso   1.000  Zr
  O105     1.0000 0.47115  0.02885  0.70090  Biso   1.000  O
  O106     1.0000 0.51609  0.98391  0.68670  Biso   1.000  O
  C313     1.0000 0.49269  0.00731  0.64650  Biso   1.000  C
  C314     1.0000 0.48966  0.01034  0.53310  Biso   1.000  C
  H261     1.0000 0.47190  0.02810  0.50460  Biso   1.000  H
  Zr11     1.0000 0.03803  0.46197  0.87161  Biso   1.000  Zr
  Zr12     1.0000 0.96786  0.53214  0.84817  Biso   1.000  Zr
  O107     1.0000 0.02885  0.47115  0.70090  Biso   1.000  O
  O108     1.0000 0.98391  0.51609  0.68670  Biso   1.000  O
  C315     1.0000 0.00731  0.49269  0.64650  Biso   1.000  C
  C316     1.0000 0.01034  0.48966  0.53310  Biso   1.000  C
  H262     1.0000 0.02810  0.47190  0.50460  Biso   1.000  H
  Zr13     1.0000 0.03803  0.03803  0.37161  Biso   1.000  Zr
  Zr14     1.0000 0.96786  0.96786  0.34817  Biso   1.000  Zr
  O109     1.0000 0.02885  0.02885  0.20090  Biso   1.000  O
  O110     1.0000 0.98391  0.98391  0.18670  Biso   1.000  O
  C317     1.0000 0.00731  0.00731  0.14650  Biso   1.000  C
  C318     1.0000 0.01034  0.01034  0.03310  Biso   1.000  C
  H263     1.0000 0.02810  0.02810  0.00460  Biso   1.000  H
  Zr15     1.0000 0.46197  0.46197  0.37161  Biso   1.000  Zr
  Zr16     1.0000 0.53214  0.53214  0.34817  Biso   1.000  Zr
  O111     1.0000 0.47115  0.47115  0.20090  Biso   1.000  O
  O112     1.0000 0.51609  0.51609  0.18670  Biso   1.000  O
  C319     1.0000 0.49269  0.49269  0.14650  Biso   1.000  C
  C320     1.0000 0.48966  0.48966  0.03310  Biso   1.000  C
  H264     1.0000 0.47190  0.47190  0.00460  Biso   1.000  H
  Zr17     1.0000 0.54969  0.45031  0.50000  Biso   1.000  Zr
  Zr18     1.0000 0.95031  0.04969  0.50000  Biso   1.000  Zr
  Zr19     1.0000 0.04969  0.54969  0.00000  Biso   1.000  Zr
  Zr20     1.0000 0.45031  0.95031  0.00000  Biso   1.000  Zr
  Zr21     1.0000 0.45031  0.54969  0.50000  Biso   1.000  Zr
  Zr22     1.0000 0.04969  0.95031  0.50000  Biso   1.000  Zr
  Zr23     1.0000 0.95031  0.45031  0.00000  Biso   1.000  Zr
  Zr24     1.0000 0.54969  0.04969  0.00000  Biso   1.000  Zr
