data_image0
_cell_length_a       33.505
_cell_length_b       33.505
_cell_length_c       16.824
_cell_angle_alpha    90
_cell_angle_beta     90
_cell_angle_gamma    90

_symmetry_space_group_name_H-M    "P 1"
_symmetry_int_tables_number       1

loop_
  _symmetry_equiv_pos_as_xyz
  'x, y, z'

loop_
  _atom_site_label
  _atom_site_occupancy
  _atom_site_fract_x
  _atom_site_fract_y
  _atom_site_fract_z
  _atom_site_thermal_displace_type
  _atom_site_B_iso_or_equiv
  _atom_site_type_symbol
  O1       1.0000 0.71759  0.76790  0.10350  Biso   1.000  O
  O2       1.0000 0.69870  0.84950  0.07780  Biso   1.000  O
  O3       1.0000 0.75780  0.83880  0.14750  Biso   1.000  O
  O4       1.0000 0.70690  0.14160  0.42030  Biso   1.000  O
  O5       1.0000 0.76670  0.15160  0.34980  Biso   1.000  O
  C1       1.0000 0.72560  0.85850  0.12950  Biso   1.000  C
  C2       1.0000 0.72435  0.89954  0.16420  Biso   1.000  C
  C3       1.0000 0.75141  0.91050  0.22290  Biso   1.000  C
  H1       1.0000 0.77070  0.89190  0.24110  Biso   1.000  H
  C4       1.0000 0.75012  0.94874  0.25500  Biso   1.000  C
  H2       1.0000 0.76860  0.95630  0.29510  Biso   1.000  H
  C5       1.0000 0.72179  0.97592  0.22820  Biso   1.000  C
  C6       1.0000 0.69480  0.96490  0.16950  Biso   1.000  C
  C7       1.0000 0.69600  0.92669  0.13750  Biso   1.000  C
  H3       1.0000 0.67750  0.91920  0.09730  Biso   1.000  H
  C8       1.0000 0.66600  0.99530  0.13640  Biso   1.000  C
  H4       1.0000 0.66960  0.02070  0.16420  Biso   1.000  H
  H5       1.0000 0.63860  0.98580  0.14400  Biso   1.000  H
  H6       1.0000 0.67120  0.99900  0.07960  Biso   1.000  H
  C9       1.0000 0.73480  0.13260  0.36840  Biso   1.000  C
  C10      1.0000 0.72987  0.09260  0.32870  Biso   1.000  C
  C11      1.0000 0.75552  0.08019  0.26870  Biso   1.000  C
  H7       1.0000 0.77520  0.09790  0.24860  Biso   1.000  H
  C12      1.0000 0.75230  0.04181  0.23790  Biso   1.000  C
  H8       1.0000 0.76990  0.03330  0.19680  Biso   1.000  H
  C13      1.0000 0.72350  0.01586  0.26720  Biso   1.000  C
  C14      1.0000 0.69790  0.02827  0.32730  Biso   1.000  C
  C15      1.0000 0.70105  0.06665  0.35800  Biso   1.000  C
  H9       1.0000 0.68350  0.07510  0.39910  Biso   1.000  H
  C16      1.0000 0.66650  0.00030  0.35950  Biso   1.000  C
  H10      1.0000 0.66840  0.97450  0.33230  Biso   1.000  H
  H11      1.0000 0.63990  0.01180  0.35060  Biso   1.000  H
  H12      1.0000 0.67070  0.99650  0.41660  Biso   1.000  H
  H13      1.0000 0.59010  0.46280  0.04660  Biso   1.000  H
  O6       1.0000 0.28241  0.23210  0.10350  Biso   1.000  O
  O7       1.0000 0.30130  0.15050  0.07780  Biso   1.000  O
  O8       1.0000 0.24220  0.16120  0.14750  Biso   1.000  O
  O9       1.0000 0.29310  0.85840  0.42030  Biso   1.000  O
  O10      1.0000 0.23330  0.84840  0.34980  Biso   1.000  O
  C17      1.0000 0.27440  0.14150  0.12950  Biso   1.000  C
  C18      1.0000 0.27565  0.10046  0.16420  Biso   1.000  C
  C19      1.0000 0.24859  0.08950  0.22290  Biso   1.000  C
  H14      1.0000 0.22930  0.10810  0.24110  Biso   1.000  H
  C20      1.0000 0.24988  0.05126  0.25500  Biso   1.000  C
  H15      1.0000 0.23140  0.04370  0.29510  Biso   1.000  H
  C21      1.0000 0.27821  0.02408  0.22820  Biso   1.000  C
  C22      1.0000 0.30520  0.03510  0.16950  Biso   1.000  C
  C23      1.0000 0.30400  0.07331  0.13750  Biso   1.000  C
  H16      1.0000 0.32250  0.08080  0.09730  Biso   1.000  H
  C24      1.0000 0.33400  0.00470  0.13640  Biso   1.000  C
  H17      1.0000 0.33040  0.97930  0.16420  Biso   1.000  H
  H18      1.0000 0.36140  0.01420  0.14400  Biso   1.000  H
  H19      1.0000 0.32880  0.00100  0.07960  Biso   1.000  H
  C25      1.0000 0.26520  0.86740  0.36840  Biso   1.000  C
  C26      1.0000 0.27013  0.90740  0.32870  Biso   1.000  C
  C27      1.0000 0.24448  0.91981  0.26870  Biso   1.000  C
  H20      1.0000 0.22480  0.90210  0.24860  Biso   1.000  H
  C28      1.0000 0.24770  0.95819  0.23790  Biso   1.000  C
  H21      1.0000 0.23010  0.96670  0.19680  Biso   1.000  H
  C29      1.0000 0.27650  0.98414  0.26720  Biso   1.000  C
  C30      1.0000 0.30210  0.97173  0.32730  Biso   1.000  C
  C31      1.0000 0.29895  0.93335  0.35800  Biso   1.000  C
  H22      1.0000 0.31650  0.92490  0.39910  Biso   1.000  H
  C32      1.0000 0.33350  0.99970  0.35950  Biso   1.000  C
  H23      1.0000 0.33160  0.02550  0.33230  Biso   1.000  H
  H24      1.0000 0.36010  0.98820  0.35060  Biso   1.000  H
  H25      1.0000 0.32930  0.00350  0.41660  Biso   1.000  H
  H26      1.0000 0.40990  0.53720  0.04660  Biso   1.000  H
  O11      1.0000 0.73210  0.21759  0.60350  Biso   1.000  O
  O12      1.0000 0.65050  0.19870  0.57780  Biso   1.000  O
  O13      1.0000 0.66120  0.25780  0.64750  Biso   1.000  O
  O14      1.0000 0.35840  0.20690  0.92030  Biso   1.000  O
  O15      1.0000 0.34840  0.26670  0.84980  Biso   1.000  O
  C33      1.0000 0.64150  0.22560  0.62950  Biso   1.000  C
  C34      1.0000 0.60046  0.22435  0.66420  Biso   1.000  C
  C35      1.0000 0.58950  0.25141  0.72290  Biso   1.000  C
  H27      1.0000 0.60810  0.27070  0.74110  Biso   1.000  H
  C36      1.0000 0.55126  0.25012  0.75500  Biso   1.000  C
  H28      1.0000 0.54370  0.26860  0.79510  Biso   1.000  H
  C37      1.0000 0.52408  0.22179  0.72820  Biso   1.000  C
  C38      1.0000 0.53510  0.19480  0.66950  Biso   1.000  C
  C39      1.0000 0.57331  0.19600  0.63750  Biso   1.000  C
  H29      1.0000 0.58080  0.17750  0.59730  Biso   1.000  H
  C40      1.0000 0.50470  0.16600  0.63640  Biso   1.000  C
  H30      1.0000 0.47930  0.16960  0.66420  Biso   1.000  H
  H31      1.0000 0.51420  0.13860  0.64400  Biso   1.000  H
  H32      1.0000 0.50100  0.17120  0.57960  Biso   1.000  H
  C41      1.0000 0.36740  0.23480  0.86840  Biso   1.000  C
  C42      1.0000 0.40740  0.22987  0.82870  Biso   1.000  C
  C43      1.0000 0.41981  0.25552  0.76870  Biso   1.000  C
  H33      1.0000 0.40210  0.27520  0.74860  Biso   1.000  H
  C44      1.0000 0.45819  0.25230  0.73790  Biso   1.000  C
  H34      1.0000 0.46670  0.26990  0.69680  Biso   1.000  H
  C45      1.0000 0.48414  0.22350  0.76720  Biso   1.000  C
  C46      1.0000 0.47173  0.19790  0.82730  Biso   1.000  C
  C47      1.0000 0.43335  0.20105  0.85800  Biso   1.000  C
  H35      1.0000 0.42490  0.18350  0.89910  Biso   1.000  H
  C48      1.0000 0.49970  0.16650  0.85950  Biso   1.000  C
  H36      1.0000 0.52550  0.16840  0.83230  Biso   1.000  H
  H37      1.0000 0.48820  0.13990  0.85060  Biso   1.000  H
  H38      1.0000 0.50350  0.17070  0.91660  Biso   1.000  H
  H39      1.0000 0.03720  0.09010  0.54660  Biso   1.000  H
  O16      1.0000 0.26790  0.78241  0.60350  Biso   1.000  O
  O17      1.0000 0.34950  0.80130  0.57780  Biso   1.000  O
  O18      1.0000 0.33880  0.74220  0.64750  Biso   1.000  O
  O19      1.0000 0.64160  0.79310  0.92030  Biso   1.000  O
  O20      1.0000 0.65160  0.73330  0.84980  Biso   1.000  O
  C49      1.0000 0.35850  0.77440  0.62950  Biso   1.000  C
  C50      1.0000 0.39954  0.77565  0.66420  Biso   1.000  C
  C51      1.0000 0.41050  0.74859  0.72290  Biso   1.000  C
  H40      1.0000 0.39190  0.72930  0.74110  Biso   1.000  H
  C52      1.0000 0.44874  0.74988  0.75500  Biso   1.000  C
  H41      1.0000 0.45630  0.73140  0.79510  Biso   1.000  H
  C53      1.0000 0.47592  0.77821  0.72820  Biso   1.000  C
  C54      1.0000 0.46490  0.80520  0.66950  Biso   1.000  C
  C55      1.0000 0.42669  0.80400  0.63750  Biso   1.000  C
  H42      1.0000 0.41920  0.82250  0.59730  Biso   1.000  H
  C56      1.0000 0.49530  0.83400  0.63640  Biso   1.000  C
  H43      1.0000 0.52070  0.83040  0.66420  Biso   1.000  H
  H44      1.0000 0.48580  0.86140  0.64400  Biso   1.000  H
  H45      1.0000 0.49900  0.82880  0.57960  Biso   1.000  H
  C57      1.0000 0.63260  0.76520  0.86840  Biso   1.000  C
  C58      1.0000 0.59260  0.77013  0.82870  Biso   1.000  C
  C59      1.0000 0.58019  0.74448  0.76870  Biso   1.000  C
  H46      1.0000 0.59790  0.72480  0.74860  Biso   1.000  H
  C60      1.0000 0.54181  0.74770  0.73790  Biso   1.000  C
  H47      1.0000 0.53330  0.73010  0.69680  Biso   1.000  H
  C61      1.0000 0.51586  0.77650  0.76720  Biso   1.000  C
  C62      1.0000 0.52827  0.80210  0.82730  Biso   1.000  C
  C63      1.0000 0.56665  0.79895  0.85800  Biso   1.000  C
  H48      1.0000 0.57510  0.81650  0.89910  Biso   1.000  H
  C64      1.0000 0.50030  0.83350  0.85950  Biso   1.000  C
  H49      1.0000 0.47450  0.83160  0.83230  Biso   1.000  H
  H50      1.0000 0.51180  0.86010  0.85060  Biso   1.000  H
  H51      1.0000 0.49650  0.82930  0.91660  Biso   1.000  H
  H52      1.0000 0.96280  0.90990  0.54660  Biso   1.000  H
  O21      1.0000 0.78241  0.26790  0.39650  Biso   1.000  O
  O22      1.0000 0.80130  0.34950  0.42220  Biso   1.000  O
  O23      1.0000 0.74220  0.33880  0.35250  Biso   1.000  O
  O24      1.0000 0.79310  0.64160  0.07970  Biso   1.000  O
  O25      1.0000 0.73330  0.65160  0.15020  Biso   1.000  O
  C65      1.0000 0.77440  0.35850  0.37050  Biso   1.000  C
  C66      1.0000 0.77565  0.39954  0.33580  Biso   1.000  C
  C67      1.0000 0.74859  0.41050  0.27710  Biso   1.000  C
  H53      1.0000 0.72930  0.39190  0.25890  Biso   1.000  H
  C68      1.0000 0.74988  0.44874  0.24500  Biso   1.000  C
  H54      1.0000 0.73140  0.45630  0.20490  Biso   1.000  H
  C69      1.0000 0.77821  0.47592  0.27180  Biso   1.000  C
  C70      1.0000 0.80520  0.46490  0.33050  Biso   1.000  C
  C71      1.0000 0.80400  0.42669  0.36250  Biso   1.000  C
  H55      1.0000 0.82250  0.41920  0.40270  Biso   1.000  H
  C72      1.0000 0.83400  0.49530  0.36360  Biso   1.000  C
  H56      1.0000 0.83040  0.52070  0.33580  Biso   1.000  H
  H57      1.0000 0.86140  0.48580  0.35600  Biso   1.000  H
  H58      1.0000 0.82880  0.49900  0.42040  Biso   1.000  H
  C73      1.0000 0.76520  0.63260  0.13160  Biso   1.000  C
  C74      1.0000 0.77013  0.59260  0.17130  Biso   1.000  C
  C75      1.0000 0.74448  0.58019  0.23130  Biso   1.000  C
  H59      1.0000 0.72480  0.59790  0.25140  Biso   1.000  H
  C76      1.0000 0.74770  0.54181  0.26210  Biso   1.000  C
  H60      1.0000 0.73010  0.53330  0.30320  Biso   1.000  H
  C77      1.0000 0.77650  0.51586  0.23280  Biso   1.000  C
  C78      1.0000 0.80210  0.52827  0.17270  Biso   1.000  C
  C79      1.0000 0.79895  0.56665  0.14200  Biso   1.000  C
  H61      1.0000 0.81650  0.57510  0.10090  Biso   1.000  H
  C80      1.0000 0.83350  0.50030  0.14050  Biso   1.000  C
  H62      1.0000 0.83160  0.47450  0.16770  Biso   1.000  H
  H63      1.0000 0.86010  0.51180  0.14940  Biso   1.000  H
  H64      1.0000 0.82930  0.49650  0.08340  Biso   1.000  H
  H65      1.0000 0.90990  0.96280  0.45340  Biso   1.000  H
  O26      1.0000 0.21759  0.73210  0.39650  Biso   1.000  O
  O27      1.0000 0.19870  0.65050  0.42220  Biso   1.000  O
  O28      1.0000 0.25780  0.66120  0.35250  Biso   1.000  O
  O29      1.0000 0.20690  0.35840  0.07970  Biso   1.000  O
  O30      1.0000 0.26670  0.34840  0.15020  Biso   1.000  O
  C81      1.0000 0.22560  0.64150  0.37050  Biso   1.000  C
  C82      1.0000 0.22435  0.60046  0.33580  Biso   1.000  C
  C83      1.0000 0.25141  0.58950  0.27710  Biso   1.000  C
  H66      1.0000 0.27070  0.60810  0.25890  Biso   1.000  H
  C84      1.0000 0.25012  0.55126  0.24500  Biso   1.000  C
  H67      1.0000 0.26860  0.54370  0.20490  Biso   1.000  H
  C85      1.0000 0.22179  0.52408  0.27180  Biso   1.000  C
  C86      1.0000 0.19480  0.53510  0.33050  Biso   1.000  C
  C87      1.0000 0.19600  0.57331  0.36250  Biso   1.000  C
  H68      1.0000 0.17750  0.58080  0.40270  Biso   1.000  H
  C88      1.0000 0.16600  0.50470  0.36360  Biso   1.000  C
  H69      1.0000 0.16960  0.47930  0.33580  Biso   1.000  H
  H70      1.0000 0.13860  0.51420  0.35600  Biso   1.000  H
  H71      1.0000 0.17120  0.50100  0.42040  Biso   1.000  H
  C89      1.0000 0.23480  0.36740  0.13160  Biso   1.000  C
  C90      1.0000 0.22987  0.40740  0.17130  Biso   1.000  C
  C91      1.0000 0.25552  0.41981  0.23130  Biso   1.000  C
  H72      1.0000 0.27520  0.40210  0.25140  Biso   1.000  H
  C92      1.0000 0.25230  0.45819  0.26210  Biso   1.000  C
  H73      1.0000 0.26990  0.46670  0.30320  Biso   1.000  H
  C93      1.0000 0.22350  0.48414  0.23280  Biso   1.000  C
  C94      1.0000 0.19790  0.47173  0.17270  Biso   1.000  C
  C95      1.0000 0.20105  0.43335  0.14200  Biso   1.000  C
  H74      1.0000 0.18350  0.42490  0.10090  Biso   1.000  H
  C96      1.0000 0.16650  0.49970  0.14050  Biso   1.000  C
  H75      1.0000 0.16840  0.52550  0.16770  Biso   1.000  H
  H76      1.0000 0.13990  0.48820  0.14940  Biso   1.000  H
  H77      1.0000 0.17070  0.50350  0.08340  Biso   1.000  H
  H78      1.0000 0.09010  0.03720  0.45340  Biso   1.000  H
  O31      1.0000 0.76790  0.71759  0.89650  Biso   1.000  O
  O32      1.0000 0.84950  0.69870  0.92220  Biso   1.000  O
  O33      1.0000 0.83880  0.75780  0.85250  Biso   1.000  O
  O34      1.0000 0.14160  0.70690  0.57970  Biso   1.000  O
  O35      1.0000 0.15160  0.76670  0.65020  Biso   1.000  O
  C97      1.0000 0.85850  0.72560  0.87050  Biso   1.000  C
  C98      1.0000 0.89954  0.72435  0.83580  Biso   1.000  C
  C99      1.0000 0.91050  0.75141  0.77710  Biso   1.000  C
  H79      1.0000 0.89190  0.77070  0.75890  Biso   1.000  H
  C100     1.0000 0.94874  0.75012  0.74500  Biso   1.000  C
  H80      1.0000 0.95630  0.76860  0.70490  Biso   1.000  H
  C101     1.0000 0.97592  0.72179  0.77180  Biso   1.000  C
  C102     1.0000 0.96490  0.69480  0.83050  Biso   1.000  C
  C103     1.0000 0.92669  0.69600  0.86250  Biso   1.000  C
  H81      1.0000 0.91920  0.67750  0.90270  Biso   1.000  H
  C104     1.0000 0.99530  0.66600  0.86360  Biso   1.000  C
  H82      1.0000 0.02070  0.66960  0.83580  Biso   1.000  H
  H83      1.0000 0.98580  0.63860  0.85600  Biso   1.000  H
  H84      1.0000 0.99900  0.67120  0.92040  Biso   1.000  H
  C105     1.0000 0.13260  0.73480  0.63160  Biso   1.000  C
  C106     1.0000 0.09260  0.72987  0.67130  Biso   1.000  C
  C107     1.0000 0.08019  0.75552  0.73130  Biso   1.000  C
  H85      1.0000 0.09790  0.77520  0.75140  Biso   1.000  H
  C108     1.0000 0.04181  0.75230  0.76210  Biso   1.000  C
  H86      1.0000 0.03330  0.76990  0.80320  Biso   1.000  H
  C109     1.0000 0.01586  0.72350  0.73280  Biso   1.000  C
  C110     1.0000 0.02827  0.69790  0.67270  Biso   1.000  C
  C111     1.0000 0.06665  0.70105  0.64200  Biso   1.000  C
  H87      1.0000 0.07510  0.68350  0.60090  Biso   1.000  H
  C112     1.0000 0.00030  0.66650  0.64050  Biso   1.000  C
  H88      1.0000 0.97450  0.66840  0.66770  Biso   1.000  H
  H89      1.0000 0.01180  0.63990  0.64940  Biso   1.000  H
  H90      1.0000 0.99650  0.67070  0.58340  Biso   1.000  H
  H91      1.0000 0.46280  0.59010  0.95340  Biso   1.000  H
  O36      1.0000 0.23210  0.28241  0.89650  Biso   1.000  O
  O37      1.0000 0.15050  0.30130  0.92220  Biso   1.000  O
  O38      1.0000 0.16120  0.24220  0.85250  Biso   1.000  O
  O39      1.0000 0.85840  0.29310  0.57970  Biso   1.000  O
  O40      1.0000 0.84840  0.23330  0.65020  Biso   1.000  O
  C113     1.0000 0.14150  0.27440  0.87050  Biso   1.000  C
  C114     1.0000 0.10046  0.27565  0.83580  Biso   1.000  C
  C115     1.0000 0.08950  0.24859  0.77710  Biso   1.000  C
  H92      1.0000 0.10810  0.22930  0.75890  Biso   1.000  H
  C116     1.0000 0.05126  0.24988  0.74500  Biso   1.000  C
  H93      1.0000 0.04370  0.23140  0.70490  Biso   1.000  H
  C117     1.0000 0.02408  0.27821  0.77180  Biso   1.000  C
  C118     1.0000 0.03510  0.30520  0.83050  Biso   1.000  C
  C119     1.0000 0.07331  0.30400  0.86250  Biso   1.000  C
  H94      1.0000 0.08080  0.32250  0.90270  Biso   1.000  H
  C120     1.0000 0.00470  0.33400  0.86360  Biso   1.000  C
  H95      1.0000 0.97930  0.33040  0.83580  Biso   1.000  H
  H96      1.0000 0.01420  0.36140  0.85600  Biso   1.000  H
  H97      1.0000 0.00100  0.32880  0.92040  Biso   1.000  H
  C121     1.0000 0.86740  0.26520  0.63160  Biso   1.000  C
  C122     1.0000 0.90740  0.27013  0.67130  Biso   1.000  C
  C123     1.0000 0.91981  0.24448  0.73130  Biso   1.000  C
  H98      1.0000 0.90210  0.22480  0.75140  Biso   1.000  H
  C124     1.0000 0.95819  0.24770  0.76210  Biso   1.000  C
  H99      1.0000 0.96670  0.23010  0.80320  Biso   1.000  H
  C125     1.0000 0.98414  0.27650  0.73280  Biso   1.000  C
  C126     1.0000 0.97173  0.30210  0.67270  Biso   1.000  C
  C127     1.0000 0.93335  0.29895  0.64200  Biso   1.000  C
  H100     1.0000 0.92490  0.31650  0.60090  Biso   1.000  H
  C128     1.0000 0.99970  0.33350  0.64050  Biso   1.000  C
  H101     1.0000 0.02550  0.33160  0.66770  Biso   1.000  H
  H102     1.0000 0.98820  0.36010  0.64940  Biso   1.000  H
  H103     1.0000 0.00350  0.32930  0.58340  Biso   1.000  H
  H104     1.0000 0.53720  0.40990  0.95340  Biso   1.000  H
  O41      1.0000 0.28241  0.23210  0.89650  Biso   1.000  O
  O42      1.0000 0.30130  0.15050  0.92220  Biso   1.000  O
  O43      1.0000 0.24220  0.16120  0.85250  Biso   1.000  O
  O44      1.0000 0.29310  0.85840  0.57970  Biso   1.000  O
  O45      1.0000 0.23330  0.84840  0.65020  Biso   1.000  O
  C129     1.0000 0.27440  0.14150  0.87050  Biso   1.000  C
  C130     1.0000 0.27565  0.10046  0.83580  Biso   1.000  C
  C131     1.0000 0.24859  0.08950  0.77710  Biso   1.000  C
  H105     1.0000 0.22930  0.10810  0.75890  Biso   1.000  H
  C132     1.0000 0.24988  0.05126  0.74500  Biso   1.000  C
  H106     1.0000 0.23140  0.04370  0.70490  Biso   1.000  H
  C133     1.0000 0.27821  0.02408  0.77180  Biso   1.000  C
  C134     1.0000 0.30520  0.03510  0.83050  Biso   1.000  C
  C135     1.0000 0.30400  0.07331  0.86250  Biso   1.000  C
  H107     1.0000 0.32250  0.08080  0.90270  Biso   1.000  H
  C136     1.0000 0.33400  0.00470  0.86360  Biso   1.000  C
  H108     1.0000 0.33040  0.97930  0.83580  Biso   1.000  H
  H109     1.0000 0.36140  0.01420  0.85600  Biso   1.000  H
  H110     1.0000 0.32880  0.00100  0.92040  Biso   1.000  H
  C137     1.0000 0.26520  0.86740  0.63160  Biso   1.000  C
  C138     1.0000 0.27013  0.90740  0.67130  Biso   1.000  C
  C139     1.0000 0.24448  0.91981  0.73130  Biso   1.000  C
  H111     1.0000 0.22480  0.90210  0.75140  Biso   1.000  H
  C140     1.0000 0.24770  0.95819  0.76210  Biso   1.000  C
  H112     1.0000 0.23010  0.96670  0.80320  Biso   1.000  H
  C141     1.0000 0.27650  0.98414  0.73280  Biso   1.000  C
  C142     1.0000 0.30210  0.97173  0.67270  Biso   1.000  C
  C143     1.0000 0.29895  0.93335  0.64200  Biso   1.000  C
  H113     1.0000 0.31650  0.92490  0.60090  Biso   1.000  H
  C144     1.0000 0.33350  0.99970  0.64050  Biso   1.000  C
  H114     1.0000 0.33160  0.02550  0.66770  Biso   1.000  H
  H115     1.0000 0.36010  0.98820  0.64940  Biso   1.000  H
  H116     1.0000 0.32930  0.00350  0.58340  Biso   1.000  H
  H117     1.0000 0.40990  0.53720  0.95340  Biso   1.000  H
  O46      1.0000 0.71759  0.76790  0.89650  Biso   1.000  O
  O47      1.0000 0.69870  0.84950  0.92220  Biso   1.000  O
  O48      1.0000 0.75780  0.83880  0.85250  Biso   1.000  O
  O49      1.0000 0.70690  0.14160  0.57970  Biso   1.000  O
  O50      1.0000 0.76670  0.15160  0.65020  Biso   1.000  O
  C145     1.0000 0.72560  0.85850  0.87050  Biso   1.000  C
  C146     1.0000 0.72435  0.89954  0.83580  Biso   1.000  C
  C147     1.0000 0.75141  0.91050  0.77710  Biso   1.000  C
  H118     1.0000 0.77070  0.89190  0.75890  Biso   1.000  H
  C148     1.0000 0.75012  0.94874  0.74500  Biso   1.000  C
  H119     1.0000 0.76860  0.95630  0.70490  Biso   1.000  H
  C149     1.0000 0.72179  0.97592  0.77180  Biso   1.000  C
  C150     1.0000 0.69480  0.96490  0.83050  Biso   1.000  C
  C151     1.0000 0.69600  0.92669  0.86250  Biso   1.000  C
  H120     1.0000 0.67750  0.91920  0.90270  Biso   1.000  H
  C152     1.0000 0.66600  0.99530  0.86360  Biso   1.000  C
  H121     1.0000 0.66960  0.02070  0.83580  Biso   1.000  H
  H122     1.0000 0.63860  0.98580  0.85600  Biso   1.000  H
  H123     1.0000 0.67120  0.99900  0.92040  Biso   1.000  H
  C153     1.0000 0.73480  0.13260  0.63160  Biso   1.000  C
  C154     1.0000 0.72987  0.09260  0.67130  Biso   1.000  C
  C155     1.0000 0.75552  0.08019  0.73130  Biso   1.000  C
  H124     1.0000 0.77520  0.09790  0.75140  Biso   1.000  H
  C156     1.0000 0.75230  0.04181  0.76210  Biso   1.000  C
  H125     1.0000 0.76990  0.03330  0.80320  Biso   1.000  H
  C157     1.0000 0.72350  0.01586  0.73280  Biso   1.000  C
  C158     1.0000 0.69790  0.02827  0.67270  Biso   1.000  C
  C159     1.0000 0.70105  0.06665  0.64200  Biso   1.000  C
  H126     1.0000 0.68350  0.07510  0.60090  Biso   1.000  H
  C160     1.0000 0.66650  0.00030  0.64050  Biso   1.000  C
  H127     1.0000 0.66840  0.97450  0.66770  Biso   1.000  H
  H128     1.0000 0.63990  0.01180  0.64940  Biso   1.000  H
  H129     1.0000 0.67070  0.99650  0.58340  Biso   1.000  H
  H130     1.0000 0.59010  0.46280  0.95340  Biso   1.000  H
  O51      1.0000 0.26790  0.78241  0.39650  Biso   1.000  O
  O52      1.0000 0.34950  0.80130  0.42220  Biso   1.000  O
  O53      1.0000 0.33880  0.74220  0.35250  Biso   1.000  O
  O54      1.0000 0.64160  0.79310  0.07970  Biso   1.000  O
  O55      1.0000 0.65160  0.73330  0.15020  Biso   1.000  O
  C161     1.0000 0.35850  0.77440  0.37050  Biso   1.000  C
  C162     1.0000 0.39954  0.77565  0.33580  Biso   1.000  C
  C163     1.0000 0.41050  0.74859  0.27710  Biso   1.000  C
  H131     1.0000 0.39190  0.72930  0.25890  Biso   1.000  H
  C164     1.0000 0.44874  0.74988  0.24500  Biso   1.000  C
  H132     1.0000 0.45630  0.73140  0.20490  Biso   1.000  H
  C165     1.0000 0.47592  0.77821  0.27180  Biso   1.000  C
  C166     1.0000 0.46490  0.80520  0.33050  Biso   1.000  C
  C167     1.0000 0.42669  0.80400  0.36250  Biso   1.000  C
  H133     1.0000 0.41920  0.82250  0.40270  Biso   1.000  H
  C168     1.0000 0.49530  0.83400  0.36360  Biso   1.000  C
  H134     1.0000 0.52070  0.83040  0.33580  Biso   1.000  H
  H135     1.0000 0.48580  0.86140  0.35600  Biso   1.000  H
  H136     1.0000 0.49900  0.82880  0.42040  Biso   1.000  H
  C169     1.0000 0.63260  0.76520  0.13160  Biso   1.000  C
  C170     1.0000 0.59260  0.77013  0.17130  Biso   1.000  C
  C171     1.0000 0.58019  0.74448  0.23130  Biso   1.000  C
  H137     1.0000 0.59790  0.72480  0.25140  Biso   1.000  H
  C172     1.0000 0.54181  0.74770  0.26210  Biso   1.000  C
  H138     1.0000 0.53330  0.73010  0.30320  Biso   1.000  H
  C173     1.0000 0.51586  0.77650  0.23280  Biso   1.000  C
  C174     1.0000 0.52827  0.80210  0.17270  Biso   1.000  C
  C175     1.0000 0.56665  0.79895  0.14200  Biso   1.000  C
  H139     1.0000 0.57510  0.81650  0.10090  Biso   1.000  H
  C176     1.0000 0.50030  0.83350  0.14050  Biso   1.000  C
  H140     1.0000 0.47450  0.83160  0.16770  Biso   1.000  H
  H141     1.0000 0.51180  0.86010  0.14940  Biso   1.000  H
  H142     1.0000 0.49650  0.82930  0.08340  Biso   1.000  H
  H143     1.0000 0.96280  0.90990  0.45340  Biso   1.000  H
  O56      1.0000 0.73210  0.21759  0.39650  Biso   1.000  O
  O57      1.0000 0.65050  0.19870  0.42220  Biso   1.000  O
  O58      1.0000 0.66120  0.25780  0.35250  Biso   1.000  O
  O59      1.0000 0.35840  0.20690  0.07970  Biso   1.000  O
  O60      1.0000 0.34840  0.26670  0.15020  Biso   1.000  O
  C177     1.0000 0.64150  0.22560  0.37050  Biso   1.000  C
  C178     1.0000 0.60046  0.22435  0.33580  Biso   1.000  C
  C179     1.0000 0.58950  0.25141  0.27710  Biso   1.000  C
  H144     1.0000 0.60810  0.27070  0.25890  Biso   1.000  H
  C180     1.0000 0.55126  0.25012  0.24500  Biso   1.000  C
  H145     1.0000 0.54370  0.26860  0.20490  Biso   1.000  H
  C181     1.0000 0.52408  0.22179  0.27180  Biso   1.000  C
  C182     1.0000 0.53510  0.19480  0.33050  Biso   1.000  C
  C183     1.0000 0.57331  0.19600  0.36250  Biso   1.000  C
  H146     1.0000 0.58080  0.17750  0.40270  Biso   1.000  H
  C184     1.0000 0.50470  0.16600  0.36360  Biso   1.000  C
  H147     1.0000 0.47930  0.16960  0.33580  Biso   1.000  H
  H148     1.0000 0.51420  0.13860  0.35600  Biso   1.000  H
  H149     1.0000 0.50100  0.17120  0.42040  Biso   1.000  H
  C185     1.0000 0.36740  0.23480  0.13160  Biso   1.000  C
  C186     1.0000 0.40740  0.22987  0.17130  Biso   1.000  C
  C187     1.0000 0.41981  0.25552  0.23130  Biso   1.000  C
  H150     1.0000 0.40210  0.27520  0.25140  Biso   1.000  H
  C188     1.0000 0.45819  0.25230  0.26210  Biso   1.000  C
  H151     1.0000 0.46670  0.26990  0.30320  Biso   1.000  H
  C189     1.0000 0.48414  0.22350  0.23280  Biso   1.000  C
  C190     1.0000 0.47173  0.19790  0.17270  Biso   1.000  C
  C191     1.0000 0.43335  0.20105  0.14200  Biso   1.000  C
  H152     1.0000 0.42490  0.18350  0.10090  Biso   1.000  H
  C192     1.0000 0.49970  0.16650  0.14050  Biso   1.000  C
  H153     1.0000 0.52550  0.16840  0.16770  Biso   1.000  H
  H154     1.0000 0.48820  0.13990  0.14940  Biso   1.000  H
  H155     1.0000 0.50350  0.17070  0.08340  Biso   1.000  H
  H156     1.0000 0.03720  0.09010  0.45340  Biso   1.000  H
  O61      1.0000 0.21759  0.73210  0.60350  Biso   1.000  O
  O62      1.0000 0.19870  0.65050  0.57780  Biso   1.000  O
  O63      1.0000 0.25780  0.66120  0.64750  Biso   1.000  O
  O64      1.0000 0.20690  0.35840  0.92030  Biso   1.000  O
  O65      1.0000 0.26670  0.34840  0.84980  Biso   1.000  O
  C193     1.0000 0.22560  0.64150  0.62950  Biso   1.000  C
  C194     1.0000 0.22435  0.60046  0.66420  Biso   1.000  C
  C195     1.0000 0.25141  0.58950  0.72290  Biso   1.000  C
  H157     1.0000 0.27070  0.60810  0.74110  Biso   1.000  H
  C196     1.0000 0.25012  0.55126  0.75500  Biso   1.000  C
  H158     1.0000 0.26860  0.54370  0.79510  Biso   1.000  H
  C197     1.0000 0.22179  0.52408  0.72820  Biso   1.000  C
  C198     1.0000 0.19480  0.53510  0.66950  Biso   1.000  C
  C199     1.0000 0.19600  0.57331  0.63750  Biso   1.000  C
  H159     1.0000 0.17750  0.58080  0.59730  Biso   1.000  H
  C200     1.0000 0.16600  0.50470  0.63640  Biso   1.000  C
  H160     1.0000 0.16960  0.47930  0.66420  Biso   1.000  H
  H161     1.0000 0.13860  0.51420  0.64400  Biso   1.000  H
  H162     1.0000 0.17120  0.50100  0.57960  Biso   1.000  H
  C201     1.0000 0.23480  0.36740  0.86840  Biso   1.000  C
  C202     1.0000 0.22987  0.40740  0.82870  Biso   1.000  C
  C203     1.0000 0.25552  0.41981  0.76870  Biso   1.000  C
  H163     1.0000 0.27520  0.40210  0.74860  Biso   1.000  H
  C204     1.0000 0.25230  0.45819  0.73790  Biso   1.000  C
  H164     1.0000 0.26990  0.46670  0.69680  Biso   1.000  H
  C205     1.0000 0.22350  0.48414  0.76720  Biso   1.000  C
  C206     1.0000 0.19790  0.47173  0.82730  Biso   1.000  C
  C207     1.0000 0.20105  0.43335  0.85800  Biso   1.000  C
  H165     1.0000 0.18350  0.42490  0.89910  Biso   1.000  H
  C208     1.0000 0.16650  0.49970  0.85950  Biso   1.000  C
  H166     1.0000 0.16840  0.52550  0.83230  Biso   1.000  H
  H167     1.0000 0.13990  0.48820  0.85060  Biso   1.000  H
  H168     1.0000 0.17070  0.50350  0.91660  Biso   1.000  H
  H169     1.0000 0.09010  0.03720  0.54660  Biso   1.000  H
  O66      1.0000 0.78241  0.26790  0.60350  Biso   1.000  O
  O67      1.0000 0.80130  0.34950  0.57780  Biso   1.000  O
  O68      1.0000 0.74220  0.33880  0.64750  Biso   1.000  O
  O69      1.0000 0.79310  0.64160  0.92030  Biso   1.000  O
  O70      1.0000 0.73330  0.65160  0.84980  Biso   1.000  O
  C209     1.0000 0.77440  0.35850  0.62950  Biso   1.000  C
  C210     1.0000 0.77565  0.39954  0.66420  Biso   1.000  C
  C211     1.0000 0.74859  0.41050  0.72290  Biso   1.000  C
  H170     1.0000 0.72930  0.39190  0.74110  Biso   1.000  H
  C212     1.0000 0.74988  0.44874  0.75500  Biso   1.000  C
  H171     1.0000 0.73140  0.45630  0.79510  Biso   1.000  H
  C213     1.0000 0.77821  0.47592  0.72820  Biso   1.000  C
  C214     1.0000 0.80520  0.46490  0.66950  Biso   1.000  C
  C215     1.0000 0.80400  0.42669  0.63750  Biso   1.000  C
  H172     1.0000 0.82250  0.41920  0.59730  Biso   1.000  H
  C216     1.0000 0.83400  0.49530  0.63640  Biso   1.000  C
  H173     1.0000 0.83040  0.52070  0.66420  Biso   1.000  H
  H174     1.0000 0.86140  0.48580  0.64400  Biso   1.000  H
  H175     1.0000 0.82880  0.49900  0.57960  Biso   1.000  H
  C217     1.0000 0.76520  0.63260  0.86840  Biso   1.000  C
  C218     1.0000 0.77013  0.59260  0.82870  Biso   1.000  C
  C219     1.0000 0.74448  0.58019  0.76870  Biso   1.000  C
  H176     1.0000 0.72480  0.59790  0.74860  Biso   1.000  H
  C220     1.0000 0.74770  0.54181  0.73790  Biso   1.000  C
  H177     1.0000 0.73010  0.53330  0.69680  Biso   1.000  H
  C221     1.0000 0.77650  0.51586  0.76720  Biso   1.000  C
  C222     1.0000 0.80210  0.52827  0.82730  Biso   1.000  C
  C223     1.0000 0.79895  0.56665  0.85800  Biso   1.000  C
  H178     1.0000 0.81650  0.57510  0.89910  Biso   1.000  H
  C224     1.0000 0.83350  0.50030  0.85950  Biso   1.000  C
  H179     1.0000 0.83160  0.47450  0.83230  Biso   1.000  H
  H180     1.0000 0.86010  0.51180  0.85060  Biso   1.000  H
  H181     1.0000 0.82930  0.49650  0.91660  Biso   1.000  H
  H182     1.0000 0.90990  0.96280  0.54660  Biso   1.000  H
  O71      1.0000 0.23210  0.28241  0.10350  Biso   1.000  O
  O72      1.0000 0.15050  0.30130  0.07780  Biso   1.000  O
  O73      1.0000 0.16120  0.24220  0.14750  Biso   1.000  O
  O74      1.0000 0.85840  0.29310  0.42030  Biso   1.000  O
  O75      1.0000 0.84840  0.23330  0.34980  Biso   1.000  O
  C225     1.0000 0.14150  0.27440  0.12950  Biso   1.000  C
  C226     1.0000 0.10046  0.27565  0.16420  Biso   1.000  C
  C227     1.0000 0.08950  0.24859  0.22290  Biso   1.000  C
  H183     1.0000 0.10810  0.22930  0.24110  Biso   1.000  H
  C228     1.0000 0.05126  0.24988  0.25500  Biso   1.000  C
  H184     1.0000 0.04370  0.23140  0.29510  Biso   1.000  H
  C229     1.0000 0.02408  0.27821  0.22820  Biso   1.000  C
  C230     1.0000 0.03510  0.30520  0.16950  Biso   1.000  C
  C231     1.0000 0.07331  0.30400  0.13750  Biso   1.000  C
  H185     1.0000 0.08080  0.32250  0.09730  Biso   1.000  H
  C232     1.0000 0.00470  0.33400  0.13640  Biso   1.000  C
  H186     1.0000 0.97930  0.33040  0.16420  Biso   1.000  H
  H187     1.0000 0.01420  0.36140  0.14400  Biso   1.000  H
  H188     1.0000 0.00100  0.32880  0.07960  Biso   1.000  H
  C233     1.0000 0.86740  0.26520  0.36840  Biso   1.000  C
  C234     1.0000 0.90740  0.27013  0.32870  Biso   1.000  C
  C235     1.0000 0.91981  0.24448  0.26870  Biso   1.000  C
  H189     1.0000 0.90210  0.22480  0.24860  Biso   1.000  H
  C236     1.0000 0.95819  0.24770  0.23790  Biso   1.000  C
  H190     1.0000 0.96670  0.23010  0.19680  Biso   1.000  H
  C237     1.0000 0.98414  0.27650  0.26720  Biso   1.000  C
  C238     1.0000 0.97173  0.30210  0.32730  Biso   1.000  C
  C239     1.0000 0.93335  0.29895  0.35800  Biso   1.000  C
  H191     1.0000 0.92490  0.31650  0.39910  Biso   1.000  H
  C240     1.0000 0.99970  0.33350  0.35950  Biso   1.000  C
  H192     1.0000 0.02550  0.33160  0.33230  Biso   1.000  H
  H193     1.0000 0.98820  0.36010  0.35060  Biso   1.000  H
  H194     1.0000 0.00350  0.32930  0.41660  Biso   1.000  H
  H195     1.0000 0.53720  0.40990  0.04660  Biso   1.000  H
  O76      1.0000 0.76790  0.71759  0.10350  Biso   1.000  O
  O77      1.0000 0.84950  0.69870  0.07780  Biso   1.000  O
  O78      1.0000 0.83880  0.75780  0.14750  Biso   1.000  O
  O79      1.0000 0.14160  0.70690  0.42030  Biso   1.000  O
  O80      1.0000 0.15160  0.76670  0.34980  Biso   1.000  O
  C241     1.0000 0.85850  0.72560  0.12950  Biso   1.000  C
  C242     1.0000 0.89954  0.72435  0.16420  Biso   1.000  C
  C243     1.0000 0.91050  0.75141  0.22290  Biso   1.000  C
  H196     1.0000 0.89190  0.77070  0.24110  Biso   1.000  H
  C244     1.0000 0.94874  0.75012  0.25500  Biso   1.000  C
  H197     1.0000 0.95630  0.76860  0.29510  Biso   1.000  H
  C245     1.0000 0.97592  0.72179  0.22820  Biso   1.000  C
  C246     1.0000 0.96490  0.69480  0.16950  Biso   1.000  C
  C247     1.0000 0.92669  0.69600  0.13750  Biso   1.000  C
  H198     1.0000 0.91920  0.67750  0.09730  Biso   1.000  H
  C248     1.0000 0.99530  0.66600  0.13640  Biso   1.000  C
  H199     1.0000 0.02070  0.66960  0.16420  Biso   1.000  H
  H200     1.0000 0.98580  0.63860  0.14400  Biso   1.000  H
  H201     1.0000 0.99900  0.67120  0.07960  Biso   1.000  H
  C249     1.0000 0.13260  0.73480  0.36840  Biso   1.000  C
  C250     1.0000 0.09260  0.72987  0.32870  Biso   1.000  C
  C251     1.0000 0.08019  0.75552  0.26870  Biso   1.000  C
  H202     1.0000 0.09790  0.77520  0.24860  Biso   1.000  H
  C252     1.0000 0.04181  0.75230  0.23790  Biso   1.000  C
  H203     1.0000 0.03330  0.76990  0.19680  Biso   1.000  H
  C253     1.0000 0.01586  0.72350  0.26720  Biso   1.000  C
  C254     1.0000 0.02827  0.69790  0.32730  Biso   1.000  C
  C255     1.0000 0.06665  0.70105  0.35800  Biso   1.000  C
  H204     1.0000 0.07510  0.68350  0.39910  Biso   1.000  H
  C256     1.0000 0.00030  0.66650  0.35950  Biso   1.000  C
  H205     1.0000 0.97450  0.66840  0.33230  Biso   1.000  H
  H206     1.0000 0.01180  0.63990  0.35060  Biso   1.000  H
  H207     1.0000 0.99650  0.67070  0.41660  Biso   1.000  H
  H208     1.0000 0.46280  0.59010  0.04660  Biso   1.000  H
  Zr1      1.0000 0.69361  0.79805  0.00000  Biso   1.000  Zr
  O81      1.0000 0.75200  0.80500  0.00000  Biso   1.000  O
  O82      1.0000 0.68420  0.73550  0.00000  Biso   1.000  O
  C257     1.0000 0.58430  0.47830  0.00000  Biso   1.000  C
  H209     1.0000 0.60060  0.50200  0.00000  Biso   1.000  H
  C258     1.0000 0.53940  0.48850  0.00000  Biso   1.000  C
  C259     1.0000 0.49000  0.54080  0.00000  Biso   1.000  C
  H210     1.0000 0.56680  0.48040  0.00000  Biso   1.000  H
  Zr2      1.0000 0.30639  0.20195  0.00000  Biso   1.000  Zr
  O83      1.0000 0.24800  0.19500  0.00000  Biso   1.000  O
  O84      1.0000 0.31580  0.26450  0.00000  Biso   1.000  O
  C260     1.0000 0.41570  0.52170  0.00000  Biso   1.000  C
  H211     1.0000 0.39940  0.49800  0.00000  Biso   1.000  H
  C261     1.0000 0.46060  0.51150  0.00000  Biso   1.000  C
  C262     1.0000 0.51000  0.45920  0.00000  Biso   1.000  C
  H212     1.0000 0.43320  0.51960  0.00000  Biso   1.000  H
  Zr3      1.0000 0.70195  0.19361  0.50000  Biso   1.000  Zr
  O85      1.0000 0.69500  0.25200  0.50000  Biso   1.000  O
  O86      1.0000 0.76450  0.18420  0.50000  Biso   1.000  O
  C263     1.0000 0.02170  0.08430  0.50000  Biso   1.000  C
  H213     1.0000 0.99800  0.10060  0.50000  Biso   1.000  H
  C264     1.0000 0.01150  0.03940  0.50000  Biso   1.000  C
  C265     1.0000 0.95920  0.99000  0.50000  Biso   1.000  C
  H214     1.0000 0.01960  0.06680  0.50000  Biso   1.000  H
  Zr4      1.0000 0.29805  0.80639  0.50000  Biso   1.000  Zr
  O87      1.0000 0.30500  0.74800  0.50000  Biso   1.000  O
  O88      1.0000 0.23550  0.81580  0.50000  Biso   1.000  O
  C266     1.0000 0.97830  0.91570  0.50000  Biso   1.000  C
  H215     1.0000 0.00200  0.89940  0.50000  Biso   1.000  H
  C267     1.0000 0.98850  0.96060  0.50000  Biso   1.000  C
  C268     1.0000 0.04080  0.01000  0.50000  Biso   1.000  C
  H216     1.0000 0.98040  0.93320  0.50000  Biso   1.000  H
  Zr5      1.0000 0.80639  0.29805  0.50000  Biso   1.000  Zr
  O89      1.0000 0.74800  0.30500  0.50000  Biso   1.000  O
  O90      1.0000 0.81580  0.23550  0.50000  Biso   1.000  O
  C269     1.0000 0.91570  0.97830  0.50000  Biso   1.000  C
  H217     1.0000 0.89940  0.00200  0.50000  Biso   1.000  H
  C270     1.0000 0.96060  0.98850  0.50000  Biso   1.000  C
  C271     1.0000 0.01000  0.04080  0.50000  Biso   1.000  C
  H218     1.0000 0.93320  0.98040  0.50000  Biso   1.000  H
  Zr6      1.0000 0.19361  0.70195  0.50000  Biso   1.000  Zr
  O91      1.0000 0.25200  0.69500  0.50000  Biso   1.000  O
  O92      1.0000 0.18420  0.76450  0.50000  Biso   1.000  O
  C272     1.0000 0.08430  0.02170  0.50000  Biso   1.000  C
  H219     1.0000 0.10060  0.99800  0.50000  Biso   1.000  H
  C273     1.0000 0.03940  0.01150  0.50000  Biso   1.000  C
  C274     1.0000 0.99000  0.95920  0.50000  Biso   1.000  C
  H220     1.0000 0.06680  0.01960  0.50000  Biso   1.000  H
  Zr7      1.0000 0.79805  0.69361  0.00000  Biso   1.000  Zr
  O93      1.0000 0.80500  0.75200  0.00000  Biso   1.000  O
  O94      1.0000 0.73550  0.68420  0.00000  Biso   1.000  O
  C275     1.0000 0.47830  0.58430  0.00000  Biso   1.000  C
  H221     1.0000 0.50200  0.60060  0.00000  Biso   1.000  H
  C276     1.0000 0.48850  0.53940  0.00000  Biso   1.000  C
  C277     1.0000 0.54080  0.49000  0.00000  Biso   1.000  C
  H222     1.0000 0.48040  0.56680  0.00000  Biso   1.000  H
  Zr8      1.0000 0.20195  0.30639  0.00000  Biso   1.000  Zr
  O95      1.0000 0.19500  0.24800  0.00000  Biso   1.000  O
  O96      1.0000 0.26450  0.31580  0.00000  Biso   1.000  O
  C278     1.0000 0.52170  0.41570  0.00000  Biso   1.000  C
  H223     1.0000 0.49800  0.39940  0.00000  Biso   1.000  H
  C279     1.0000 0.51150  0.46060  0.00000  Biso   1.000  C
  C280     1.0000 0.45920  0.51000  0.00000  Biso   1.000  C
  H224     1.0000 0.51960  0.43320  0.00000  Biso   1.000  H
  Zr9      1.0000 0.78212  0.78212  0.10437  Biso   1.000  Zr
  Zr10     1.0000 0.70871  0.70871  0.10389  Biso   1.000  Zr
  O97      1.0000 0.66310  0.66310  0.06930  Biso   1.000  O
  C281     1.0000 0.60592  0.60592  0.07153  Biso   1.000  C
  H225     1.0000 0.61590  0.61590  0.12040  Biso   1.000  H
  C282     1.0000 0.57658  0.57658  0.07153  Biso   1.000  C
  H226     1.0000 0.56660  0.56660  0.12040  Biso   1.000  H
  C283     1.0000 0.74020  0.74020  0.26290  Biso   1.000  C
  C284     1.0000 0.73750  0.73750  0.35240  Biso   1.000  C
  C285     1.0000 0.76150  0.76150  0.40000  Biso   1.000  C
  H227     1.0000 0.77980  0.77980  0.37630  Biso   1.000  H
  C286     1.0000 0.75887  0.75887  0.48230  Biso   1.000  C
  C287     1.0000 0.73225  0.73225  0.51710  Biso   1.000  C
  C288     1.0000 0.70826  0.70826  0.46940  Biso   1.000  C
  H228     1.0000 0.68970  0.68970  0.49320  Biso   1.000  H
  C289     1.0000 0.71090  0.71090  0.38720  Biso   1.000  C
  H229     1.0000 0.69425  0.69425  0.35420  Biso   1.000  H
  C290     1.0000 0.72960  0.72960  0.59930  Biso   1.000  C
  H230     1.0000 0.71105  0.71105  0.62320  Biso   1.000  H
  C291     1.0000 0.75360  0.75360  0.64690  Biso   1.000  C
  C292     1.0000 0.78020  0.78020  0.61220  Biso   1.000  C
  H231     1.0000 0.79655  0.79655  0.64520  Biso   1.000  H
  C293     1.0000 0.78285  0.78285  0.52990  Biso   1.000  C
  C294     1.0000 0.75090  0.75090  0.73610  Biso   1.000  C
  O98      1.0000 0.71640  0.71640  0.22870  Biso   1.000  O
  O99      1.0000 0.76540  0.76540  0.23870  Biso   1.000  O
  O100     1.0000 0.72580  0.72580  0.76080  Biso   1.000  O
  O101     1.0000 0.77430  0.77430  0.77150  Biso   1.000  O
  Zr11     1.0000 0.21788  0.21788  0.10437  Biso   1.000  Zr
  Zr12     1.0000 0.29129  0.29129  0.10389  Biso   1.000  Zr
  O102     1.0000 0.33690  0.33690  0.06930  Biso   1.000  O
  C295     1.0000 0.39408  0.39408  0.07153  Biso   1.000  C
  H232     1.0000 0.38410  0.38410  0.12040  Biso   1.000  H
  C296     1.0000 0.42342  0.42342  0.07153  Biso   1.000  C
  H233     1.0000 0.43340  0.43340  0.12040  Biso   1.000  H
  C297     1.0000 0.25980  0.25980  0.26290  Biso   1.000  C
  C298     1.0000 0.26250  0.26250  0.35240  Biso   1.000  C
  C299     1.0000 0.23850  0.23850  0.40000  Biso   1.000  C
  H234     1.0000 0.22020  0.22020  0.37630  Biso   1.000  H
  C300     1.0000 0.24113  0.24113  0.48230  Biso   1.000  C
  C301     1.0000 0.26775  0.26775  0.51710  Biso   1.000  C
  C302     1.0000 0.29174  0.29174  0.46940  Biso   1.000  C
  H235     1.0000 0.31030  0.31030  0.49320  Biso   1.000  H
  C303     1.0000 0.28910  0.28910  0.38720  Biso   1.000  C
  H236     1.0000 0.30575  0.30575  0.35420  Biso   1.000  H
  C304     1.0000 0.27040  0.27040  0.59930  Biso   1.000  C
  H237     1.0000 0.28895  0.28895  0.62320  Biso   1.000  H
  C305     1.0000 0.24640  0.24640  0.64690  Biso   1.000  C
  C306     1.0000 0.21980  0.21980  0.61220  Biso   1.000  C
  H238     1.0000 0.20345  0.20345  0.64520  Biso   1.000  H
  C307     1.0000 0.21715  0.21715  0.52990  Biso   1.000  C
  C308     1.0000 0.24910  0.24910  0.73610  Biso   1.000  C
  O103     1.0000 0.28360  0.28360  0.22870  Biso   1.000  O
  O104     1.0000 0.23460  0.23460  0.23870  Biso   1.000  O
  O105     1.0000 0.27420  0.27420  0.76080  Biso   1.000  O
  O106     1.0000 0.22570  0.22570  0.77150  Biso   1.000  O
  Zr13     1.0000 0.71788  0.28212  0.60437  Biso   1.000  Zr
  Zr14     1.0000 0.79129  0.20871  0.60389  Biso   1.000  Zr
  O107     1.0000 0.83690  0.16310  0.56930  Biso   1.000  O
  C309     1.0000 0.89408  0.10592  0.57153  Biso   1.000  C
  H239     1.0000 0.88410  0.11590  0.62040  Biso   1.000  H
  C310     1.0000 0.92342  0.07658  0.57153  Biso   1.000  C
  H240     1.0000 0.93340  0.06660  0.62040  Biso   1.000  H
  C311     1.0000 0.75980  0.24020  0.76290  Biso   1.000  C
  C312     1.0000 0.76250  0.23750  0.85240  Biso   1.000  C
  C313     1.0000 0.73850  0.26150  0.90000  Biso   1.000  C
  H241     1.0000 0.72020  0.27980  0.87630  Biso   1.000  H
  C314     1.0000 0.74113  0.25887  0.98230  Biso   1.000  C
  C315     1.0000 0.76775  0.23225  0.01710  Biso   1.000  C
  C316     1.0000 0.79174  0.20826  0.96940  Biso   1.000  C
  H242     1.0000 0.81030  0.18970  0.99320  Biso   1.000  H
  C317     1.0000 0.78910  0.21090  0.88720  Biso   1.000  C
  H243     1.0000 0.80575  0.19425  0.85420  Biso   1.000  H
  C318     1.0000 0.77040  0.22960  0.09930  Biso   1.000  C
  H244     1.0000 0.78895  0.21105  0.12320  Biso   1.000  H
  C319     1.0000 0.74640  0.25360  0.14690  Biso   1.000  C
  C320     1.0000 0.71980  0.28020  0.11220  Biso   1.000  C
  H245     1.0000 0.70345  0.29655  0.14520  Biso   1.000  H
  C321     1.0000 0.71715  0.28285  0.02990  Biso   1.000  C
  C322     1.0000 0.74910  0.25090  0.23610  Biso   1.000  C
  O108     1.0000 0.78360  0.21640  0.72870  Biso   1.000  O
  O109     1.0000 0.73460  0.26540  0.73870  Biso   1.000  O
  O110     1.0000 0.77420  0.22580  0.26080  Biso   1.000  O
  O111     1.0000 0.72570  0.27430  0.27150  Biso   1.000  O
  Zr15     1.0000 0.28212  0.71788  0.60437  Biso   1.000  Zr
  Zr16     1.0000 0.20871  0.79129  0.60389  Biso   1.000  Zr
  O112     1.0000 0.16310  0.83690  0.56930  Biso   1.000  O
  C323     1.0000 0.10592  0.89408  0.57153  Biso   1.000  C
  H246     1.0000 0.11590  0.88410  0.62040  Biso   1.000  H
  C324     1.0000 0.07658  0.92342  0.57153  Biso   1.000  C
  H247     1.0000 0.06660  0.93340  0.62040  Biso   1.000  H
  C325     1.0000 0.24020  0.75980  0.76290  Biso   1.000  C
  C326     1.0000 0.23750  0.76250  0.85240  Biso   1.000  C
  C327     1.0000 0.26150  0.73850  0.90000  Biso   1.000  C
  H248     1.0000 0.27980  0.72020  0.87630  Biso   1.000  H
  C328     1.0000 0.25887  0.74113  0.98230  Biso   1.000  C
  C329     1.0000 0.23225  0.76775  0.01710  Biso   1.000  C
  C330     1.0000 0.20826  0.79174  0.96940  Biso   1.000  C
  H249     1.0000 0.18970  0.81030  0.99320  Biso   1.000  H
  C331     1.0000 0.21090  0.78910  0.88720  Biso   1.000  C
  H250     1.0000 0.19425  0.80575  0.85420  Biso   1.000  H
  C332     1.0000 0.22960  0.77040  0.09930  Biso   1.000  C
  H251     1.0000 0.21105  0.78895  0.12320  Biso   1.000  H
  C333     1.0000 0.25360  0.74640  0.14690  Biso   1.000  C
  C334     1.0000 0.28020  0.71980  0.11220  Biso   1.000  C
  H252     1.0000 0.29655  0.70345  0.14520  Biso   1.000  H
  C335     1.0000 0.28285  0.71715  0.02990  Biso   1.000  C
  C336     1.0000 0.25090  0.74910  0.23610  Biso   1.000  C
  O113     1.0000 0.21640  0.78360  0.72870  Biso   1.000  O
  O114     1.0000 0.26540  0.73460  0.73870  Biso   1.000  O
  O115     1.0000 0.22580  0.77420  0.26080  Biso   1.000  O
  O116     1.0000 0.27430  0.72570  0.27150  Biso   1.000  O
  Zr17     1.0000 0.71788  0.28212  0.39563  Biso   1.000  Zr
  Zr18     1.0000 0.79129  0.20871  0.39611  Biso   1.000  Zr
  O117     1.0000 0.83690  0.16310  0.43070  Biso   1.000  O
  C337     1.0000 0.89408  0.10592  0.42847  Biso   1.000  C
  H253     1.0000 0.88410  0.11590  0.37960  Biso   1.000  H
  C338     1.0000 0.92342  0.07658  0.42847  Biso   1.000  C
  H254     1.0000 0.93340  0.06660  0.37960  Biso   1.000  H
  C339     1.0000 0.75980  0.24020  0.23710  Biso   1.000  C
  C340     1.0000 0.76250  0.23750  0.14760  Biso   1.000  C
  C341     1.0000 0.73850  0.26150  0.10000  Biso   1.000  C
  H255     1.0000 0.72020  0.27980  0.12370  Biso   1.000  H
  C342     1.0000 0.74113  0.25887  0.01770  Biso   1.000  C
  C343     1.0000 0.76775  0.23225  0.98290  Biso   1.000  C
  C344     1.0000 0.79174  0.20826  0.03060  Biso   1.000  C
  H256     1.0000 0.81030  0.18970  0.00680  Biso   1.000  H
  C345     1.0000 0.78910  0.21090  0.11280  Biso   1.000  C
  H257     1.0000 0.80575  0.19425  0.14580  Biso   1.000  H
  C346     1.0000 0.77040  0.22960  0.90070  Biso   1.000  C
  H258     1.0000 0.78895  0.21105  0.87680  Biso   1.000  H
  C347     1.0000 0.74640  0.25360  0.85310  Biso   1.000  C
  C348     1.0000 0.71980  0.28020  0.88780  Biso   1.000  C
  H259     1.0000 0.70345  0.29655  0.85480  Biso   1.000  H
  C349     1.0000 0.71715  0.28285  0.97010  Biso   1.000  C
  C350     1.0000 0.74910  0.25090  0.76390  Biso   1.000  C
  O118     1.0000 0.78360  0.21640  0.27130  Biso   1.000  O
  O119     1.0000 0.73460  0.26540  0.26130  Biso   1.000  O
  O120     1.0000 0.77420  0.22580  0.73920  Biso   1.000  O
  O121     1.0000 0.72570  0.27430  0.72850  Biso   1.000  O
  Zr19     1.0000 0.28212  0.71788  0.39563  Biso   1.000  Zr
  Zr20     1.0000 0.20871  0.79129  0.39611  Biso   1.000  Zr
  O122     1.0000 0.16310  0.83690  0.43070  Biso   1.000  O
  C351     1.0000 0.10592  0.89408  0.42847  Biso   1.000  C
  H260     1.0000 0.11590  0.88410  0.37960  Biso   1.000  H
  C352     1.0000 0.07658  0.92342  0.42847  Biso   1.000  C
  H261     1.0000 0.06660  0.93340  0.37960  Biso   1.000  H
  C353     1.0000 0.24020  0.75980  0.23710  Biso   1.000  C
  C354     1.0000 0.23750  0.76250  0.14760  Biso   1.000  C
  C355     1.0000 0.26150  0.73850  0.10000  Biso   1.000  C
  H262     1.0000 0.27980  0.72020  0.12370  Biso   1.000  H
  C356     1.0000 0.25887  0.74113  0.01770  Biso   1.000  C
  C357     1.0000 0.23225  0.76775  0.98290  Biso   1.000  C
  C358     1.0000 0.20826  0.79174  0.03060  Biso   1.000  C
  H263     1.0000 0.18970  0.81030  0.00680  Biso   1.000  H
  C359     1.0000 0.21090  0.78910  0.11280  Biso   1.000  C
  H264     1.0000 0.19425  0.80575  0.14580  Biso   1.000  H
  C360     1.0000 0.22960  0.77040  0.90070  Biso   1.000  C
  H265     1.0000 0.21105  0.78895  0.87680  Biso   1.000  H
  C361     1.0000 0.25360  0.74640  0.85310  Biso   1.000  C
  C362     1.0000 0.28020  0.71980  0.88780  Biso   1.000  C
  H266     1.0000 0.29655  0.70345  0.85480  Biso   1.000  H
  C363     1.0000 0.28285  0.71715  0.97010  Biso   1.000  C
  C364     1.0000 0.25090  0.74910  0.76390  Biso   1.000  C
  O123     1.0000 0.21640  0.78360  0.27130  Biso   1.000  O
  O124     1.0000 0.26540  0.73460  0.26130  Biso   1.000  O
  O125     1.0000 0.22580  0.77420  0.73920  Biso   1.000  O
  O126     1.0000 0.27430  0.72570  0.72850  Biso   1.000  O
  Zr21     1.0000 0.78212  0.78212  0.89563  Biso   1.000  Zr
  Zr22     1.0000 0.70871  0.70871  0.89611  Biso   1.000  Zr
  O127     1.0000 0.66310  0.66310  0.93070  Biso   1.000  O
  C365     1.0000 0.60592  0.60592  0.92847  Biso   1.000  C
  H267     1.0000 0.61590  0.61590  0.87960  Biso   1.000  H
  C366     1.0000 0.57658  0.57658  0.92847  Biso   1.000  C
  H268     1.0000 0.56660  0.56660  0.87960  Biso   1.000  H
  C367     1.0000 0.74020  0.74020  0.73710  Biso   1.000  C
  C368     1.0000 0.73750  0.73750  0.64760  Biso   1.000  C
  C369     1.0000 0.76150  0.76150  0.60000  Biso   1.000  C
  H269     1.0000 0.77980  0.77980  0.62370  Biso   1.000  H
  C370     1.0000 0.75887  0.75887  0.51770  Biso   1.000  C
  C371     1.0000 0.73225  0.73225  0.48290  Biso   1.000  C
  C372     1.0000 0.70826  0.70826  0.53060  Biso   1.000  C
  H270     1.0000 0.68970  0.68970  0.50680  Biso   1.000  H
  C373     1.0000 0.71090  0.71090  0.61280  Biso   1.000  C
  H271     1.0000 0.69425  0.69425  0.64580  Biso   1.000  H
  C374     1.0000 0.72960  0.72960  0.40070  Biso   1.000  C
  H272     1.0000 0.71105  0.71105  0.37680  Biso   1.000  H
  C375     1.0000 0.75360  0.75360  0.35310  Biso   1.000  C
  C376     1.0000 0.78020  0.78020  0.38780  Biso   1.000  C
  H273     1.0000 0.79655  0.79655  0.35480  Biso   1.000  H
  C377     1.0000 0.78285  0.78285  0.47010  Biso   1.000  C
  C378     1.0000 0.75090  0.75090  0.26390  Biso   1.000  C
  O128     1.0000 0.71640  0.71640  0.77130  Biso   1.000  O
  O129     1.0000 0.76540  0.76540  0.76130  Biso   1.000  O
  O130     1.0000 0.72580  0.72580  0.23920  Biso   1.000  O
  O131     1.0000 0.77430  0.77430  0.22850  Biso   1.000  O
  Zr23     1.0000 0.21788  0.21788  0.89563  Biso   1.000  Zr
  Zr24     1.0000 0.29129  0.29129  0.89611  Biso   1.000  Zr
  O132     1.0000 0.33690  0.33690  0.93070  Biso   1.000  O
  C379     1.0000 0.39408  0.39408  0.92847  Biso   1.000  C
  H274     1.0000 0.38410  0.38410  0.87960  Biso   1.000  H
  C380     1.0000 0.42342  0.42342  0.92847  Biso   1.000  C
  H275     1.0000 0.43340  0.43340  0.87960  Biso   1.000  H
  C381     1.0000 0.25980  0.25980  0.73710  Biso   1.000  C
  C382     1.0000 0.26250  0.26250  0.64760  Biso   1.000  C
  C383     1.0000 0.23850  0.23850  0.60000  Biso   1.000  C
  H276     1.0000 0.22020  0.22020  0.62370  Biso   1.000  H
  C384     1.0000 0.24113  0.24113  0.51770  Biso   1.000  C
  C385     1.0000 0.26775  0.26775  0.48290  Biso   1.000  C
  C386     1.0000 0.29174  0.29174  0.53060  Biso   1.000  C
  H277     1.0000 0.31030  0.31030  0.50680  Biso   1.000  H
  C387     1.0000 0.28910  0.28910  0.61280  Biso   1.000  C
  H278     1.0000 0.30575  0.30575  0.64580  Biso   1.000  H
  C388     1.0000 0.27040  0.27040  0.40070  Biso   1.000  C
  H279     1.0000 0.28895  0.28895  0.37680  Biso   1.000  H
  C389     1.0000 0.24640  0.24640  0.35310  Biso   1.000  C
  C390     1.0000 0.21980  0.21980  0.38780  Biso   1.000  C
  H280     1.0000 0.20345  0.20345  0.35480  Biso   1.000  H
  C391     1.0000 0.21715  0.21715  0.47010  Biso   1.000  C
  C392     1.0000 0.24910  0.24910  0.26390  Biso   1.000  C
  O133     1.0000 0.28360  0.28360  0.77130  Biso   1.000  O
  O134     1.0000 0.23460  0.23460  0.76130  Biso   1.000  O
  O135     1.0000 0.27420  0.27420  0.23920  Biso   1.000  O
  O136     1.0000 0.22570  0.22570  0.22850  Biso   1.000  O
  C393     1.0000 0.65250  0.65250  0.00000  Biso   1.000  C
  C394     1.0000 0.62060  0.62060  0.00000  Biso   1.000  C
  C395     1.0000 0.56190  0.56190  0.00000  Biso   1.000  C
  C396     1.0000 0.53010  0.53010  0.00000  Biso   1.000  C
  C397     1.0000 0.34750  0.34750  0.00000  Biso   1.000  C
  C398     1.0000 0.37940  0.37940  0.00000  Biso   1.000  C
  C399     1.0000 0.43810  0.43810  0.00000  Biso   1.000  C
  C400     1.0000 0.46990  0.46990  0.00000  Biso   1.000  C
  C401     1.0000 0.84750  0.15250  0.50000  Biso   1.000  C
  C402     1.0000 0.87940  0.12060  0.50000  Biso   1.000  C
  C403     1.0000 0.93810  0.06190  0.50000  Biso   1.000  C
  C404     1.0000 0.96990  0.03010  0.50000  Biso   1.000  C
  C405     1.0000 0.15250  0.84750  0.50000  Biso   1.000  C
  C406     1.0000 0.12060  0.87940  0.50000  Biso   1.000  C
  C407     1.0000 0.06190  0.93810  0.50000  Biso   1.000  C
  C408     1.0000 0.03010  0.96990  0.50000  Biso   1.000  C
  H281     1.0000 0.80115  0.80115  0.50000  Biso   1.000  H
  H282     1.0000 0.19885  0.19885  0.50000  Biso   1.000  H
  H283     1.0000 0.69885  0.30115  0.00000  Biso   1.000  H
  H284     1.0000 0.30115  0.69885  0.00000  Biso   1.000  H
