data_image0
_cell_length_a       22.0058
_cell_length_b       22.0058
_cell_length_c       72.831
_cell_angle_alpha    90
_cell_angle_beta     90
_cell_angle_gamma    90

_symmetry_space_group_name_H-M    "P 1"
_symmetry_int_tables_number       1

loop_
  _symmetry_equiv_pos_as_xyz
  'x, y, z'

loop_
  _atom_site_label
  _atom_site_occupancy
  _atom_site_fract_x
  _atom_site_fract_y
  _atom_site_fract_z
  _atom_site_thermal_displace_type
  _atom_site_B_iso_or_equiv
  _atom_site_type_symbol
  Co1      1.0000 0.47966  0.90163  0.50949  Biso   1.000  Co
  Co2      1.0000 0.40162  0.02015  0.50163  Biso   1.000  Co
  Co3      1.0000 0.62008  0.89051  0.53540  Biso   1.000  Co
  Co4      1.0000 0.39029  0.87943  0.47578  Biso   1.000  Co
  O1       1.0000 0.39517  0.92908  0.50039  Biso   1.000  O
  H1       1.0000 0.36310  0.91460  0.50910  Biso   1.000  H
  O2       1.0000 0.57229  0.89401  0.51127  Biso   1.000  O
  H2       1.0000 0.58710  0.86170  0.50270  Biso   1.000  H
  O3       1.0000 0.46628  0.92488  0.53717  Biso   1.000  O
  O4       1.0000 0.54598  0.89290  0.55257  Biso   1.000  O
  O5       1.0000 0.42723  0.03632  0.47423  Biso   1.000  O
  O6       1.0000 0.70132  0.89048  0.52077  Biso   1.000  O
  O7       1.0000 0.39296  0.79917  0.49040  Biso   1.000  O
  O8       1.0000 0.68580  0.95522  0.49666  Biso   1.000  O
  N1       1.0000 0.29262  0.87890  0.47531  Biso   1.000  N
  N2       1.0000 0.17329  0.89888  0.70081  Biso   1.000  N
  N3       1.0000 0.37590  0.20597  0.53586  Biso   1.000  N
  C1       1.0000 0.71830  0.91920  0.50705  Biso   1.000  C
  C2       1.0000 0.42280  0.78100  0.50438  Biso   1.000  C
  C3       1.0000 0.41350  0.71720  0.50906  Biso   1.000  C
  C4       1.0000 0.49060  0.90730  0.55174  Biso   1.000  C
  C5       1.0000 0.41300  0.00620  0.45937  Biso   1.000  C
  C6       1.0000 0.42290  0.63560  0.53190  Biso   1.000  C
  H3       1.0000 0.43390  0.62360  0.54400  Biso   1.000  H
  C7       1.0000 0.38640  0.33280  0.53120  Biso   1.000  C
  C8       1.0000 0.24710  0.90480  0.66893  Biso   1.000  C
  C9       1.0000 0.34920  0.29960  0.52054  Biso   1.000  C
  H4       1.0000 0.33010  0.31840  0.51030  Biso   1.000  H
  C10      1.0000 0.42240  0.30230  0.54327  Biso   1.000  C
  H5       1.0000 0.45100  0.32320  0.55070  Biso   1.000  H
  C11      1.0000 0.26250  0.85290  0.48997  Biso   1.000  C
  H6       1.0000 0.28630  0.83460  0.49930  Biso   1.000  H
  C12      1.0000 0.48326  0.92843  0.58599  Biso   1.000  C
  H7       1.0000 0.52530  0.93810  0.58660  Biso   1.000  H
  C13      1.0000 0.45627  0.91560  0.56918  Biso   1.000  C
  C14      1.0000 0.39476  0.90150  0.56834  Biso   1.000  C
  H8       1.0000 0.37630  0.89270  0.55690  Biso   1.000  H
  C15      1.0000 0.36024  0.90024  0.58432  Biso   1.000  C
  H9       1.0000 0.31820  0.89060  0.58380  Biso   1.000  H
  C16      1.0000 0.38723  0.91307  0.60113  Biso   1.000  C
  C17      1.0000 0.44874  0.92717  0.60197  Biso   1.000  C
  H10      1.0000 0.46720  0.93590  0.61350  Biso   1.000  H
  C18      1.0000 0.25870  0.90260  0.46226  Biso   1.000  C
  H11      1.0000 0.27770  0.91990  0.45180  Biso   1.000  H
  C19      1.0000 0.41991  0.14067  0.42564  Biso   1.000  C
  H12      1.0000 0.42540  0.18350  0.42580  Biso   1.000  H
  C20      1.0000 0.41629  0.10853  0.44203  Biso   1.000  C
  H13      1.0000 0.41930  0.12940  0.45340  Biso   1.000  H
  C21      1.0000 0.40821  0.04589  0.44176  Biso   1.000  C
  C22      1.0000 0.40375  0.01539  0.42510  Biso   1.000  C
  H14      1.0000 0.39820  0.97260  0.42490  Biso   1.000  H
  C23      1.0000 0.40740  0.04753  0.40871  Biso   1.000  C
  H15      1.0000 0.40430  0.02670  0.39730  Biso   1.000  H
  C24      1.0000 0.41544  0.11017  0.40898  Biso   1.000  C
  C25      1.0000 0.20280  0.85170  0.49182  Biso   1.000  C
  H16      1.0000 0.18500  0.83260  0.50220  Biso   1.000  H
  C26      1.0000 0.16550  0.87850  0.47845  Biso   1.000  C
  C27      1.0000 0.33710  0.23480  0.52426  Biso   1.000  C
  H17      1.0000 0.30380  0.21420  0.51880  Biso   1.000  H
  C28      1.0000 0.37820  0.61430  0.50140  Biso   1.000  C
  H18      1.0000 0.36050  0.58720  0.49280  Biso   1.000  H
  C29      1.0000 0.40680  0.48430  0.50761  Biso   1.000  C
  H19      1.0000 0.41790  0.50030  0.49600  Biso   1.000  H
  C30      1.0000 0.37740  0.50730  0.54005  Biso   1.000  C
  H20      1.0000 0.37030  0.53480  0.54990  Biso   1.000  H
  C31      1.0000 0.37590  0.44290  0.54314  Biso   1.000  C
  H21      1.0000 0.36760  0.42760  0.55510  Biso   1.000  H
  C32      1.0000 0.40660  0.42040  0.51078  Biso   1.000  C
  H22      1.0000 0.41870  0.39200  0.50170  Biso   1.000  H
  C33      1.0000 0.19620  0.90270  0.46355  Biso   1.000  C
  H23      1.0000 0.17330  0.92010  0.45380  Biso   1.000  H
  C34      1.0000 0.39483  0.15812  0.35961  Biso   1.000  C
  H24      1.0000 0.38380  0.13920  0.34840  Biso   1.000  H
  C35      1.0000 0.40820  0.21984  0.36001  Biso   1.000  C
  C36      1.0000 0.42440  0.24751  0.37645  Biso   1.000  C
  H25      1.0000 0.43350  0.28970  0.37670  Biso   1.000  H
  C37      1.0000 0.42720  0.21350  0.39250  Biso   1.000  C
  H26      1.0000 0.43820  0.23240  0.40370  Biso   1.000  H
  C38      1.0000 0.41380  0.15170  0.39211  Biso   1.000  C
  C39      1.0000 0.39770  0.12406  0.37566  Biso   1.000  C
  H27      1.0000 0.38850  0.08190  0.37540  Biso   1.000  H
  C40      1.0000 0.38590  0.67770  0.49720  Biso   1.000  C
  H28      1.0000 0.37120  0.69270  0.48580  Biso   1.000  H
  C41      1.0000 0.39820  0.59280  0.51916  Biso   1.000  C
  O9       1.0000 0.39471  0.95470  0.45821  Biso   1.000  O
  C42      1.0000 0.41620  0.23940  0.54435  Biso   1.000  C
  H29      1.0000 0.44410  0.21860  0.55210  Biso   1.000  H
  C43      1.0000 0.41384  0.35142  0.32592  Biso   1.000  C
  H30      1.0000 0.42290  0.39360  0.32600  Biso   1.000  H
  C44      1.0000 0.41800  0.31797  0.34206  Biso   1.000  C
  H31      1.0000 0.42990  0.33730  0.35320  Biso   1.000  H
  C45      1.0000 0.40480  0.25620  0.34197  Biso   1.000  C
  C46      1.0000 0.38740  0.22788  0.32573  Biso   1.000  C
  H32      1.0000 0.37840  0.18570  0.32570  Biso   1.000  H
  C47      1.0000 0.38330  0.26134  0.30960  Biso   1.000  C
  H33      1.0000 0.37140  0.24200  0.29850  Biso   1.000  H
  N4       1.0000 0.39645  0.32311  0.30969  Biso   1.000  N
  O10      1.0000 0.45575  0.81267  0.51370  Biso   1.000  O
  C48      1.0000 0.19020  0.87580  0.66877  Biso   1.000  C
  H34      1.0000 0.17520  0.85800  0.65780  Biso   1.000  H
  C49      1.0000 0.43050  0.69520  0.52614  Biso   1.000  C
  H35      1.0000 0.44870  0.72290  0.53450  Biso   1.000  H
  C50      1.0000 0.22870  0.92200  0.70038  Biso   1.000  C
  H36      1.0000 0.24540  0.93530  0.71170  Biso   1.000  H
  C51      1.0000 0.26430  0.92850  0.68503  Biso   1.000  C
  H37      1.0000 0.30170  0.95000  0.68590  Biso   1.000  H
  C52      1.0000 0.15590  0.87330  0.68473  Biso   1.000  C
  H38      1.0000 0.11820  0.85240  0.68440  Biso   1.000  H
  C53      1.0000 0.32470  0.86220  0.64802  Biso   1.000  C
  H39      1.0000 0.32740  0.82850  0.65610  Biso   1.000  H
  C54      1.0000 0.28720  0.91110  0.65234  Biso   1.000  C
  C55      1.0000 0.28330  0.96040  0.64048  Biso   1.000  C
  H40      1.0000 0.25770  0.99380  0.64340  Biso   1.000  H
  C56      1.0000 0.31680  0.96090  0.62429  Biso   1.000  C
  H41      1.0000 0.31410  0.99460  0.61620  Biso   1.000  H
  C57      1.0000 0.35420  0.91200  0.61997  Biso   1.000  C
  C58      1.0000 0.35810  0.86270  0.63184  Biso   1.000  C
  H42      1.0000 0.38370  0.82930  0.62890  Biso   1.000  H
  C59      1.0000 0.80250  0.90434  0.48314  Biso   1.000  C
  H43      1.0000 0.77300  0.90170  0.47360  Biso   1.000  H
  C60      1.0000 0.86390  0.89870  0.47901  Biso   1.000  C
  H44      1.0000 0.87640  0.89220  0.46670  Biso   1.000  H
  C61      1.0000 0.90690  0.90260  0.49292  Biso   1.000  C
  C62      1.0000 0.88860  0.91210  0.51096  Biso   1.000  C
  H45      1.0000 0.91800  0.91470  0.52050  Biso   1.000  H
  C63      1.0000 0.82720  0.91770  0.51508  Biso   1.000  C
  H46      1.0000 0.81460  0.92420  0.52740  Biso   1.000  H
  C64      1.0000 0.78410  0.91380  0.50117  Biso   1.000  C
  C65      1.0000 0.07720  0.87497  0.49989  Biso   1.000  C
  H47      1.0000 0.10430  0.86300  0.50940  Biso   1.000  H
  C66      1.0000 0.09930  0.88570  0.48231  Biso   1.000  C
  C67      1.0000 0.05970  0.90330  0.46840  Biso   1.000  C
  H48      1.0000 0.07480  0.91060  0.45640  Biso   1.000  H
  C68      1.0000 0.99810  0.91000  0.47209  Biso   1.000  C
  H49      1.0000 0.97110  0.92200  0.46260  Biso   1.000  H
  C69      1.0000 0.97610  0.89920  0.48968  Biso   1.000  C
  C70      1.0000 0.01560  0.88170  0.50358  Biso   1.000  C
  H50      1.0000 0.00060  0.87430  0.51560  Biso   1.000  H
  C71      1.0000 0.38860  0.52770  0.52364  Biso   1.000  C
  C72      1.0000 0.38680  0.40250  0.52859  Biso   1.000  C
  C73      1.0000 0.16240  0.93490  0.68808  Biso   1.000  C
  H51      1.0000 0.12920  0.96200  0.68970  Biso   1.000  H
  C74      1.0000 0.22250  0.86520  0.69885  Biso   1.000  C
  H52      1.0000 0.23220  0.83760  0.70840  Biso   1.000  H
  C75      1.0000 0.26160  0.86700  0.68355  Biso   1.000  C
  H53      1.0000 0.29740  0.84280  0.68320  Biso   1.000  H
  C76      1.0000 0.19490  0.93900  0.67162  Biso   1.000  C
  H54      1.0000 0.18110  0.96550  0.66220  Biso   1.000  H
  C77      1.0000 0.20110  0.93160  0.47912  Biso   1.000  C
  H55      1.0000 0.18210  0.96930  0.48180  Biso   1.000  H
  C78      1.0000 0.20330  0.82560  0.48114  Biso   1.000  C
  H56      1.0000 0.18760  0.79080  0.48720  Biso   1.000  H
  C79      1.0000 0.26190  0.93040  0.47611  Biso   1.000  C
  H57      1.0000 0.28300  0.96770  0.47450  Biso   1.000  H
  C80      1.0000 0.26050  0.82580  0.47504  Biso   1.000  C
  H58      1.0000 0.27860  0.78950  0.47060  Biso   1.000  H
  C81      1.0000 0.33360  0.49770  0.52627  Biso   1.000  C
  H59      1.0000 0.29670  0.52010  0.52640  Biso   1.000  H
  C82      1.0000 0.44260  0.49500  0.52350  Biso   1.000  C
  H60      1.0000 0.48020  0.51550  0.52170  Biso   1.000  H
  C83      1.0000 0.44180  0.43240  0.52597  Biso   1.000  C
  H61      1.0000 0.47870  0.41010  0.52590  Biso   1.000  H
  C84      1.0000 0.33280  0.43510  0.52874  Biso   1.000  C
  H62      1.0000 0.29520  0.41460  0.53050  Biso   1.000  H
  C85      1.0000 0.30240  0.87880  0.61901  Biso   1.000  C
  H63      1.0000 0.28890  0.86140  0.60780  Biso   1.000  H
  C86      1.0000 0.26560  0.87030  0.63747  Biso   1.000  C
  H64      1.0000 0.23320  0.84220  0.63890  Biso   1.000  H
  C87      1.0000 0.33300  0.94620  0.65023  Biso   1.000  C
  H65      1.0000 0.34420  0.97260  0.66000  Biso   1.000  H
  C88      1.0000 0.36710  0.94690  0.63405  Biso   1.000  C
  H66      1.0000 0.40090  0.97360  0.63320  Biso   1.000  H
  C89      1.0000 0.81680  0.86160  0.50865  Biso   1.000  C
  H67      1.0000 0.79740  0.83270  0.51640  Biso   1.000  H
  C90      1.0000 0.81490  0.95730  0.49081  Biso   1.000  C
  H68      1.0000 0.79490  0.99350  0.48720  Biso   1.000  H
  C91      1.0000 0.87300  0.94780  0.48602  Biso   1.000  C
  H69      1.0000 0.89100  0.97440  0.47730  Biso   1.000  H
  C92      1.0000 0.87630  0.85660  0.50394  Biso   1.000  C
  H70      1.0000 0.89870  0.82210  0.50790  Biso   1.000  H
  Co5      1.0000 0.97966  0.40163  0.00949  Biso   1.000  Co
  Co6      1.0000 0.90162  0.52015  0.00163  Biso   1.000  Co
  Co7      1.0000 0.12008  0.39051  0.03540  Biso   1.000  Co
  Co8      1.0000 0.89029  0.37943  0.97578  Biso   1.000  Co
  O11      1.0000 0.89517  0.42908  0.00039  Biso   1.000  O
  H71      1.0000 0.86310  0.41460  0.00910  Biso   1.000  H
  O12      1.0000 0.07229  0.39401  0.01127  Biso   1.000  O
  H72      1.0000 0.08710  0.36170  0.00270  Biso   1.000  H
  O13      1.0000 0.96628  0.42488  0.03717  Biso   1.000  O
  O14      1.0000 0.04598  0.39290  0.05257  Biso   1.000  O
  O15      1.0000 0.92723  0.53632  0.97423  Biso   1.000  O
  O16      1.0000 0.20132  0.39048  0.02077  Biso   1.000  O
  O17      1.0000 0.89296  0.29917  0.99040  Biso   1.000  O
  O18      1.0000 0.18580  0.45522  0.99666  Biso   1.000  O
  N5       1.0000 0.79262  0.37890  0.97531  Biso   1.000  N
  N6       1.0000 0.67329  0.39888  0.20081  Biso   1.000  N
  N7       1.0000 0.87590  0.70597  0.03586  Biso   1.000  N
  C93      1.0000 0.21830  0.41920  0.00705  Biso   1.000  C
  C94      1.0000 0.92280  0.28100  0.00438  Biso   1.000  C
  C95      1.0000 0.91350  0.21720  0.00906  Biso   1.000  C
  C96      1.0000 0.99060  0.40730  0.05174  Biso   1.000  C
  C97      1.0000 0.91300  0.50620  0.95937  Biso   1.000  C
  C98      1.0000 0.92290  0.13560  0.03190  Biso   1.000  C
  H73      1.0000 0.93390  0.12360  0.04400  Biso   1.000  H
  C99      1.0000 0.88640  0.83280  0.03120  Biso   1.000  C
  C100     1.0000 0.74710  0.40480  0.16893  Biso   1.000  C
  C101     1.0000 0.84920  0.79960  0.02054  Biso   1.000  C
  H74      1.0000 0.83010  0.81840  0.01030  Biso   1.000  H
  C102     1.0000 0.92240  0.80230  0.04327  Biso   1.000  C
  H75      1.0000 0.95100  0.82320  0.05070  Biso   1.000  H
  C103     1.0000 0.76250  0.35290  0.98997  Biso   1.000  C
  H76      1.0000 0.78630  0.33460  0.99930  Biso   1.000  H
  C104     1.0000 0.98326  0.42843  0.08599  Biso   1.000  C
  H77      1.0000 0.02530  0.43810  0.08660  Biso   1.000  H
  C105     1.0000 0.95627  0.41560  0.06918  Biso   1.000  C
  C106     1.0000 0.89476  0.40150  0.06834  Biso   1.000  C
  H78      1.0000 0.87630  0.39270  0.05690  Biso   1.000  H
  C107     1.0000 0.86024  0.40024  0.08432  Biso   1.000  C
  H79      1.0000 0.81820  0.39060  0.08380  Biso   1.000  H
  C108     1.0000 0.88723  0.41307  0.10113  Biso   1.000  C
  C109     1.0000 0.94874  0.42717  0.10197  Biso   1.000  C
  H80      1.0000 0.96720  0.43590  0.11350  Biso   1.000  H
  C110     1.0000 0.75870  0.40260  0.96226  Biso   1.000  C
  H81      1.0000 0.77770  0.41990  0.95180  Biso   1.000  H
  C111     1.0000 0.91991  0.64067  0.92564  Biso   1.000  C
  H82      1.0000 0.92540  0.68350  0.92580  Biso   1.000  H
  C112     1.0000 0.91629  0.60853  0.94203  Biso   1.000  C
  H83      1.0000 0.91930  0.62940  0.95340  Biso   1.000  H
  C113     1.0000 0.90821  0.54589  0.94176  Biso   1.000  C
  C114     1.0000 0.90375  0.51539  0.92510  Biso   1.000  C
  H84      1.0000 0.89820  0.47260  0.92490  Biso   1.000  H
  C115     1.0000 0.90740  0.54753  0.90871  Biso   1.000  C
  H85      1.0000 0.90430  0.52670  0.89730  Biso   1.000  H
  C116     1.0000 0.91544  0.61017  0.90898  Biso   1.000  C
  C117     1.0000 0.70280  0.35170  0.99182  Biso   1.000  C
  H86      1.0000 0.68500  0.33260  0.00220  Biso   1.000  H
  C118     1.0000 0.66550  0.37850  0.97845  Biso   1.000  C
  C119     1.0000 0.83710  0.73480  0.02426  Biso   1.000  C
  H87      1.0000 0.80380  0.71420  0.01880  Biso   1.000  H
  C120     1.0000 0.87820  0.11430  0.00140  Biso   1.000  C
  H88      1.0000 0.86050  0.08720  0.99280  Biso   1.000  H
  C121     1.0000 0.90680  0.98430  0.00761  Biso   1.000  C
  H89      1.0000 0.91790  0.00030  0.99600  Biso   1.000  H
  C122     1.0000 0.87740  0.00730  0.04005  Biso   1.000  C
  H90      1.0000 0.87030  0.03480  0.04990  Biso   1.000  H
  C123     1.0000 0.87590  0.94290  0.04314  Biso   1.000  C
  H91      1.0000 0.86760  0.92760  0.05510  Biso   1.000  H
  C124     1.0000 0.90660  0.92040  0.01078  Biso   1.000  C
  H92      1.0000 0.91870  0.89200  0.00170  Biso   1.000  H
  C125     1.0000 0.69620  0.40270  0.96355  Biso   1.000  C
  H93      1.0000 0.67330  0.42010  0.95380  Biso   1.000  H
  C126     1.0000 0.89483  0.65812  0.85961  Biso   1.000  C
  H94      1.0000 0.88380  0.63920  0.84840  Biso   1.000  H
  C127     1.0000 0.90820  0.71984  0.86001  Biso   1.000  C
  C128     1.0000 0.92440  0.74751  0.87645  Biso   1.000  C
  H95      1.0000 0.93350  0.78970  0.87670  Biso   1.000  H
  C129     1.0000 0.92720  0.71350  0.89250  Biso   1.000  C
  H96      1.0000 0.93820  0.73240  0.90370  Biso   1.000  H
  C130     1.0000 0.91380  0.65170  0.89211  Biso   1.000  C
  C131     1.0000 0.89770  0.62406  0.87566  Biso   1.000  C
  H97      1.0000 0.88850  0.58190  0.87540  Biso   1.000  H
  C132     1.0000 0.88590  0.17770  0.99720  Biso   1.000  C
  H98      1.0000 0.87120  0.19270  0.98580  Biso   1.000  H
  C133     1.0000 0.89820  0.09280  0.01916  Biso   1.000  C
  O19      1.0000 0.89471  0.45470  0.95821  Biso   1.000  O
  C134     1.0000 0.91620  0.73940  0.04435  Biso   1.000  C
  H99      1.0000 0.94410  0.71860  0.05210  Biso   1.000  H
  C135     1.0000 0.91384  0.85142  0.82592  Biso   1.000  C
  H100     1.0000 0.92290  0.89360  0.82600  Biso   1.000  H
  C136     1.0000 0.91800  0.81797  0.84206  Biso   1.000  C
  H101     1.0000 0.92990  0.83730  0.85320  Biso   1.000  H
  C137     1.0000 0.90480  0.75620  0.84197  Biso   1.000  C
  C138     1.0000 0.88740  0.72788  0.82573  Biso   1.000  C
  H102     1.0000 0.87840  0.68570  0.82570  Biso   1.000  H
  C139     1.0000 0.88330  0.76134  0.80960  Biso   1.000  C
  H103     1.0000 0.87140  0.74200  0.79850  Biso   1.000  H
  N8       1.0000 0.89645  0.82311  0.80969  Biso   1.000  N
  O20      1.0000 0.95575  0.31267  0.01370  Biso   1.000  O
  C140     1.0000 0.69020  0.37580  0.16877  Biso   1.000  C
  H104     1.0000 0.67520  0.35800  0.15780  Biso   1.000  H
  C141     1.0000 0.93050  0.19520  0.02614  Biso   1.000  C
  H105     1.0000 0.94870  0.22290  0.03450  Biso   1.000  H
  C142     1.0000 0.72870  0.42200  0.20038  Biso   1.000  C
  H106     1.0000 0.74540  0.43530  0.21170  Biso   1.000  H
  C143     1.0000 0.76430  0.42850  0.18503  Biso   1.000  C
  H107     1.0000 0.80170  0.45000  0.18590  Biso   1.000  H
  C144     1.0000 0.65590  0.37330  0.18473  Biso   1.000  C
  H108     1.0000 0.61820  0.35240  0.18440  Biso   1.000  H
  C145     1.0000 0.82470  0.36220  0.14802  Biso   1.000  C
  H109     1.0000 0.82740  0.32850  0.15610  Biso   1.000  H
  C146     1.0000 0.78720  0.41110  0.15234  Biso   1.000  C
  C147     1.0000 0.78330  0.46040  0.14048  Biso   1.000  C
  H110     1.0000 0.75770  0.49380  0.14340  Biso   1.000  H
  C148     1.0000 0.81680  0.46090  0.12429  Biso   1.000  C
  H111     1.0000 0.81410  0.49460  0.11620  Biso   1.000  H
  C149     1.0000 0.85420  0.41200  0.11997  Biso   1.000  C
  C150     1.0000 0.85810  0.36270  0.13184  Biso   1.000  C
  H112     1.0000 0.88370  0.32930  0.12890  Biso   1.000  H
  C151     1.0000 0.30250  0.40434  0.98314  Biso   1.000  C
  H113     1.0000 0.27300  0.40170  0.97360  Biso   1.000  H
  C152     1.0000 0.36390  0.39870  0.97901  Biso   1.000  C
  H114     1.0000 0.37640  0.39220  0.96670  Biso   1.000  H
  C153     1.0000 0.40690  0.40260  0.99292  Biso   1.000  C
  C154     1.0000 0.38860  0.41210  0.01096  Biso   1.000  C
  H115     1.0000 0.41800  0.41470  0.02050  Biso   1.000  H
  C155     1.0000 0.32720  0.41770  0.01508  Biso   1.000  C
  H116     1.0000 0.31460  0.42420  0.02740  Biso   1.000  H
  C156     1.0000 0.28410  0.41380  0.00117  Biso   1.000  C
  C157     1.0000 0.57720  0.37497  0.99989  Biso   1.000  C
  H117     1.0000 0.60430  0.36300  0.00940  Biso   1.000  H
  C158     1.0000 0.59930  0.38570  0.98231  Biso   1.000  C
  C159     1.0000 0.55970  0.40330  0.96840  Biso   1.000  C
  H118     1.0000 0.57480  0.41060  0.95640  Biso   1.000  H
  C160     1.0000 0.49810  0.41000  0.97209  Biso   1.000  C
  H119     1.0000 0.47110  0.42200  0.96260  Biso   1.000  H
  C161     1.0000 0.47610  0.39920  0.98968  Biso   1.000  C
  C162     1.0000 0.51560  0.38170  0.00358  Biso   1.000  C
  H120     1.0000 0.50060  0.37430  0.01560  Biso   1.000  H
  C163     1.0000 0.88860  0.02770  0.02364  Biso   1.000  C
  C164     1.0000 0.88680  0.90250  0.02859  Biso   1.000  C
  C165     1.0000 0.66240  0.43490  0.18808  Biso   1.000  C
  H121     1.0000 0.62920  0.46200  0.18970  Biso   1.000  H
  C166     1.0000 0.72250  0.36520  0.19885  Biso   1.000  C
  H122     1.0000 0.73220  0.33760  0.20840  Biso   1.000  H
  C167     1.0000 0.76160  0.36700  0.18355  Biso   1.000  C
  H123     1.0000 0.79740  0.34280  0.18320  Biso   1.000  H
  C168     1.0000 0.69490  0.43900  0.17162  Biso   1.000  C
  H124     1.0000 0.68110  0.46550  0.16220  Biso   1.000  H
  C169     1.0000 0.70110  0.43160  0.97912  Biso   1.000  C
  H125     1.0000 0.68210  0.46930  0.98180  Biso   1.000  H
  C170     1.0000 0.70330  0.32560  0.98114  Biso   1.000  C
  H126     1.0000 0.68760  0.29080  0.98720  Biso   1.000  H
  C171     1.0000 0.76190  0.43040  0.97611  Biso   1.000  C
  H127     1.0000 0.78300  0.46770  0.97450  Biso   1.000  H
  C172     1.0000 0.76050  0.32580  0.97504  Biso   1.000  C
  H128     1.0000 0.77860  0.28950  0.97060  Biso   1.000  H
  C173     1.0000 0.83360  0.99770  0.02627  Biso   1.000  C
  H129     1.0000 0.79670  0.02010  0.02640  Biso   1.000  H
  C174     1.0000 0.94260  0.99500  0.02350  Biso   1.000  C
  H130     1.0000 0.98020  0.01550  0.02170  Biso   1.000  H
  C175     1.0000 0.94180  0.93240  0.02597  Biso   1.000  C
  H131     1.0000 0.97870  0.91010  0.02590  Biso   1.000  H
  C176     1.0000 0.83280  0.93510  0.02874  Biso   1.000  C
  H132     1.0000 0.79520  0.91460  0.03050  Biso   1.000  H
  C177     1.0000 0.80240  0.37880  0.11901  Biso   1.000  C
  H133     1.0000 0.78890  0.36140  0.10780  Biso   1.000  H
  C178     1.0000 0.76560  0.37030  0.13747  Biso   1.000  C
  H134     1.0000 0.73320  0.34220  0.13890  Biso   1.000  H
  C179     1.0000 0.83300  0.44620  0.15023  Biso   1.000  C
  H135     1.0000 0.84420  0.47260  0.16000  Biso   1.000  H
  C180     1.0000 0.86710  0.44690  0.13405  Biso   1.000  C
  H136     1.0000 0.90090  0.47360  0.13320  Biso   1.000  H
  C181     1.0000 0.31680  0.36160  0.00865  Biso   1.000  C
  H137     1.0000 0.29740  0.33270  0.01640  Biso   1.000  H
  C182     1.0000 0.31490  0.45730  0.99081  Biso   1.000  C
  H138     1.0000 0.29490  0.49350  0.98720  Biso   1.000  H
  C183     1.0000 0.37300  0.44780  0.98602  Biso   1.000  C
  H139     1.0000 0.39100  0.47440  0.97730  Biso   1.000  H
  C184     1.0000 0.37630  0.35660  0.00394  Biso   1.000  C
  H140     1.0000 0.39870  0.32210  0.00790  Biso   1.000  H
  Co9      1.0000 0.02034  0.59837  0.00949  Biso   1.000  Co
  Co10     1.0000 0.09838  0.47985  0.00163  Biso   1.000  Co
  Co11     1.0000 0.87992  0.60949  0.03540  Biso   1.000  Co
  Co12     1.0000 0.10971  0.62057  0.97578  Biso   1.000  Co
  O21      1.0000 0.10483  0.57092  0.00039  Biso   1.000  O
  H141     1.0000 0.13690  0.58540  0.00910  Biso   1.000  H
  O22      1.0000 0.92771  0.60599  0.01127  Biso   1.000  O
  H142     1.0000 0.91290  0.63830  0.00270  Biso   1.000  H
  O23      1.0000 0.03372  0.57512  0.03717  Biso   1.000  O
  O24      1.0000 0.95402  0.60710  0.05257  Biso   1.000  O
  O25      1.0000 0.07277  0.46368  0.97423  Biso   1.000  O
  O26      1.0000 0.79868  0.60952  0.02077  Biso   1.000  O
  O27      1.0000 0.10704  0.70083  0.99040  Biso   1.000  O
  O28      1.0000 0.81420  0.54478  0.99666  Biso   1.000  O
  N9       1.0000 0.20738  0.62110  0.97531  Biso   1.000  N
  N10      1.0000 0.32671  0.60112  0.20081  Biso   1.000  N
  N11      1.0000 0.12410  0.29403  0.03586  Biso   1.000  N
  C185     1.0000 0.78170  0.58080  0.00705  Biso   1.000  C
  C186     1.0000 0.07720  0.71900  0.00438  Biso   1.000  C
  C187     1.0000 0.08650  0.78280  0.00906  Biso   1.000  C
  C188     1.0000 0.00940  0.59270  0.05174  Biso   1.000  C
  C189     1.0000 0.08700  0.49380  0.95937  Biso   1.000  C
  C190     1.0000 0.07710  0.86440  0.03190  Biso   1.000  C
  H143     1.0000 0.06610  0.87640  0.04400  Biso   1.000  H
  C191     1.0000 0.11360  0.16720  0.03120  Biso   1.000  C
  C192     1.0000 0.25290  0.59520  0.16893  Biso   1.000  C
  C193     1.0000 0.15080  0.20040  0.02054  Biso   1.000  C
  H144     1.0000 0.16990  0.18160  0.01030  Biso   1.000  H
  C194     1.0000 0.07760  0.19770  0.04327  Biso   1.000  C
  H145     1.0000 0.04900  0.17680  0.05070  Biso   1.000  H
  C195     1.0000 0.23750  0.64710  0.98997  Biso   1.000  C
  H146     1.0000 0.21370  0.66540  0.99930  Biso   1.000  H
  C196     1.0000 0.01674  0.57157  0.08599  Biso   1.000  C
  H147     1.0000 0.97470  0.56190  0.08660  Biso   1.000  H
  C197     1.0000 0.04373  0.58440  0.06918  Biso   1.000  C
  C198     1.0000 0.10524  0.59850  0.06834  Biso   1.000  C
  H148     1.0000 0.12370  0.60730  0.05690  Biso   1.000  H
  C199     1.0000 0.13976  0.59976  0.08432  Biso   1.000  C
  H149     1.0000 0.18180  0.60940  0.08380  Biso   1.000  H
  C200     1.0000 0.11277  0.58693  0.10113  Biso   1.000  C
  C201     1.0000 0.05126  0.57283  0.10197  Biso   1.000  C
  H150     1.0000 0.03280  0.56410  0.11350  Biso   1.000  H
  C202     1.0000 0.24130  0.59740  0.96226  Biso   1.000  C
  H151     1.0000 0.22230  0.58010  0.95180  Biso   1.000  H
  C203     1.0000 0.08009  0.35933  0.92564  Biso   1.000  C
  H152     1.0000 0.07460  0.31650  0.92580  Biso   1.000  H
  C204     1.0000 0.08371  0.39147  0.94203  Biso   1.000  C
  H153     1.0000 0.08070  0.37060  0.95340  Biso   1.000  H
  C205     1.0000 0.09179  0.45411  0.94176  Biso   1.000  C
  C206     1.0000 0.09625  0.48461  0.92510  Biso   1.000  C
  H154     1.0000 0.10180  0.52740  0.92490  Biso   1.000  H
  C207     1.0000 0.09260  0.45247  0.90871  Biso   1.000  C
  H155     1.0000 0.09570  0.47330  0.89730  Biso   1.000  H
  C208     1.0000 0.08456  0.38983  0.90898  Biso   1.000  C
  C209     1.0000 0.29720  0.64830  0.99182  Biso   1.000  C
  H156     1.0000 0.31500  0.66740  0.00220  Biso   1.000  H
  C210     1.0000 0.33450  0.62150  0.97845  Biso   1.000  C
  C211     1.0000 0.16290  0.26520  0.02426  Biso   1.000  C
  H157     1.0000 0.19620  0.28580  0.01880  Biso   1.000  H
  C212     1.0000 0.12180  0.88570  0.00140  Biso   1.000  C
  H158     1.0000 0.13950  0.91280  0.99280  Biso   1.000  H
  C213     1.0000 0.09320  0.01570  0.00761  Biso   1.000  C
  H159     1.0000 0.08210  0.99970  0.99600  Biso   1.000  H
  C214     1.0000 0.12260  0.99270  0.04005  Biso   1.000  C
  H160     1.0000 0.12970  0.96520  0.04990  Biso   1.000  H
  C215     1.0000 0.12410  0.05710  0.04314  Biso   1.000  C
  H161     1.0000 0.13240  0.07240  0.05510  Biso   1.000  H
  C216     1.0000 0.09340  0.07960  0.01078  Biso   1.000  C
  H162     1.0000 0.08130  0.10800  0.00170  Biso   1.000  H
  C217     1.0000 0.30380  0.59730  0.96355  Biso   1.000  C
  H163     1.0000 0.32670  0.57990  0.95380  Biso   1.000  H
  C218     1.0000 0.10517  0.34188  0.85961  Biso   1.000  C
  H164     1.0000 0.11620  0.36080  0.84840  Biso   1.000  H
  C219     1.0000 0.09180  0.28016  0.86001  Biso   1.000  C
  C220     1.0000 0.07560  0.25249  0.87645  Biso   1.000  C
  H165     1.0000 0.06650  0.21030  0.87670  Biso   1.000  H
  C221     1.0000 0.07280  0.28650  0.89250  Biso   1.000  C
  H166     1.0000 0.06180  0.26760  0.90370  Biso   1.000  H
  C222     1.0000 0.08620  0.34830  0.89211  Biso   1.000  C
  C223     1.0000 0.10230  0.37594  0.87566  Biso   1.000  C
  H167     1.0000 0.11150  0.41810  0.87540  Biso   1.000  H
  C224     1.0000 0.11410  0.82230  0.99720  Biso   1.000  C
  H168     1.0000 0.12880  0.80730  0.98580  Biso   1.000  H
  C225     1.0000 0.10180  0.90720  0.01916  Biso   1.000  C
  O29      1.0000 0.10529  0.54530  0.95821  Biso   1.000  O
  C226     1.0000 0.08380  0.26060  0.04435  Biso   1.000  C
  H169     1.0000 0.05590  0.28140  0.05210  Biso   1.000  H
  C227     1.0000 0.08616  0.14858  0.82592  Biso   1.000  C
  H170     1.0000 0.07710  0.10640  0.82600  Biso   1.000  H
  C228     1.0000 0.08200  0.18203  0.84206  Biso   1.000  C
  H171     1.0000 0.07010  0.16270  0.85320  Biso   1.000  H
  C229     1.0000 0.09520  0.24380  0.84197  Biso   1.000  C
  C230     1.0000 0.11260  0.27212  0.82573  Biso   1.000  C
  H172     1.0000 0.12160  0.31430  0.82570  Biso   1.000  H
  C231     1.0000 0.11670  0.23866  0.80960  Biso   1.000  C
  H173     1.0000 0.12860  0.25800  0.79850  Biso   1.000  H
  N12      1.0000 0.10355  0.17689  0.80969  Biso   1.000  N
  O30      1.0000 0.04425  0.68733  0.01370  Biso   1.000  O
  C232     1.0000 0.30980  0.62420  0.16877  Biso   1.000  C
  H174     1.0000 0.32480  0.64200  0.15780  Biso   1.000  H
  C233     1.0000 0.06950  0.80480  0.02614  Biso   1.000  C
  H175     1.0000 0.05130  0.77710  0.03450  Biso   1.000  H
  C234     1.0000 0.27130  0.57800  0.20038  Biso   1.000  C
  H176     1.0000 0.25460  0.56470  0.21170  Biso   1.000  H
  C235     1.0000 0.23570  0.57150  0.18503  Biso   1.000  C
  H177     1.0000 0.19830  0.55000  0.18590  Biso   1.000  H
  C236     1.0000 0.34410  0.62670  0.18473  Biso   1.000  C
  H178     1.0000 0.38180  0.64760  0.18440  Biso   1.000  H
  C237     1.0000 0.17530  0.63780  0.14802  Biso   1.000  C
  H179     1.0000 0.17260  0.67150  0.15610  Biso   1.000  H
  C238     1.0000 0.21280  0.58890  0.15234  Biso   1.000  C
  C239     1.0000 0.21670  0.53960  0.14048  Biso   1.000  C
  H180     1.0000 0.24230  0.50620  0.14340  Biso   1.000  H
  C240     1.0000 0.18320  0.53910  0.12429  Biso   1.000  C
  H181     1.0000 0.18590  0.50540  0.11620  Biso   1.000  H
  C241     1.0000 0.14580  0.58800  0.11997  Biso   1.000  C
  C242     1.0000 0.14190  0.63730  0.13184  Biso   1.000  C
  H182     1.0000 0.11630  0.67070  0.12890  Biso   1.000  H
  C243     1.0000 0.69750  0.59566  0.98314  Biso   1.000  C
  H183     1.0000 0.72700  0.59830  0.97360  Biso   1.000  H
  C244     1.0000 0.63610  0.60130  0.97901  Biso   1.000  C
  H184     1.0000 0.62360  0.60780  0.96670  Biso   1.000  H
  C245     1.0000 0.59310  0.59740  0.99292  Biso   1.000  C
  C246     1.0000 0.61140  0.58790  0.01096  Biso   1.000  C
  H185     1.0000 0.58200  0.58530  0.02050  Biso   1.000  H
  C247     1.0000 0.67280  0.58230  0.01508  Biso   1.000  C
  H186     1.0000 0.68540  0.57580  0.02740  Biso   1.000  H
  C248     1.0000 0.71590  0.58620  0.00117  Biso   1.000  C
  C249     1.0000 0.42280  0.62503  0.99989  Biso   1.000  C
  H187     1.0000 0.39570  0.63700  0.00940  Biso   1.000  H
  C250     1.0000 0.40070  0.61430  0.98231  Biso   1.000  C
  C251     1.0000 0.44030  0.59670  0.96840  Biso   1.000  C
  H188     1.0000 0.42520  0.58940  0.95640  Biso   1.000  H
  C252     1.0000 0.50190  0.59000  0.97209  Biso   1.000  C
  H189     1.0000 0.52890  0.57800  0.96260  Biso   1.000  H
  C253     1.0000 0.52390  0.60080  0.98968  Biso   1.000  C
  C254     1.0000 0.48440  0.61830  0.00358  Biso   1.000  C
  H190     1.0000 0.49940  0.62570  0.01560  Biso   1.000  H
  C255     1.0000 0.11140  0.97230  0.02364  Biso   1.000  C
  C256     1.0000 0.11320  0.09750  0.02859  Biso   1.000  C
  C257     1.0000 0.33760  0.56510  0.18808  Biso   1.000  C
  H191     1.0000 0.37080  0.53800  0.18970  Biso   1.000  H
  C258     1.0000 0.27750  0.63480  0.19885  Biso   1.000  C
  H192     1.0000 0.26780  0.66240  0.20840  Biso   1.000  H
  C259     1.0000 0.23840  0.63300  0.18355  Biso   1.000  C
  H193     1.0000 0.20260  0.65720  0.18320  Biso   1.000  H
  C260     1.0000 0.30510  0.56100  0.17162  Biso   1.000  C
  H194     1.0000 0.31890  0.53450  0.16220  Biso   1.000  H
  C261     1.0000 0.29890  0.56840  0.97912  Biso   1.000  C
  H195     1.0000 0.31790  0.53070  0.98180  Biso   1.000  H
  C262     1.0000 0.29670  0.67440  0.98114  Biso   1.000  C
  H196     1.0000 0.31240  0.70920  0.98720  Biso   1.000  H
  C263     1.0000 0.23810  0.56960  0.97611  Biso   1.000  C
  H197     1.0000 0.21700  0.53230  0.97450  Biso   1.000  H
  C264     1.0000 0.23950  0.67420  0.97504  Biso   1.000  C
  H198     1.0000 0.22140  0.71050  0.97060  Biso   1.000  H
  C265     1.0000 0.16640  0.00230  0.02627  Biso   1.000  C
  H199     1.0000 0.20330  0.97990  0.02640  Biso   1.000  H
  C266     1.0000 0.05740  0.00500  0.02350  Biso   1.000  C
  H200     1.0000 0.01980  0.98450  0.02170  Biso   1.000  H
  C267     1.0000 0.05820  0.06760  0.02597  Biso   1.000  C
  H201     1.0000 0.02130  0.08990  0.02590  Biso   1.000  H
  C268     1.0000 0.16720  0.06490  0.02874  Biso   1.000  C
  H202     1.0000 0.20480  0.08540  0.03050  Biso   1.000  H
  C269     1.0000 0.19760  0.62120  0.11901  Biso   1.000  C
  H203     1.0000 0.21110  0.63860  0.10780  Biso   1.000  H
  C270     1.0000 0.23440  0.62970  0.13747  Biso   1.000  C
  H204     1.0000 0.26680  0.65780  0.13890  Biso   1.000  H
  C271     1.0000 0.16700  0.55380  0.15023  Biso   1.000  C
  H205     1.0000 0.15580  0.52740  0.16000  Biso   1.000  H
  C272     1.0000 0.13290  0.55310  0.13405  Biso   1.000  C
  H206     1.0000 0.09910  0.52640  0.13320  Biso   1.000  H
  C273     1.0000 0.68320  0.63840  0.00865  Biso   1.000  C
  H207     1.0000 0.70260  0.66730  0.01640  Biso   1.000  H
  C274     1.0000 0.68510  0.54270  0.99081  Biso   1.000  C
  H208     1.0000 0.70510  0.50650  0.98720  Biso   1.000  H
  C275     1.0000 0.62700  0.55220  0.98602  Biso   1.000  C
  H209     1.0000 0.60900  0.52560  0.97730  Biso   1.000  H
  C276     1.0000 0.62370  0.64340  0.00394  Biso   1.000  C
  H210     1.0000 0.60130  0.67790  0.00790  Biso   1.000  H
  Co13     1.0000 0.52034  0.09837  0.50949  Biso   1.000  Co
  Co14     1.0000 0.59838  0.97985  0.50163  Biso   1.000  Co
  Co15     1.0000 0.37992  0.10949  0.53540  Biso   1.000  Co
  Co16     1.0000 0.60971  0.12057  0.47578  Biso   1.000  Co
  O31      1.0000 0.60483  0.07092  0.50039  Biso   1.000  O
  H211     1.0000 0.63690  0.08540  0.50910  Biso   1.000  H
  O32      1.0000 0.42771  0.10599  0.51127  Biso   1.000  O
  H212     1.0000 0.41290  0.13830  0.50270  Biso   1.000  H
  O33      1.0000 0.53372  0.07512  0.53717  Biso   1.000  O
  O34      1.0000 0.45402  0.10710  0.55257  Biso   1.000  O
  O35      1.0000 0.57277  0.96368  0.47423  Biso   1.000  O
  O36      1.0000 0.29868  0.10952  0.52077  Biso   1.000  O
  O37      1.0000 0.60704  0.20083  0.49040  Biso   1.000  O
  O38      1.0000 0.31420  0.04478  0.49666  Biso   1.000  O
  N13      1.0000 0.70738  0.12110  0.47531  Biso   1.000  N
  N14      1.0000 0.82671  0.10112  0.70081  Biso   1.000  N
  N15      1.0000 0.62410  0.79403  0.53586  Biso   1.000  N
  C277     1.0000 0.28170  0.08080  0.50705  Biso   1.000  C
  C278     1.0000 0.57720  0.21900  0.50438  Biso   1.000  C
  C279     1.0000 0.58650  0.28280  0.50906  Biso   1.000  C
  C280     1.0000 0.50940  0.09270  0.55174  Biso   1.000  C
  C281     1.0000 0.58700  0.99380  0.45937  Biso   1.000  C
  C282     1.0000 0.57710  0.36440  0.53190  Biso   1.000  C
  H213     1.0000 0.56610  0.37640  0.54400  Biso   1.000  H
  C283     1.0000 0.61360  0.66720  0.53120  Biso   1.000  C
  C284     1.0000 0.75290  0.09520  0.66893  Biso   1.000  C
  C285     1.0000 0.65080  0.70040  0.52054  Biso   1.000  C
  H214     1.0000 0.66990  0.68160  0.51030  Biso   1.000  H
  C286     1.0000 0.57760  0.69770  0.54327  Biso   1.000  C
  H215     1.0000 0.54900  0.67680  0.55070  Biso   1.000  H
  C287     1.0000 0.73750  0.14710  0.48997  Biso   1.000  C
  H216     1.0000 0.71370  0.16540  0.49930  Biso   1.000  H
  C288     1.0000 0.51674  0.07157  0.58599  Biso   1.000  C
  H217     1.0000 0.47470  0.06190  0.58660  Biso   1.000  H
  C289     1.0000 0.54373  0.08440  0.56918  Biso   1.000  C
  C290     1.0000 0.60524  0.09850  0.56834  Biso   1.000  C
  H218     1.0000 0.62370  0.10730  0.55690  Biso   1.000  H
  C291     1.0000 0.63976  0.09976  0.58432  Biso   1.000  C
  H219     1.0000 0.68180  0.10940  0.58380  Biso   1.000  H
  C292     1.0000 0.61277  0.08693  0.60113  Biso   1.000  C
  C293     1.0000 0.55126  0.07283  0.60197  Biso   1.000  C
  H220     1.0000 0.53280  0.06410  0.61350  Biso   1.000  H
  C294     1.0000 0.74130  0.09740  0.46226  Biso   1.000  C
  H221     1.0000 0.72230  0.08010  0.45180  Biso   1.000  H
  C295     1.0000 0.58009  0.85933  0.42564  Biso   1.000  C
  H222     1.0000 0.57460  0.81650  0.42580  Biso   1.000  H
  C296     1.0000 0.58371  0.89147  0.44203  Biso   1.000  C
  H223     1.0000 0.58070  0.87060  0.45340  Biso   1.000  H
  C297     1.0000 0.59179  0.95411  0.44176  Biso   1.000  C
  C298     1.0000 0.59625  0.98461  0.42510  Biso   1.000  C
  H224     1.0000 0.60180  0.02740  0.42490  Biso   1.000  H
  C299     1.0000 0.59260  0.95247  0.40871  Biso   1.000  C
  H225     1.0000 0.59570  0.97330  0.39730  Biso   1.000  H
  C300     1.0000 0.58456  0.88983  0.40898  Biso   1.000  C
  C301     1.0000 0.79720  0.14830  0.49182  Biso   1.000  C
  H226     1.0000 0.81500  0.16740  0.50220  Biso   1.000  H
  C302     1.0000 0.83450  0.12150  0.47845  Biso   1.000  C
  C303     1.0000 0.66290  0.76520  0.52426  Biso   1.000  C
  H227     1.0000 0.69620  0.78580  0.51880  Biso   1.000  H
  C304     1.0000 0.62180  0.38570  0.50140  Biso   1.000  C
  H228     1.0000 0.63950  0.41280  0.49280  Biso   1.000  H
  C305     1.0000 0.59320  0.51570  0.50761  Biso   1.000  C
  H229     1.0000 0.58210  0.49970  0.49600  Biso   1.000  H
  C306     1.0000 0.62260  0.49270  0.54005  Biso   1.000  C
  H230     1.0000 0.62970  0.46520  0.54990  Biso   1.000  H
  C307     1.0000 0.62410  0.55710  0.54314  Biso   1.000  C
  H231     1.0000 0.63240  0.57240  0.55510  Biso   1.000  H
  C308     1.0000 0.59340  0.57960  0.51078  Biso   1.000  C
  H232     1.0000 0.58130  0.60800  0.50170  Biso   1.000  H
  C309     1.0000 0.80380  0.09730  0.46355  Biso   1.000  C
  H233     1.0000 0.82670  0.07990  0.45380  Biso   1.000  H
  C310     1.0000 0.60517  0.84188  0.35961  Biso   1.000  C
  H234     1.0000 0.61620  0.86080  0.34840  Biso   1.000  H
  C311     1.0000 0.59180  0.78016  0.36001  Biso   1.000  C
  C312     1.0000 0.57560  0.75249  0.37645  Biso   1.000  C
  H235     1.0000 0.56650  0.71030  0.37670  Biso   1.000  H
  C313     1.0000 0.57280  0.78650  0.39250  Biso   1.000  C
  H236     1.0000 0.56180  0.76760  0.40370  Biso   1.000  H
  C314     1.0000 0.58620  0.84830  0.39211  Biso   1.000  C
  C315     1.0000 0.60230  0.87594  0.37566  Biso   1.000  C
  H237     1.0000 0.61150  0.91810  0.37540  Biso   1.000  H
  C316     1.0000 0.61410  0.32230  0.49720  Biso   1.000  C
  H238     1.0000 0.62880  0.30730  0.48580  Biso   1.000  H
  C317     1.0000 0.60180  0.40720  0.51916  Biso   1.000  C
  O39      1.0000 0.60529  0.04530  0.45821  Biso   1.000  O
  C318     1.0000 0.58380  0.76060  0.54435  Biso   1.000  C
  H239     1.0000 0.55590  0.78140  0.55210  Biso   1.000  H
  C319     1.0000 0.58616  0.64858  0.32592  Biso   1.000  C
  H240     1.0000 0.57710  0.60640  0.32600  Biso   1.000  H
  C320     1.0000 0.58200  0.68203  0.34206  Biso   1.000  C
  H241     1.0000 0.57010  0.66270  0.35320  Biso   1.000  H
  C321     1.0000 0.59520  0.74380  0.34197  Biso   1.000  C
  C322     1.0000 0.61260  0.77212  0.32573  Biso   1.000  C
  H242     1.0000 0.62160  0.81430  0.32570  Biso   1.000  H
  C323     1.0000 0.61670  0.73866  0.30960  Biso   1.000  C
  H243     1.0000 0.62860  0.75800  0.29850  Biso   1.000  H
  N16      1.0000 0.60355  0.67689  0.30969  Biso   1.000  N
  O40      1.0000 0.54425  0.18733  0.51370  Biso   1.000  O
  C324     1.0000 0.80980  0.12420  0.66877  Biso   1.000  C
  H244     1.0000 0.82480  0.14200  0.65780  Biso   1.000  H
  C325     1.0000 0.56950  0.30480  0.52614  Biso   1.000  C
  H245     1.0000 0.55130  0.27710  0.53450  Biso   1.000  H
  C326     1.0000 0.77130  0.07800  0.70038  Biso   1.000  C
  H246     1.0000 0.75460  0.06470  0.71170  Biso   1.000  H
  C327     1.0000 0.73570  0.07150  0.68503  Biso   1.000  C
  H247     1.0000 0.69830  0.05000  0.68590  Biso   1.000  H
  C328     1.0000 0.84410  0.12670  0.68473  Biso   1.000  C
  H248     1.0000 0.88180  0.14760  0.68440  Biso   1.000  H
  C329     1.0000 0.67530  0.13780  0.64802  Biso   1.000  C
  H249     1.0000 0.67260  0.17150  0.65610  Biso   1.000  H
  C330     1.0000 0.71280  0.08890  0.65234  Biso   1.000  C
  C331     1.0000 0.71670  0.03960  0.64048  Biso   1.000  C
  H250     1.0000 0.74230  0.00620  0.64340  Biso   1.000  H
  C332     1.0000 0.68320  0.03910  0.62429  Biso   1.000  C
  H251     1.0000 0.68590  0.00540  0.61620  Biso   1.000  H
  C333     1.0000 0.64580  0.08800  0.61997  Biso   1.000  C
  C334     1.0000 0.64190  0.13730  0.63184  Biso   1.000  C
  H252     1.0000 0.61630  0.17070  0.62890  Biso   1.000  H
  C335     1.0000 0.19750  0.09566  0.48314  Biso   1.000  C
  H253     1.0000 0.22700  0.09830  0.47360  Biso   1.000  H
  C336     1.0000 0.13610  0.10130  0.47901  Biso   1.000  C
  H254     1.0000 0.12360  0.10780  0.46670  Biso   1.000  H
  C337     1.0000 0.09310  0.09740  0.49292  Biso   1.000  C
  C338     1.0000 0.11140  0.08790  0.51096  Biso   1.000  C
  H255     1.0000 0.08200  0.08530  0.52050  Biso   1.000  H
  C339     1.0000 0.17280  0.08230  0.51508  Biso   1.000  C
  H256     1.0000 0.18540  0.07580  0.52740  Biso   1.000  H
  C340     1.0000 0.21590  0.08620  0.50117  Biso   1.000  C
  C341     1.0000 0.92280  0.12503  0.49989  Biso   1.000  C
  H257     1.0000 0.89570  0.13700  0.50940  Biso   1.000  H
  C342     1.0000 0.90070  0.11430  0.48231  Biso   1.000  C
  C343     1.0000 0.94030  0.09670  0.46840  Biso   1.000  C
  H258     1.0000 0.92520  0.08940  0.45640  Biso   1.000  H
  C344     1.0000 0.00190  0.09000  0.47209  Biso   1.000  C
  H259     1.0000 0.02890  0.07800  0.46260  Biso   1.000  H
  C345     1.0000 0.02390  0.10080  0.48968  Biso   1.000  C
  C346     1.0000 0.98440  0.11830  0.50358  Biso   1.000  C
  H260     1.0000 0.99940  0.12570  0.51560  Biso   1.000  H
  C347     1.0000 0.61140  0.47230  0.52364  Biso   1.000  C
  C348     1.0000 0.61320  0.59750  0.52859  Biso   1.000  C
  C349     1.0000 0.83760  0.06510  0.68808  Biso   1.000  C
  H261     1.0000 0.87080  0.03800  0.68970  Biso   1.000  H
  C350     1.0000 0.77750  0.13480  0.69885  Biso   1.000  C
  H262     1.0000 0.76780  0.16240  0.70840  Biso   1.000  H
  C351     1.0000 0.73840  0.13300  0.68355  Biso   1.000  C
  H263     1.0000 0.70260  0.15720  0.68320  Biso   1.000  H
  C352     1.0000 0.80510  0.06100  0.67162  Biso   1.000  C
  H264     1.0000 0.81890  0.03450  0.66220  Biso   1.000  H
  C353     1.0000 0.79890  0.06840  0.47912  Biso   1.000  C
  H265     1.0000 0.81790  0.03070  0.48180  Biso   1.000  H
  C354     1.0000 0.79670  0.17440  0.48114  Biso   1.000  C
  H266     1.0000 0.81240  0.20920  0.48720  Biso   1.000  H
  C355     1.0000 0.73810  0.06960  0.47611  Biso   1.000  C
  H267     1.0000 0.71700  0.03230  0.47450  Biso   1.000  H
  C356     1.0000 0.73950  0.17420  0.47504  Biso   1.000  C
  H268     1.0000 0.72140  0.21050  0.47060  Biso   1.000  H
  C357     1.0000 0.66640  0.50230  0.52627  Biso   1.000  C
  H269     1.0000 0.70330  0.47990  0.52640  Biso   1.000  H
  C358     1.0000 0.55740  0.50500  0.52350  Biso   1.000  C
  H270     1.0000 0.51980  0.48450  0.52170  Biso   1.000  H
  C359     1.0000 0.55820  0.56760  0.52597  Biso   1.000  C
  H271     1.0000 0.52130  0.58990  0.52590  Biso   1.000  H
  C360     1.0000 0.66720  0.56490  0.52874  Biso   1.000  C
  H272     1.0000 0.70480  0.58540  0.53050  Biso   1.000  H
  C361     1.0000 0.69760  0.12120  0.61901  Biso   1.000  C
  H273     1.0000 0.71110  0.13860  0.60780  Biso   1.000  H
  C362     1.0000 0.73440  0.12970  0.63747  Biso   1.000  C
  H274     1.0000 0.76680  0.15780  0.63890  Biso   1.000  H
  C363     1.0000 0.66700  0.05380  0.65023  Biso   1.000  C
  H275     1.0000 0.65580  0.02740  0.66000  Biso   1.000  H
  C364     1.0000 0.63290  0.05310  0.63405  Biso   1.000  C
  H276     1.0000 0.59910  0.02640  0.63320  Biso   1.000  H
  C365     1.0000 0.18320  0.13840  0.50865  Biso   1.000  C
  H277     1.0000 0.20260  0.16730  0.51640  Biso   1.000  H
  C366     1.0000 0.18510  0.04270  0.49081  Biso   1.000  C
  H278     1.0000 0.20510  0.00650  0.48720  Biso   1.000  H
  C367     1.0000 0.12700  0.05220  0.48602  Biso   1.000  C
  H279     1.0000 0.10900  0.02560  0.47730  Biso   1.000  H
  C368     1.0000 0.12370  0.14340  0.50394  Biso   1.000  C
  H280     1.0000 0.10130  0.17790  0.50790  Biso   1.000  H
  Co17     1.0000 0.09837  0.97966  0.75949  Biso   1.000  Co
  Co18     1.0000 0.97985  0.90162  0.75163  Biso   1.000  Co
  Co19     1.0000 0.10949  0.12008  0.78540  Biso   1.000  Co
  Co20     1.0000 0.12057  0.89029  0.72578  Biso   1.000  Co
  O41      1.0000 0.07092  0.89517  0.75039  Biso   1.000  O
  H281     1.0000 0.08540  0.86310  0.75910  Biso   1.000  H
  O42      1.0000 0.10599  0.07229  0.76127  Biso   1.000  O
  H282     1.0000 0.13830  0.08710  0.75270  Biso   1.000  H
  O43      1.0000 0.07512  0.96628  0.78717  Biso   1.000  O
  O44      1.0000 0.10710  0.04598  0.80257  Biso   1.000  O
  O45      1.0000 0.96368  0.92723  0.72423  Biso   1.000  O
  O46      1.0000 0.10952  0.20132  0.77077  Biso   1.000  O
  O47      1.0000 0.20083  0.89296  0.74040  Biso   1.000  O
  O48      1.0000 0.04478  0.18580  0.74666  Biso   1.000  O
  N17      1.0000 0.12110  0.79262  0.72531  Biso   1.000  N
  N18      1.0000 0.10112  0.67329  0.95081  Biso   1.000  N
  N19      1.0000 0.79403  0.87590  0.78586  Biso   1.000  N
  C369     1.0000 0.08080  0.21830  0.75705  Biso   1.000  C
  C370     1.0000 0.21900  0.92280  0.75438  Biso   1.000  C
  C371     1.0000 0.28280  0.91350  0.75906  Biso   1.000  C
  C372     1.0000 0.09270  0.99060  0.80174  Biso   1.000  C
  C373     1.0000 0.99380  0.91300  0.70937  Biso   1.000  C
  C374     1.0000 0.36440  0.92290  0.78190  Biso   1.000  C
  H283     1.0000 0.37640  0.93390  0.79400  Biso   1.000  H
  C375     1.0000 0.66720  0.88640  0.78120  Biso   1.000  C
  C376     1.0000 0.09520  0.74710  0.91893  Biso   1.000  C
  C377     1.0000 0.70040  0.84920  0.77054  Biso   1.000  C
  H284     1.0000 0.68160  0.83010  0.76030  Biso   1.000  H
  C378     1.0000 0.69770  0.92240  0.79327  Biso   1.000  C
  H285     1.0000 0.67680  0.95100  0.80070  Biso   1.000  H
  C379     1.0000 0.14710  0.76250  0.73997  Biso   1.000  C
  H286     1.0000 0.16540  0.78630  0.74930  Biso   1.000  H
  C380     1.0000 0.07157  0.98326  0.83599  Biso   1.000  C
  H287     1.0000 0.06190  0.02530  0.83660  Biso   1.000  H
  C381     1.0000 0.08440  0.95627  0.81918  Biso   1.000  C
  C382     1.0000 0.09850  0.89476  0.81834  Biso   1.000  C
  H288     1.0000 0.10730  0.87630  0.80690  Biso   1.000  H
  C383     1.0000 0.09976  0.86024  0.83432  Biso   1.000  C
  H289     1.0000 0.10940  0.81820  0.83380  Biso   1.000  H
  C384     1.0000 0.08693  0.88723  0.85113  Biso   1.000  C
  C385     1.0000 0.07283  0.94874  0.85197  Biso   1.000  C
  H290     1.0000 0.06410  0.96720  0.86350  Biso   1.000  H
  C386     1.0000 0.09740  0.75870  0.71226  Biso   1.000  C
  H291     1.0000 0.08010  0.77770  0.70180  Biso   1.000  H
  C387     1.0000 0.85933  0.91991  0.67564  Biso   1.000  C
  H292     1.0000 0.81650  0.92540  0.67580  Biso   1.000  H
  C388     1.0000 0.89147  0.91629  0.69203  Biso   1.000  C
  H293     1.0000 0.87060  0.91930  0.70340  Biso   1.000  H
  C389     1.0000 0.95411  0.90821  0.69176  Biso   1.000  C
  C390     1.0000 0.98461  0.90375  0.67510  Biso   1.000  C
  H294     1.0000 0.02740  0.89820  0.67490  Biso   1.000  H
  C391     1.0000 0.95247  0.90740  0.65871  Biso   1.000  C
  H295     1.0000 0.97330  0.90430  0.64730  Biso   1.000  H
  C392     1.0000 0.88983  0.91544  0.65898  Biso   1.000  C
  C393     1.0000 0.14830  0.70280  0.74182  Biso   1.000  C
  H296     1.0000 0.16740  0.68500  0.75220  Biso   1.000  H
  C394     1.0000 0.12150  0.66550  0.72845  Biso   1.000  C
  C395     1.0000 0.76520  0.83710  0.77426  Biso   1.000  C
  H297     1.0000 0.78580  0.80380  0.76880  Biso   1.000  H
  C396     1.0000 0.38570  0.87820  0.75140  Biso   1.000  C
  H298     1.0000 0.41280  0.86050  0.74280  Biso   1.000  H
  C397     1.0000 0.51570  0.90680  0.75761  Biso   1.000  C
  H299     1.0000 0.49970  0.91790  0.74600  Biso   1.000  H
  C398     1.0000 0.49270  0.87740  0.79005  Biso   1.000  C
  H300     1.0000 0.46520  0.87030  0.79990  Biso   1.000  H
  C399     1.0000 0.55710  0.87590  0.79314  Biso   1.000  C
  H301     1.0000 0.57240  0.86760  0.80510  Biso   1.000  H
  C400     1.0000 0.57960  0.90660  0.76078  Biso   1.000  C
  H302     1.0000 0.60800  0.91870  0.75170  Biso   1.000  H
  C401     1.0000 0.09730  0.69620  0.71355  Biso   1.000  C
  H303     1.0000 0.07990  0.67330  0.70380  Biso   1.000  H
  C402     1.0000 0.84188  0.89483  0.60961  Biso   1.000  C
  H304     1.0000 0.86080  0.88380  0.59840  Biso   1.000  H
  C403     1.0000 0.78016  0.90820  0.61001  Biso   1.000  C
  C404     1.0000 0.75249  0.92440  0.62645  Biso   1.000  C
  H305     1.0000 0.71030  0.93350  0.62670  Biso   1.000  H
  C405     1.0000 0.78650  0.92720  0.64250  Biso   1.000  C
  H306     1.0000 0.76760  0.93820  0.65370  Biso   1.000  H
  C406     1.0000 0.84830  0.91380  0.64211  Biso   1.000  C
  C407     1.0000 0.87594  0.89770  0.62566  Biso   1.000  C
  H307     1.0000 0.91810  0.88850  0.62540  Biso   1.000  H
  C408     1.0000 0.32230  0.88590  0.74720  Biso   1.000  C
  H308     1.0000 0.30730  0.87120  0.73580  Biso   1.000  H
  C409     1.0000 0.40720  0.89820  0.76916  Biso   1.000  C
  O49      1.0000 0.04530  0.89471  0.70821  Biso   1.000  O
  C410     1.0000 0.76060  0.91620  0.79435  Biso   1.000  C
  H309     1.0000 0.78140  0.94410  0.80210  Biso   1.000  H
  C411     1.0000 0.64858  0.91384  0.57592  Biso   1.000  C
  H310     1.0000 0.60640  0.92290  0.57600  Biso   1.000  H
  C412     1.0000 0.68203  0.91800  0.59206  Biso   1.000  C
  H311     1.0000 0.66270  0.92990  0.60320  Biso   1.000  H
  C413     1.0000 0.74380  0.90480  0.59197  Biso   1.000  C
  C414     1.0000 0.77212  0.88740  0.57573  Biso   1.000  C
  H312     1.0000 0.81430  0.87840  0.57570  Biso   1.000  H
  C415     1.0000 0.73866  0.88330  0.55960  Biso   1.000  C
  H313     1.0000 0.75800  0.87140  0.54850  Biso   1.000  H
  N20      1.0000 0.67689  0.89645  0.55969  Biso   1.000  N
  O50      1.0000 0.18733  0.95575  0.76370  Biso   1.000  O
  C416     1.0000 0.12420  0.69020  0.91877  Biso   1.000  C
  H314     1.0000 0.14200  0.67520  0.90780  Biso   1.000  H
  C417     1.0000 0.30480  0.93050  0.77614  Biso   1.000  C
  H315     1.0000 0.27710  0.94870  0.78450  Biso   1.000  H
  C418     1.0000 0.07800  0.72870  0.95038  Biso   1.000  C
  H316     1.0000 0.06470  0.74540  0.96170  Biso   1.000  H
  C419     1.0000 0.07150  0.76430  0.93503  Biso   1.000  C
  H317     1.0000 0.05000  0.80170  0.93590  Biso   1.000  H
  C420     1.0000 0.12670  0.65590  0.93473  Biso   1.000  C
  H318     1.0000 0.14760  0.61820  0.93440  Biso   1.000  H
  C421     1.0000 0.13780  0.82470  0.89802  Biso   1.000  C
  H319     1.0000 0.17150  0.82740  0.90610  Biso   1.000  H
  C422     1.0000 0.08890  0.78720  0.90234  Biso   1.000  C
  C423     1.0000 0.03960  0.78330  0.89048  Biso   1.000  C
  H320     1.0000 0.00620  0.75770  0.89340  Biso   1.000  H
  C424     1.0000 0.03910  0.81680  0.87429  Biso   1.000  C
  H321     1.0000 0.00540  0.81410  0.86620  Biso   1.000  H
  C425     1.0000 0.08800  0.85420  0.86997  Biso   1.000  C
  C426     1.0000 0.13730  0.85810  0.88184  Biso   1.000  C
  H322     1.0000 0.17070  0.88370  0.87890  Biso   1.000  H
  C427     1.0000 0.09566  0.30250  0.73314  Biso   1.000  C
  H323     1.0000 0.09830  0.27300  0.72360  Biso   1.000  H
  C428     1.0000 0.10130  0.36390  0.72901  Biso   1.000  C
  H324     1.0000 0.10780  0.37640  0.71670  Biso   1.000  H
  C429     1.0000 0.09740  0.40690  0.74292  Biso   1.000  C
  C430     1.0000 0.08790  0.38860  0.76096  Biso   1.000  C
  H325     1.0000 0.08530  0.41800  0.77050  Biso   1.000  H
  C431     1.0000 0.08230  0.32720  0.76508  Biso   1.000  C
  H326     1.0000 0.07580  0.31460  0.77740  Biso   1.000  H
  C432     1.0000 0.08620  0.28410  0.75117  Biso   1.000  C
  C433     1.0000 0.12503  0.57720  0.74989  Biso   1.000  C
  H327     1.0000 0.13700  0.60430  0.75940  Biso   1.000  H
  C434     1.0000 0.11430  0.59930  0.73231  Biso   1.000  C
  C435     1.0000 0.09670  0.55970  0.71840  Biso   1.000  C
  H328     1.0000 0.08940  0.57480  0.70640  Biso   1.000  H
  C436     1.0000 0.09000  0.49810  0.72209  Biso   1.000  C
  H329     1.0000 0.07800  0.47110  0.71260  Biso   1.000  H
  C437     1.0000 0.10080  0.47610  0.73968  Biso   1.000  C
  C438     1.0000 0.11830  0.51560  0.75358  Biso   1.000  C
  H330     1.0000 0.12570  0.50060  0.76560  Biso   1.000  H
  C439     1.0000 0.47230  0.88860  0.77364  Biso   1.000  C
  C440     1.0000 0.59750  0.88680  0.77859  Biso   1.000  C
  C441     1.0000 0.06510  0.66240  0.93808  Biso   1.000  C
  H331     1.0000 0.03800  0.62920  0.93970  Biso   1.000  H
  C442     1.0000 0.13480  0.72250  0.94885  Biso   1.000  C
  H332     1.0000 0.16240  0.73220  0.95840  Biso   1.000  H
  C443     1.0000 0.13300  0.76160  0.93355  Biso   1.000  C
  H333     1.0000 0.15720  0.79740  0.93320  Biso   1.000  H
  C444     1.0000 0.06100  0.69490  0.92162  Biso   1.000  C
  H334     1.0000 0.03450  0.68110  0.91220  Biso   1.000  H
  C445     1.0000 0.06840  0.70110  0.72912  Biso   1.000  C
  H335     1.0000 0.03070  0.68210  0.73180  Biso   1.000  H
  C446     1.0000 0.17440  0.70330  0.73114  Biso   1.000  C
  H336     1.0000 0.20920  0.68760  0.73720  Biso   1.000  H
  C447     1.0000 0.06960  0.76190  0.72611  Biso   1.000  C
  H337     1.0000 0.03230  0.78300  0.72450  Biso   1.000  H
  C448     1.0000 0.17420  0.76050  0.72504  Biso   1.000  C
  H338     1.0000 0.21050  0.77860  0.72060  Biso   1.000  H
  C449     1.0000 0.50230  0.83360  0.77627  Biso   1.000  C
  H339     1.0000 0.47990  0.79670  0.77640  Biso   1.000  H
  C450     1.0000 0.50500  0.94260  0.77350  Biso   1.000  C
  H340     1.0000 0.48450  0.98020  0.77170  Biso   1.000  H
  C451     1.0000 0.56760  0.94180  0.77597  Biso   1.000  C
  H341     1.0000 0.58990  0.97870  0.77590  Biso   1.000  H
  C452     1.0000 0.56490  0.83280  0.77874  Biso   1.000  C
  H342     1.0000 0.58540  0.79520  0.78050  Biso   1.000  H
  C453     1.0000 0.12120  0.80240  0.86901  Biso   1.000  C
  H343     1.0000 0.13860  0.78890  0.85780  Biso   1.000  H
  C454     1.0000 0.12970  0.76560  0.88747  Biso   1.000  C
  H344     1.0000 0.15780  0.73320  0.88890  Biso   1.000  H
  C455     1.0000 0.05380  0.83300  0.90023  Biso   1.000  C
  H345     1.0000 0.02740  0.84420  0.91000  Biso   1.000  H
  C456     1.0000 0.05310  0.86710  0.88405  Biso   1.000  C
  H346     1.0000 0.02640  0.90090  0.88320  Biso   1.000  H
  C457     1.0000 0.13840  0.31680  0.75865  Biso   1.000  C
  H347     1.0000 0.16730  0.29740  0.76640  Biso   1.000  H
  C458     1.0000 0.04270  0.31490  0.74081  Biso   1.000  C
  H348     1.0000 0.00650  0.29490  0.73720  Biso   1.000  H
  C459     1.0000 0.05220  0.37300  0.73602  Biso   1.000  C
  H349     1.0000 0.02560  0.39100  0.72730  Biso   1.000  H
  C460     1.0000 0.14340  0.37630  0.75394  Biso   1.000  C
  H350     1.0000 0.17790  0.39870  0.75790  Biso   1.000  H
  Co21     1.0000 0.59837  0.47966  0.25949  Biso   1.000  Co
  Co22     1.0000 0.47985  0.40162  0.25163  Biso   1.000  Co
  Co23     1.0000 0.60949  0.62008  0.28540  Biso   1.000  Co
  Co24     1.0000 0.62057  0.39029  0.22578  Biso   1.000  Co
  O51      1.0000 0.57092  0.39517  0.25039  Biso   1.000  O
  H351     1.0000 0.58540  0.36310  0.25910  Biso   1.000  H
  O52      1.0000 0.60599  0.57229  0.26127  Biso   1.000  O
  H352     1.0000 0.63830  0.58710  0.25270  Biso   1.000  H
  O53      1.0000 0.57512  0.46628  0.28717  Biso   1.000  O
  O54      1.0000 0.60710  0.54598  0.30257  Biso   1.000  O
  O55      1.0000 0.46368  0.42723  0.22423  Biso   1.000  O
  O56      1.0000 0.60952  0.70132  0.27077  Biso   1.000  O
  O57      1.0000 0.70083  0.39296  0.24040  Biso   1.000  O
  O58      1.0000 0.54478  0.68580  0.24666  Biso   1.000  O
  N21      1.0000 0.62110  0.29262  0.22531  Biso   1.000  N
  N22      1.0000 0.60112  0.17329  0.45081  Biso   1.000  N
  N23      1.0000 0.29403  0.37590  0.28586  Biso   1.000  N
  C461     1.0000 0.58080  0.71830  0.25705  Biso   1.000  C
  C462     1.0000 0.71900  0.42280  0.25438  Biso   1.000  C
  C463     1.0000 0.78280  0.41350  0.25906  Biso   1.000  C
  C464     1.0000 0.59270  0.49060  0.30174  Biso   1.000  C
  C465     1.0000 0.49380  0.41300  0.20937  Biso   1.000  C
  C466     1.0000 0.86440  0.42290  0.28190  Biso   1.000  C
  H353     1.0000 0.87640  0.43390  0.29400  Biso   1.000  H
  C467     1.0000 0.16720  0.38640  0.28120  Biso   1.000  C
  C468     1.0000 0.59520  0.24710  0.41893  Biso   1.000  C
  C469     1.0000 0.20040  0.34920  0.27054  Biso   1.000  C
  H354     1.0000 0.18160  0.33010  0.26030  Biso   1.000  H
  C470     1.0000 0.19770  0.42240  0.29327  Biso   1.000  C
  H355     1.0000 0.17680  0.45100  0.30070  Biso   1.000  H
  C471     1.0000 0.64710  0.26250  0.23997  Biso   1.000  C
  H356     1.0000 0.66540  0.28630  0.24930  Biso   1.000  H
  C472     1.0000 0.57157  0.48326  0.33599  Biso   1.000  C
  H357     1.0000 0.56190  0.52530  0.33660  Biso   1.000  H
  C473     1.0000 0.58440  0.45627  0.31918  Biso   1.000  C
  C474     1.0000 0.59850  0.39476  0.31834  Biso   1.000  C
  H358     1.0000 0.60730  0.37630  0.30690  Biso   1.000  H
  C475     1.0000 0.59976  0.36024  0.33432  Biso   1.000  C
  H359     1.0000 0.60940  0.31820  0.33380  Biso   1.000  H
  C476     1.0000 0.58693  0.38723  0.35113  Biso   1.000  C
  C477     1.0000 0.57283  0.44874  0.35197  Biso   1.000  C
  H360     1.0000 0.56410  0.46720  0.36350  Biso   1.000  H
  C478     1.0000 0.59740  0.25870  0.21226  Biso   1.000  C
  H361     1.0000 0.58010  0.27770  0.20180  Biso   1.000  H
  C479     1.0000 0.35933  0.41991  0.17564  Biso   1.000  C
  H362     1.0000 0.31650  0.42540  0.17580  Biso   1.000  H
  C480     1.0000 0.39147  0.41629  0.19203  Biso   1.000  C
  H363     1.0000 0.37060  0.41930  0.20340  Biso   1.000  H
  C481     1.0000 0.45411  0.40821  0.19176  Biso   1.000  C
  C482     1.0000 0.48461  0.40375  0.17510  Biso   1.000  C
  H364     1.0000 0.52740  0.39820  0.17490  Biso   1.000  H
  C483     1.0000 0.45247  0.40740  0.15871  Biso   1.000  C
  H365     1.0000 0.47330  0.40430  0.14730  Biso   1.000  H
  C484     1.0000 0.38983  0.41544  0.15898  Biso   1.000  C
  C485     1.0000 0.64830  0.20280  0.24182  Biso   1.000  C
  H366     1.0000 0.66740  0.18500  0.25220  Biso   1.000  H
  C486     1.0000 0.62150  0.16550  0.22845  Biso   1.000  C
  C487     1.0000 0.26520  0.33710  0.27426  Biso   1.000  C
  H367     1.0000 0.28580  0.30380  0.26880  Biso   1.000  H
  C488     1.0000 0.88570  0.37820  0.25140  Biso   1.000  C
  H368     1.0000 0.91280  0.36050  0.24280  Biso   1.000  H
  C489     1.0000 0.01570  0.40680  0.25761  Biso   1.000  C
  H369     1.0000 0.99970  0.41790  0.24600  Biso   1.000  H
  C490     1.0000 0.99270  0.37740  0.29005  Biso   1.000  C
  H370     1.0000 0.96520  0.37030  0.29990  Biso   1.000  H
  C491     1.0000 0.05710  0.37590  0.29314  Biso   1.000  C
  H371     1.0000 0.07240  0.36760  0.30510  Biso   1.000  H
  C492     1.0000 0.07960  0.40660  0.26078  Biso   1.000  C
  H372     1.0000 0.10800  0.41870  0.25170  Biso   1.000  H
  C493     1.0000 0.59730  0.19620  0.21355  Biso   1.000  C
  H373     1.0000 0.57990  0.17330  0.20380  Biso   1.000  H
  C494     1.0000 0.34188  0.39483  0.10961  Biso   1.000  C
  H374     1.0000 0.36080  0.38380  0.09840  Biso   1.000  H
  C495     1.0000 0.28016  0.40820  0.11001  Biso   1.000  C
  C496     1.0000 0.25249  0.42440  0.12645  Biso   1.000  C
  H375     1.0000 0.21030  0.43350  0.12670  Biso   1.000  H
  C497     1.0000 0.28650  0.42720  0.14250  Biso   1.000  C
  H376     1.0000 0.26760  0.43820  0.15370  Biso   1.000  H
  C498     1.0000 0.34830  0.41380  0.14211  Biso   1.000  C
  C499     1.0000 0.37594  0.39770  0.12566  Biso   1.000  C
  H377     1.0000 0.41810  0.38850  0.12540  Biso   1.000  H
  C500     1.0000 0.82230  0.38590  0.24720  Biso   1.000  C
  H378     1.0000 0.80730  0.37120  0.23580  Biso   1.000  H
  C501     1.0000 0.90720  0.39820  0.26916  Biso   1.000  C
  O59      1.0000 0.54530  0.39471  0.20821  Biso   1.000  O
  C502     1.0000 0.26060  0.41620  0.29435  Biso   1.000  C
  H379     1.0000 0.28140  0.44410  0.30210  Biso   1.000  H
  C503     1.0000 0.14858  0.41384  0.07592  Biso   1.000  C
  H380     1.0000 0.10640  0.42290  0.07600  Biso   1.000  H
  C504     1.0000 0.18203  0.41800  0.09206  Biso   1.000  C
  H381     1.0000 0.16270  0.42990  0.10320  Biso   1.000  H
  C505     1.0000 0.24380  0.40480  0.09197  Biso   1.000  C
  C506     1.0000 0.27212  0.38740  0.07573  Biso   1.000  C
  H382     1.0000 0.31430  0.37840  0.07570  Biso   1.000  H
  C507     1.0000 0.23866  0.38330  0.05960  Biso   1.000  C
  H383     1.0000 0.25800  0.37140  0.04850  Biso   1.000  H
  N24      1.0000 0.17689  0.39645  0.05969  Biso   1.000  N
  O60      1.0000 0.68733  0.45575  0.26370  Biso   1.000  O
  C508     1.0000 0.62420  0.19020  0.41877  Biso   1.000  C
  H384     1.0000 0.64200  0.17520  0.40780  Biso   1.000  H
  C509     1.0000 0.80480  0.43050  0.27614  Biso   1.000  C
  H385     1.0000 0.77710  0.44870  0.28450  Biso   1.000  H
  C510     1.0000 0.57800  0.22870  0.45038  Biso   1.000  C
  H386     1.0000 0.56470  0.24540  0.46170  Biso   1.000  H
  C511     1.0000 0.57150  0.26430  0.43503  Biso   1.000  C
  H387     1.0000 0.55000  0.30170  0.43590  Biso   1.000  H
  C512     1.0000 0.62670  0.15590  0.43473  Biso   1.000  C
  H388     1.0000 0.64760  0.11820  0.43440  Biso   1.000  H
  C513     1.0000 0.63780  0.32470  0.39802  Biso   1.000  C
  H389     1.0000 0.67150  0.32740  0.40610  Biso   1.000  H
  C514     1.0000 0.58890  0.28720  0.40234  Biso   1.000  C
  C515     1.0000 0.53960  0.28330  0.39048  Biso   1.000  C
  H390     1.0000 0.50620  0.25770  0.39340  Biso   1.000  H
  C516     1.0000 0.53910  0.31680  0.37429  Biso   1.000  C
  H391     1.0000 0.50540  0.31410  0.36620  Biso   1.000  H
  C517     1.0000 0.58800  0.35420  0.36997  Biso   1.000  C
  C518     1.0000 0.63730  0.35810  0.38184  Biso   1.000  C
  H392     1.0000 0.67070  0.38370  0.37890  Biso   1.000  H
  C519     1.0000 0.59566  0.80250  0.23314  Biso   1.000  C
  H393     1.0000 0.59830  0.77300  0.22360  Biso   1.000  H
  C520     1.0000 0.60130  0.86390  0.22901  Biso   1.000  C
  H394     1.0000 0.60780  0.87640  0.21670  Biso   1.000  H
  C521     1.0000 0.59740  0.90690  0.24292  Biso   1.000  C
  C522     1.0000 0.58790  0.88860  0.26096  Biso   1.000  C
  H395     1.0000 0.58530  0.91800  0.27050  Biso   1.000  H
  C523     1.0000 0.58230  0.82720  0.26508  Biso   1.000  C
  H396     1.0000 0.57580  0.81460  0.27740  Biso   1.000  H
  C524     1.0000 0.58620  0.78410  0.25117  Biso   1.000  C
  C525     1.0000 0.62503  0.07720  0.24989  Biso   1.000  C
  H397     1.0000 0.63700  0.10430  0.25940  Biso   1.000  H
  C526     1.0000 0.61430  0.09930  0.23231  Biso   1.000  C
  C527     1.0000 0.59670  0.05970  0.21840  Biso   1.000  C
  H398     1.0000 0.58940  0.07480  0.20640  Biso   1.000  H
  C528     1.0000 0.59000  0.99810  0.22209  Biso   1.000  C
  H399     1.0000 0.57800  0.97110  0.21260  Biso   1.000  H
  C529     1.0000 0.60080  0.97610  0.23968  Biso   1.000  C
  C530     1.0000 0.61830  0.01560  0.25358  Biso   1.000  C
  H400     1.0000 0.62570  0.00060  0.26560  Biso   1.000  H
  C531     1.0000 0.97230  0.38860  0.27364  Biso   1.000  C
  C532     1.0000 0.09750  0.38680  0.27859  Biso   1.000  C
  C533     1.0000 0.56510  0.16240  0.43808  Biso   1.000  C
  H401     1.0000 0.53800  0.12920  0.43970  Biso   1.000  H
  C534     1.0000 0.63480  0.22250  0.44885  Biso   1.000  C
  H402     1.0000 0.66240  0.23220  0.45840  Biso   1.000  H
  C535     1.0000 0.63300  0.26160  0.43355  Biso   1.000  C
  H403     1.0000 0.65720  0.29740  0.43320  Biso   1.000  H
  C536     1.0000 0.56100  0.19490  0.42162  Biso   1.000  C
  H404     1.0000 0.53450  0.18110  0.41220  Biso   1.000  H
  C537     1.0000 0.56840  0.20110  0.22912  Biso   1.000  C
  H405     1.0000 0.53070  0.18210  0.23180  Biso   1.000  H
  C538     1.0000 0.67440  0.20330  0.23114  Biso   1.000  C
  H406     1.0000 0.70920  0.18760  0.23720  Biso   1.000  H
  C539     1.0000 0.56960  0.26190  0.22611  Biso   1.000  C
  H407     1.0000 0.53230  0.28300  0.22450  Biso   1.000  H
  C540     1.0000 0.67420  0.26050  0.22504  Biso   1.000  C
  H408     1.0000 0.71050  0.27860  0.22060  Biso   1.000  H
  C541     1.0000 0.00230  0.33360  0.27627  Biso   1.000  C
  H409     1.0000 0.97990  0.29670  0.27640  Biso   1.000  H
  C542     1.0000 0.00500  0.44260  0.27350  Biso   1.000  C
  H410     1.0000 0.98450  0.48020  0.27170  Biso   1.000  H
  C543     1.0000 0.06760  0.44180  0.27597  Biso   1.000  C
  H411     1.0000 0.08990  0.47870  0.27590  Biso   1.000  H
  C544     1.0000 0.06490  0.33280  0.27874  Biso   1.000  C
  H412     1.0000 0.08540  0.29520  0.28050  Biso   1.000  H
  C545     1.0000 0.62120  0.30240  0.36901  Biso   1.000  C
  H413     1.0000 0.63860  0.28890  0.35780  Biso   1.000  H
  C546     1.0000 0.62970  0.26560  0.38747  Biso   1.000  C
  H414     1.0000 0.65780  0.23320  0.38890  Biso   1.000  H
  C547     1.0000 0.55380  0.33300  0.40023  Biso   1.000  C
  H415     1.0000 0.52740  0.34420  0.41000  Biso   1.000  H
  C548     1.0000 0.55310  0.36710  0.38405  Biso   1.000  C
  H416     1.0000 0.52640  0.40090  0.38320  Biso   1.000  H
  C549     1.0000 0.63840  0.81680  0.25865  Biso   1.000  C
  H417     1.0000 0.66730  0.79740  0.26640  Biso   1.000  H
  C550     1.0000 0.54270  0.81490  0.24081  Biso   1.000  C
  H418     1.0000 0.50650  0.79490  0.23720  Biso   1.000  H
  C551     1.0000 0.55220  0.87300  0.23602  Biso   1.000  C
  H419     1.0000 0.52560  0.89100  0.22730  Biso   1.000  H
  C552     1.0000 0.64340  0.87630  0.25394  Biso   1.000  C
  H420     1.0000 0.67790  0.89870  0.25790  Biso   1.000  H
  Co25     1.0000 0.40163  0.52034  0.25949  Biso   1.000  Co
  Co26     1.0000 0.52015  0.59838  0.25163  Biso   1.000  Co
  Co27     1.0000 0.39051  0.37992  0.28540  Biso   1.000  Co
  Co28     1.0000 0.37943  0.60971  0.22578  Biso   1.000  Co
  O61      1.0000 0.42908  0.60483  0.25039  Biso   1.000  O
  H421     1.0000 0.41460  0.63690  0.25910  Biso   1.000  H
  O62      1.0000 0.39401  0.42771  0.26127  Biso   1.000  O
  H422     1.0000 0.36170  0.41290  0.25270  Biso   1.000  H
  O63      1.0000 0.42488  0.53372  0.28717  Biso   1.000  O
  O64      1.0000 0.39290  0.45402  0.30257  Biso   1.000  O
  O65      1.0000 0.53632  0.57277  0.22423  Biso   1.000  O
  O66      1.0000 0.39048  0.29868  0.27077  Biso   1.000  O
  O67      1.0000 0.29917  0.60704  0.24040  Biso   1.000  O
  O68      1.0000 0.45522  0.31420  0.24666  Biso   1.000  O
  N25      1.0000 0.37890  0.70738  0.22531  Biso   1.000  N
  N26      1.0000 0.39888  0.82671  0.45081  Biso   1.000  N
  N27      1.0000 0.70597  0.62410  0.28586  Biso   1.000  N
  C553     1.0000 0.41920  0.28170  0.25705  Biso   1.000  C
  C554     1.0000 0.28100  0.57720  0.25438  Biso   1.000  C
  C555     1.0000 0.21720  0.58650  0.25906  Biso   1.000  C
  C556     1.0000 0.40730  0.50940  0.30174  Biso   1.000  C
  C557     1.0000 0.50620  0.58700  0.20937  Biso   1.000  C
  C558     1.0000 0.13560  0.57710  0.28190  Biso   1.000  C
  H423     1.0000 0.12360  0.56610  0.29400  Biso   1.000  H
  C559     1.0000 0.83280  0.61360  0.28120  Biso   1.000  C
  C560     1.0000 0.40480  0.75290  0.41893  Biso   1.000  C
  C561     1.0000 0.79960  0.65080  0.27054  Biso   1.000  C
  H424     1.0000 0.81840  0.66990  0.26030  Biso   1.000  H
  C562     1.0000 0.80230  0.57760  0.29327  Biso   1.000  C
  H425     1.0000 0.82320  0.54900  0.30070  Biso   1.000  H
  C563     1.0000 0.35290  0.73750  0.23997  Biso   1.000  C
  H426     1.0000 0.33460  0.71370  0.24930  Biso   1.000  H
  C564     1.0000 0.42843  0.51674  0.33599  Biso   1.000  C
  H427     1.0000 0.43810  0.47470  0.33660  Biso   1.000  H
  C565     1.0000 0.41560  0.54373  0.31918  Biso   1.000  C
  C566     1.0000 0.40150  0.60524  0.31834  Biso   1.000  C
  H428     1.0000 0.39270  0.62370  0.30690  Biso   1.000  H
  C567     1.0000 0.40024  0.63976  0.33432  Biso   1.000  C
  H429     1.0000 0.39060  0.68180  0.33380  Biso   1.000  H
  C568     1.0000 0.41307  0.61277  0.35113  Biso   1.000  C
  C569     1.0000 0.42717  0.55126  0.35197  Biso   1.000  C
  H430     1.0000 0.43590  0.53280  0.36350  Biso   1.000  H
  C570     1.0000 0.40260  0.74130  0.21226  Biso   1.000  C
  H431     1.0000 0.41990  0.72230  0.20180  Biso   1.000  H
  C571     1.0000 0.64067  0.58009  0.17564  Biso   1.000  C
  H432     1.0000 0.68350  0.57460  0.17580  Biso   1.000  H
  C572     1.0000 0.60853  0.58371  0.19203  Biso   1.000  C
  H433     1.0000 0.62940  0.58070  0.20340  Biso   1.000  H
  C573     1.0000 0.54589  0.59179  0.19176  Biso   1.000  C
  C574     1.0000 0.51539  0.59625  0.17510  Biso   1.000  C
  H434     1.0000 0.47260  0.60180  0.17490  Biso   1.000  H
  C575     1.0000 0.54753  0.59260  0.15871  Biso   1.000  C
  H435     1.0000 0.52670  0.59570  0.14730  Biso   1.000  H
  C576     1.0000 0.61017  0.58456  0.15898  Biso   1.000  C
  C577     1.0000 0.35170  0.79720  0.24182  Biso   1.000  C
  H436     1.0000 0.33260  0.81500  0.25220  Biso   1.000  H
  C578     1.0000 0.37850  0.83450  0.22845  Biso   1.000  C
  C579     1.0000 0.73480  0.66290  0.27426  Biso   1.000  C
  H437     1.0000 0.71420  0.69620  0.26880  Biso   1.000  H
  C580     1.0000 0.11430  0.62180  0.25140  Biso   1.000  C
  H438     1.0000 0.08720  0.63950  0.24280  Biso   1.000  H
  C581     1.0000 0.98430  0.59320  0.25761  Biso   1.000  C
  H439     1.0000 0.00030  0.58210  0.24600  Biso   1.000  H
  C582     1.0000 0.00730  0.62260  0.29005  Biso   1.000  C
  H440     1.0000 0.03480  0.62970  0.29990  Biso   1.000  H
  C583     1.0000 0.94290  0.62410  0.29314  Biso   1.000  C
  H441     1.0000 0.92760  0.63240  0.30510  Biso   1.000  H
  C584     1.0000 0.92040  0.59340  0.26078  Biso   1.000  C
  H442     1.0000 0.89200  0.58130  0.25170  Biso   1.000  H
  C585     1.0000 0.40270  0.80380  0.21355  Biso   1.000  C
  H443     1.0000 0.42010  0.82670  0.20380  Biso   1.000  H
  C586     1.0000 0.65812  0.60517  0.10961  Biso   1.000  C
  H444     1.0000 0.63920  0.61620  0.09840  Biso   1.000  H
  C587     1.0000 0.71984  0.59180  0.11001  Biso   1.000  C
  C588     1.0000 0.74751  0.57560  0.12645  Biso   1.000  C
  H445     1.0000 0.78970  0.56650  0.12670  Biso   1.000  H
  C589     1.0000 0.71350  0.57280  0.14250  Biso   1.000  C
  H446     1.0000 0.73240  0.56180  0.15370  Biso   1.000  H
  C590     1.0000 0.65170  0.58620  0.14211  Biso   1.000  C
  C591     1.0000 0.62406  0.60230  0.12566  Biso   1.000  C
  H447     1.0000 0.58190  0.61150  0.12540  Biso   1.000  H
  C592     1.0000 0.17770  0.61410  0.24720  Biso   1.000  C
  H448     1.0000 0.19270  0.62880  0.23580  Biso   1.000  H
  C593     1.0000 0.09280  0.60180  0.26916  Biso   1.000  C
  O69      1.0000 0.45470  0.60529  0.20821  Biso   1.000  O
  C594     1.0000 0.73940  0.58380  0.29435  Biso   1.000  C
  H449     1.0000 0.71860  0.55590  0.30210  Biso   1.000  H
  C595     1.0000 0.85142  0.58616  0.07592  Biso   1.000  C
  H450     1.0000 0.89360  0.57710  0.07600  Biso   1.000  H
  C596     1.0000 0.81797  0.58200  0.09206  Biso   1.000  C
  H451     1.0000 0.83730  0.57010  0.10320  Biso   1.000  H
  C597     1.0000 0.75620  0.59520  0.09197  Biso   1.000  C
  C598     1.0000 0.72788  0.61260  0.07573  Biso   1.000  C
  H452     1.0000 0.68570  0.62160  0.07570  Biso   1.000  H
  C599     1.0000 0.76134  0.61670  0.05960  Biso   1.000  C
  H453     1.0000 0.74200  0.62860  0.04850  Biso   1.000  H
  N28      1.0000 0.82311  0.60355  0.05969  Biso   1.000  N
  O70      1.0000 0.31267  0.54425  0.26370  Biso   1.000  O
  C600     1.0000 0.37580  0.80980  0.41877  Biso   1.000  C
  H454     1.0000 0.35800  0.82480  0.40780  Biso   1.000  H
  C601     1.0000 0.19520  0.56950  0.27614  Biso   1.000  C
  H455     1.0000 0.22290  0.55130  0.28450  Biso   1.000  H
  C602     1.0000 0.42200  0.77130  0.45038  Biso   1.000  C
  H456     1.0000 0.43530  0.75460  0.46170  Biso   1.000  H
  C603     1.0000 0.42850  0.73570  0.43503  Biso   1.000  C
  H457     1.0000 0.45000  0.69830  0.43590  Biso   1.000  H
  C604     1.0000 0.37330  0.84410  0.43473  Biso   1.000  C
  H458     1.0000 0.35240  0.88180  0.43440  Biso   1.000  H
  C605     1.0000 0.36220  0.67530  0.39802  Biso   1.000  C
  H459     1.0000 0.32850  0.67260  0.40610  Biso   1.000  H
  C606     1.0000 0.41110  0.71280  0.40234  Biso   1.000  C
  C607     1.0000 0.46040  0.71670  0.39048  Biso   1.000  C
  H460     1.0000 0.49380  0.74230  0.39340  Biso   1.000  H
  C608     1.0000 0.46090  0.68320  0.37429  Biso   1.000  C
  H461     1.0000 0.49460  0.68590  0.36620  Biso   1.000  H
  C609     1.0000 0.41200  0.64580  0.36997  Biso   1.000  C
  C610     1.0000 0.36270  0.64190  0.38184  Biso   1.000  C
  H462     1.0000 0.32930  0.61630  0.37890  Biso   1.000  H
  C611     1.0000 0.40434  0.19750  0.23314  Biso   1.000  C
  H463     1.0000 0.40170  0.22700  0.22360  Biso   1.000  H
  C612     1.0000 0.39870  0.13610  0.22901  Biso   1.000  C
  H464     1.0000 0.39220  0.12360  0.21670  Biso   1.000  H
  C613     1.0000 0.40260  0.09310  0.24292  Biso   1.000  C
  C614     1.0000 0.41210  0.11140  0.26096  Biso   1.000  C
  H465     1.0000 0.41470  0.08200  0.27050  Biso   1.000  H
  C615     1.0000 0.41770  0.17280  0.26508  Biso   1.000  C
  H466     1.0000 0.42420  0.18540  0.27740  Biso   1.000  H
  C616     1.0000 0.41380  0.21590  0.25117  Biso   1.000  C
  C617     1.0000 0.37497  0.92280  0.24989  Biso   1.000  C
  H467     1.0000 0.36300  0.89570  0.25940  Biso   1.000  H
  C618     1.0000 0.38570  0.90070  0.23231  Biso   1.000  C
  C619     1.0000 0.40330  0.94030  0.21840  Biso   1.000  C
  H468     1.0000 0.41060  0.92520  0.20640  Biso   1.000  H
  C620     1.0000 0.41000  0.00190  0.22209  Biso   1.000  C
  H469     1.0000 0.42200  0.02890  0.21260  Biso   1.000  H
  C621     1.0000 0.39920  0.02390  0.23968  Biso   1.000  C
  C622     1.0000 0.38170  0.98440  0.25358  Biso   1.000  C
  H470     1.0000 0.37430  0.99940  0.26560  Biso   1.000  H
  C623     1.0000 0.02770  0.61140  0.27364  Biso   1.000  C
  C624     1.0000 0.90250  0.61320  0.27859  Biso   1.000  C
  C625     1.0000 0.43490  0.83760  0.43808  Biso   1.000  C
  H471     1.0000 0.46200  0.87080  0.43970  Biso   1.000  H
  C626     1.0000 0.36520  0.77750  0.44885  Biso   1.000  C
  H472     1.0000 0.33760  0.76780  0.45840  Biso   1.000  H
  C627     1.0000 0.36700  0.73840  0.43355  Biso   1.000  C
  H473     1.0000 0.34280  0.70260  0.43320  Biso   1.000  H
  C628     1.0000 0.43900  0.80510  0.42162  Biso   1.000  C
  H474     1.0000 0.46550  0.81890  0.41220  Biso   1.000  H
  C629     1.0000 0.43160  0.79890  0.22912  Biso   1.000  C
  H475     1.0000 0.46930  0.81790  0.23180  Biso   1.000  H
  C630     1.0000 0.32560  0.79670  0.23114  Biso   1.000  C
  H476     1.0000 0.29080  0.81240  0.23720  Biso   1.000  H
  C631     1.0000 0.43040  0.73810  0.22611  Biso   1.000  C
  H477     1.0000 0.46770  0.71700  0.22450  Biso   1.000  H
  C632     1.0000 0.32580  0.73950  0.22504  Biso   1.000  C
  H478     1.0000 0.28950  0.72140  0.22060  Biso   1.000  H
  C633     1.0000 0.99770  0.66640  0.27627  Biso   1.000  C
  H479     1.0000 0.02010  0.70330  0.27640  Biso   1.000  H
  C634     1.0000 0.99500  0.55740  0.27350  Biso   1.000  C
  H480     1.0000 0.01550  0.51980  0.27170  Biso   1.000  H
  C635     1.0000 0.93240  0.55820  0.27597  Biso   1.000  C
  H481     1.0000 0.91010  0.52130  0.27590  Biso   1.000  H
  C636     1.0000 0.93510  0.66720  0.27874  Biso   1.000  C
  H482     1.0000 0.91460  0.70480  0.28050  Biso   1.000  H
  C637     1.0000 0.37880  0.69760  0.36901  Biso   1.000  C
  H483     1.0000 0.36140  0.71110  0.35780  Biso   1.000  H
  C638     1.0000 0.37030  0.73440  0.38747  Biso   1.000  C
  H484     1.0000 0.34220  0.76680  0.38890  Biso   1.000  H
  C639     1.0000 0.44620  0.66700  0.40023  Biso   1.000  C
  H485     1.0000 0.47260  0.65580  0.41000  Biso   1.000  H
  C640     1.0000 0.44690  0.63290  0.38405  Biso   1.000  C
  H486     1.0000 0.47360  0.59910  0.38320  Biso   1.000  H
  C641     1.0000 0.36160  0.18320  0.25865  Biso   1.000  C
  H487     1.0000 0.33270  0.20260  0.26640  Biso   1.000  H
  C642     1.0000 0.45730  0.18510  0.24081  Biso   1.000  C
  H488     1.0000 0.49350  0.20510  0.23720  Biso   1.000  H
  C643     1.0000 0.44780  0.12700  0.23602  Biso   1.000  C
  H489     1.0000 0.47440  0.10900  0.22730  Biso   1.000  H
  C644     1.0000 0.35660  0.12370  0.25394  Biso   1.000  C
  H490     1.0000 0.32210  0.10130  0.25790  Biso   1.000  H
  Co29     1.0000 0.90163  0.02034  0.75949  Biso   1.000  Co
  Co30     1.0000 0.02015  0.09838  0.75163  Biso   1.000  Co
  Co31     1.0000 0.89051  0.87992  0.78540  Biso   1.000  Co
  Co32     1.0000 0.87943  0.10971  0.72578  Biso   1.000  Co
  O71      1.0000 0.92908  0.10483  0.75039  Biso   1.000  O
  H491     1.0000 0.91460  0.13690  0.75910  Biso   1.000  H
  O72      1.0000 0.89401  0.92771  0.76127  Biso   1.000  O
  H492     1.0000 0.86170  0.91290  0.75270  Biso   1.000  H
  O73      1.0000 0.92488  0.03372  0.78717  Biso   1.000  O
  O74      1.0000 0.89290  0.95402  0.80257  Biso   1.000  O
  O75      1.0000 0.03632  0.07277  0.72423  Biso   1.000  O
  O76      1.0000 0.89048  0.79868  0.77077  Biso   1.000  O
  O77      1.0000 0.79917  0.10704  0.74040  Biso   1.000  O
  O78      1.0000 0.95522  0.81420  0.74666  Biso   1.000  O
  N29      1.0000 0.87890  0.20738  0.72531  Biso   1.000  N
  N30      1.0000 0.89888  0.32671  0.95081  Biso   1.000  N
  N31      1.0000 0.20597  0.12410  0.78586  Biso   1.000  N
  C645     1.0000 0.91920  0.78170  0.75705  Biso   1.000  C
  C646     1.0000 0.78100  0.07720  0.75438  Biso   1.000  C
  C647     1.0000 0.71720  0.08650  0.75906  Biso   1.000  C
  C648     1.0000 0.90730  0.00940  0.80174  Biso   1.000  C
  C649     1.0000 0.00620  0.08700  0.70937  Biso   1.000  C
  C650     1.0000 0.63560  0.07710  0.78190  Biso   1.000  C
  H493     1.0000 0.62360  0.06610  0.79400  Biso   1.000  H
  C651     1.0000 0.33280  0.11360  0.78120  Biso   1.000  C
  C652     1.0000 0.90480  0.25290  0.91893  Biso   1.000  C
  C653     1.0000 0.29960  0.15080  0.77054  Biso   1.000  C
  H494     1.0000 0.31840  0.16990  0.76030  Biso   1.000  H
  C654     1.0000 0.30230  0.07760  0.79327  Biso   1.000  C
  H495     1.0000 0.32320  0.04900  0.80070  Biso   1.000  H
  C655     1.0000 0.85290  0.23750  0.73997  Biso   1.000  C
  H496     1.0000 0.83460  0.21370  0.74930  Biso   1.000  H
  C656     1.0000 0.92843  0.01674  0.83599  Biso   1.000  C
  H497     1.0000 0.93810  0.97470  0.83660  Biso   1.000  H
  C657     1.0000 0.91560  0.04373  0.81918  Biso   1.000  C
  C658     1.0000 0.90150  0.10524  0.81834  Biso   1.000  C
  H498     1.0000 0.89270  0.12370  0.80690  Biso   1.000  H
  C659     1.0000 0.90024  0.13976  0.83432  Biso   1.000  C
  H499     1.0000 0.89060  0.18180  0.83380  Biso   1.000  H
  C660     1.0000 0.91307  0.11277  0.85113  Biso   1.000  C
  C661     1.0000 0.92717  0.05126  0.85197  Biso   1.000  C
  H500     1.0000 0.93590  0.03280  0.86350  Biso   1.000  H
  C662     1.0000 0.90260  0.24130  0.71226  Biso   1.000  C
  H501     1.0000 0.91990  0.22230  0.70180  Biso   1.000  H
  C663     1.0000 0.14067  0.08009  0.67564  Biso   1.000  C
  H502     1.0000 0.18350  0.07460  0.67580  Biso   1.000  H
  C664     1.0000 0.10853  0.08371  0.69203  Biso   1.000  C
  H503     1.0000 0.12940  0.08070  0.70340  Biso   1.000  H
  C665     1.0000 0.04589  0.09179  0.69176  Biso   1.000  C
  C666     1.0000 0.01539  0.09625  0.67510  Biso   1.000  C
  H504     1.0000 0.97260  0.10180  0.67490  Biso   1.000  H
  C667     1.0000 0.04753  0.09260  0.65871  Biso   1.000  C
  H505     1.0000 0.02670  0.09570  0.64730  Biso   1.000  H
  C668     1.0000 0.11017  0.08456  0.65898  Biso   1.000  C
  C669     1.0000 0.85170  0.29720  0.74182  Biso   1.000  C
  H506     1.0000 0.83260  0.31500  0.75220  Biso   1.000  H
  C670     1.0000 0.87850  0.33450  0.72845  Biso   1.000  C
  C671     1.0000 0.23480  0.16290  0.77426  Biso   1.000  C
  H507     1.0000 0.21420  0.19620  0.76880  Biso   1.000  H
  C672     1.0000 0.61430  0.12180  0.75140  Biso   1.000  C
  H508     1.0000 0.58720  0.13950  0.74280  Biso   1.000  H
  C673     1.0000 0.48430  0.09320  0.75761  Biso   1.000  C
  H509     1.0000 0.50030  0.08210  0.74600  Biso   1.000  H
  C674     1.0000 0.50730  0.12260  0.79005  Biso   1.000  C
  H510     1.0000 0.53480  0.12970  0.79990  Biso   1.000  H
  C675     1.0000 0.44290  0.12410  0.79314  Biso   1.000  C
  H511     1.0000 0.42760  0.13240  0.80510  Biso   1.000  H
  C676     1.0000 0.42040  0.09340  0.76078  Biso   1.000  C
  H512     1.0000 0.39200  0.08130  0.75170  Biso   1.000  H
  C677     1.0000 0.90270  0.30380  0.71355  Biso   1.000  C
  H513     1.0000 0.92010  0.32670  0.70380  Biso   1.000  H
  C678     1.0000 0.15812  0.10517  0.60961  Biso   1.000  C
  H514     1.0000 0.13920  0.11620  0.59840  Biso   1.000  H
  C679     1.0000 0.21984  0.09180  0.61001  Biso   1.000  C
  C680     1.0000 0.24751  0.07560  0.62645  Biso   1.000  C
  H515     1.0000 0.28970  0.06650  0.62670  Biso   1.000  H
  C681     1.0000 0.21350  0.07280  0.64250  Biso   1.000  C
  H516     1.0000 0.23240  0.06180  0.65370  Biso   1.000  H
  C682     1.0000 0.15170  0.08620  0.64211  Biso   1.000  C
  C683     1.0000 0.12406  0.10230  0.62566  Biso   1.000  C
  H517     1.0000 0.08190  0.11150  0.62540  Biso   1.000  H
  C684     1.0000 0.67770  0.11410  0.74720  Biso   1.000  C
  H518     1.0000 0.69270  0.12880  0.73580  Biso   1.000  H
  C685     1.0000 0.59280  0.10180  0.76916  Biso   1.000  C
  O79      1.0000 0.95470  0.10529  0.70821  Biso   1.000  O
  C686     1.0000 0.23940  0.08380  0.79435  Biso   1.000  C
  H519     1.0000 0.21860  0.05590  0.80210  Biso   1.000  H
  C687     1.0000 0.35142  0.08616  0.57592  Biso   1.000  C
  H520     1.0000 0.39360  0.07710  0.57600  Biso   1.000  H
  C688     1.0000 0.31797  0.08200  0.59206  Biso   1.000  C
  H521     1.0000 0.33730  0.07010  0.60320  Biso   1.000  H
  C689     1.0000 0.25620  0.09520  0.59197  Biso   1.000  C
  C690     1.0000 0.22788  0.11260  0.57573  Biso   1.000  C
  H522     1.0000 0.18570  0.12160  0.57570  Biso   1.000  H
  C691     1.0000 0.26134  0.11670  0.55960  Biso   1.000  C
  H523     1.0000 0.24200  0.12860  0.54850  Biso   1.000  H
  N32      1.0000 0.32311  0.10355  0.55969  Biso   1.000  N
  O80      1.0000 0.81267  0.04425  0.76370  Biso   1.000  O
  C692     1.0000 0.87580  0.30980  0.91877  Biso   1.000  C
  H524     1.0000 0.85800  0.32480  0.90780  Biso   1.000  H
  C693     1.0000 0.69520  0.06950  0.77614  Biso   1.000  C
  H525     1.0000 0.72290  0.05130  0.78450  Biso   1.000  H
  C694     1.0000 0.92200  0.27130  0.95038  Biso   1.000  C
  H526     1.0000 0.93530  0.25460  0.96170  Biso   1.000  H
  C695     1.0000 0.92850  0.23570  0.93503  Biso   1.000  C
  H527     1.0000 0.95000  0.19830  0.93590  Biso   1.000  H
  C696     1.0000 0.87330  0.34410  0.93473  Biso   1.000  C
  H528     1.0000 0.85240  0.38180  0.93440  Biso   1.000  H
  C697     1.0000 0.86220  0.17530  0.89802  Biso   1.000  C
  H529     1.0000 0.82850  0.17260  0.90610  Biso   1.000  H
  C698     1.0000 0.91110  0.21280  0.90234  Biso   1.000  C
  C699     1.0000 0.96040  0.21670  0.89048  Biso   1.000  C
  H530     1.0000 0.99380  0.24230  0.89340  Biso   1.000  H
  C700     1.0000 0.96090  0.18320  0.87429  Biso   1.000  C
  H531     1.0000 0.99460  0.18590  0.86620  Biso   1.000  H
  C701     1.0000 0.91200  0.14580  0.86997  Biso   1.000  C
  C702     1.0000 0.86270  0.14190  0.88184  Biso   1.000  C
  H532     1.0000 0.82930  0.11630  0.87890  Biso   1.000  H
  C703     1.0000 0.90434  0.69750  0.73314  Biso   1.000  C
  H533     1.0000 0.90170  0.72700  0.72360  Biso   1.000  H
  C704     1.0000 0.89870  0.63610  0.72901  Biso   1.000  C
  H534     1.0000 0.89220  0.62360  0.71670  Biso   1.000  H
  C705     1.0000 0.90260  0.59310  0.74292  Biso   1.000  C
  C706     1.0000 0.91210  0.61140  0.76096  Biso   1.000  C
  H535     1.0000 0.91470  0.58200  0.77050  Biso   1.000  H
  C707     1.0000 0.91770  0.67280  0.76508  Biso   1.000  C
  H536     1.0000 0.92420  0.68540  0.77740  Biso   1.000  H
  C708     1.0000 0.91380  0.71590  0.75117  Biso   1.000  C
  C709     1.0000 0.87497  0.42280  0.74989  Biso   1.000  C
  H537     1.0000 0.86300  0.39570  0.75940  Biso   1.000  H
  C710     1.0000 0.88570  0.40070  0.73231  Biso   1.000  C
  C711     1.0000 0.90330  0.44030  0.71840  Biso   1.000  C
  H538     1.0000 0.91060  0.42520  0.70640  Biso   1.000  H
  C712     1.0000 0.91000  0.50190  0.72209  Biso   1.000  C
  H539     1.0000 0.92200  0.52890  0.71260  Biso   1.000  H
  C713     1.0000 0.89920  0.52390  0.73968  Biso   1.000  C
  C714     1.0000 0.88170  0.48440  0.75358  Biso   1.000  C
  H540     1.0000 0.87430  0.49940  0.76560  Biso   1.000  H
  C715     1.0000 0.52770  0.11140  0.77364  Biso   1.000  C
  C716     1.0000 0.40250  0.11320  0.77859  Biso   1.000  C
  C717     1.0000 0.93490  0.33760  0.93808  Biso   1.000  C
  H541     1.0000 0.96200  0.37080  0.93970  Biso   1.000  H
  C718     1.0000 0.86520  0.27750  0.94885  Biso   1.000  C
  H542     1.0000 0.83760  0.26780  0.95840  Biso   1.000  H
  C719     1.0000 0.86700  0.23840  0.93355  Biso   1.000  C
  H543     1.0000 0.84280  0.20260  0.93320  Biso   1.000  H
  C720     1.0000 0.93900  0.30510  0.92162  Biso   1.000  C
  H544     1.0000 0.96550  0.31890  0.91220  Biso   1.000  H
  C721     1.0000 0.93160  0.29890  0.72912  Biso   1.000  C
  H545     1.0000 0.96930  0.31790  0.73180  Biso   1.000  H
  C722     1.0000 0.82560  0.29670  0.73114  Biso   1.000  C
  H546     1.0000 0.79080  0.31240  0.73720  Biso   1.000  H
  C723     1.0000 0.93040  0.23810  0.72611  Biso   1.000  C
  H547     1.0000 0.96770  0.21700  0.72450  Biso   1.000  H
  C724     1.0000 0.82580  0.23950  0.72504  Biso   1.000  C
  H548     1.0000 0.78950  0.22140  0.72060  Biso   1.000  H
  C725     1.0000 0.49770  0.16640  0.77627  Biso   1.000  C
  H549     1.0000 0.52010  0.20330  0.77640  Biso   1.000  H
  C726     1.0000 0.49500  0.05740  0.77350  Biso   1.000  C
  H550     1.0000 0.51550  0.01980  0.77170  Biso   1.000  H
  C727     1.0000 0.43240  0.05820  0.77597  Biso   1.000  C
  H551     1.0000 0.41010  0.02130  0.77590  Biso   1.000  H
  C728     1.0000 0.43510  0.16720  0.77874  Biso   1.000  C
  H552     1.0000 0.41460  0.20480  0.78050  Biso   1.000  H
  C729     1.0000 0.87880  0.19760  0.86901  Biso   1.000  C
  H553     1.0000 0.86140  0.21110  0.85780  Biso   1.000  H
  C730     1.0000 0.87030  0.23440  0.88747  Biso   1.000  C
  H554     1.0000 0.84220  0.26680  0.88890  Biso   1.000  H
  C731     1.0000 0.94620  0.16700  0.90023  Biso   1.000  C
  H555     1.0000 0.97260  0.15580  0.91000  Biso   1.000  H
  C732     1.0000 0.94690  0.13290  0.88405  Biso   1.000  C
  H556     1.0000 0.97360  0.09910  0.88320  Biso   1.000  H
  C733     1.0000 0.86160  0.68320  0.75865  Biso   1.000  C
  H557     1.0000 0.83270  0.70260  0.76640  Biso   1.000  H
  C734     1.0000 0.95730  0.68510  0.74081  Biso   1.000  C
  H558     1.0000 0.99350  0.70510  0.73720  Biso   1.000  H
  C735     1.0000 0.94780  0.62700  0.73602  Biso   1.000  C
  H559     1.0000 0.97440  0.60900  0.72730  Biso   1.000  H
  C736     1.0000 0.85660  0.62370  0.75394  Biso   1.000  C
  H560     1.0000 0.82210  0.60130  0.75790  Biso   1.000  H
