data_image0
_cell_length_a       16.9847
_cell_length_b       24.2343
_cell_length_c       36.286
_cell_angle_alpha    90
_cell_angle_beta     90
_cell_angle_gamma    90

_symmetry_space_group_name_H-M    "P 1"
_symmetry_int_tables_number       1

loop_
  _symmetry_equiv_pos_as_xyz
  'x, y, z'

loop_
  _atom_site_label
  _atom_site_occupancy
  _atom_site_fract_x
  _atom_site_fract_y
  _atom_site_fract_z
  _atom_site_thermal_displace_type
  _atom_site_B_iso_or_equiv
  _atom_site_type_symbol
  Ce1      1.0000 0.43198  0.06074  0.02082  Biso   1.000  Ce
  Ce2      1.0000 0.60937  0.20105  0.14065  Biso   1.000  Ce
  Ce3      1.0000 0.89170  0.09575  0.23973  Biso   1.000  Ce
  O1       1.0000 0.34010  0.09600  0.97330  Biso   1.000  O
  O2       1.0000 0.27950  0.16260  0.94220  Biso   1.000  O
  O3       1.0000 0.52200  0.11860  0.05770  Biso   1.000  O
  O4       1.0000 0.56700  0.19930  0.07770  Biso   1.000  O
  O5       1.0000 0.41890  0.33400  0.99540  Biso   1.000  O
  H1       1.0000 0.39430  0.34190  0.97600  Biso   1.000  H
  O6       1.0000 0.44460  0.98880  0.97490  Biso   1.000  O
  O7       1.0000 0.73440  0.21400  0.17340  Biso   1.000  O
  O8       1.0000 0.78190  0.14310  0.20490  Biso   1.000  O
  O9       1.0000 0.98850  0.14660  0.27800  Biso   1.000  O
  O10      1.0000 0.03540  0.22310  0.30400  Biso   1.000  O
  O11      1.0000 0.89170  0.37250  0.23110  Biso   1.000  O
  H2       1.0000 0.93500  0.38420  0.23910  Biso   1.000  H
  O12      1.0000 0.91290  0.04620  0.30320  Biso   1.000  O
  H3       1.0000 0.96220  0.03720  0.30550  Biso   1.000  H
  H4       1.0000 0.88400  0.01650  0.30400  Biso   1.000  H
  O13      1.0000 0.74920  0.06890  0.23270  Biso   1.000  O
  H5       1.0000 0.74000  0.03970  0.24610  Biso   1.000  H
  H6       1.0000 0.73950  0.06150  0.20970  Biso   1.000  H
  O14      1.0000 0.88440  0.05150  0.17740  Biso   1.000  O
  H7       1.0000 0.83720  0.05560  0.16850  Biso   1.000  H
  H8       1.0000 0.89480  0.01650  0.17960  Biso   1.000  H
  N1       1.0000 0.42950  0.16520  0.00950  Biso   1.000  N
  N2       1.0000 0.88950  0.20280  0.23720  Biso   1.000  N
  C1       1.0000 0.32870  0.14650  0.96450  Biso   1.000  C
  C2       1.0000 0.37940  0.18780  0.98530  Biso   1.000  C
  C3       1.0000 0.37320  0.24400  0.97910  Biso   1.000  C
  H9       1.0000 0.33730  0.25820  0.96140  Biso   1.000  H
  C4       1.0000 0.42120  0.27890  0.99950  Biso   1.000  C
  C5       1.0000 0.47290  0.25580  0.02560  Biso   1.000  C
  H10      1.0000 0.50590  0.27840  0.04040  Biso   1.000  H
  C6       1.0000 0.47330  0.19900  0.02880  Biso   1.000  C
  C7       1.0000 0.52570  0.17130  0.05680  Biso   1.000  C
  C8       1.0000 0.78620  0.19410  0.19410  Biso   1.000  C
  C9       1.0000 0.83950  0.22960  0.21530  Biso   1.000  C
  C10      1.0000 0.83790  0.28640  0.21200  Biso   1.000  C
  H11      1.0000 0.80320  0.30430  0.19520  Biso   1.000  H
  C11      1.0000 0.88920  0.31610  0.23430  Biso   1.000  C
  C12      1.0000 0.93860  0.28890  0.25840  Biso   1.000  C
  H12      1.0000 0.97280  0.30860  0.27440  Biso   1.000  H
  C13      1.0000 0.93630  0.23220  0.25840  Biso   1.000  C
  C14      1.0000 0.99130  0.20000  0.28200  Biso   1.000  C
  W1       1.0000 0.56758  0.13550  0.93302  Biso   1.000  W
  W2       1.0000 0.67805  0.24659  0.97267  Biso   1.000  W
  W3       1.0000 0.77972  0.13533  0.92791  Biso   1.000  W
  W4       1.0000 0.56222  0.12074  0.84033  Biso   1.000  W
  W5       1.0000 0.46315  0.22469  0.88089  Biso   1.000  W
  W6       1.0000 0.56870  0.33651  0.92323  Biso   1.000  W
  W7       1.0000 0.76830  0.34072  0.91867  Biso   1.000  W
  W8       1.0000 0.87443  0.23004  0.87578  Biso   1.000  W
  W9       1.0000 0.77397  0.12584  0.83508  Biso   1.000  W
  W10      1.0000 0.65699  0.21997  0.78160  Biso   1.000  W
  W11      1.0000 0.56259  0.32429  0.82485  Biso   1.000  W
  W12      1.0000 0.76119  0.32324  0.82038  Biso   1.000  W
  O15      1.0000 0.52880  0.09070  0.96440  Biso   1.000  O
  O16      1.0000 0.82820  0.39210  0.93430  Biso   1.000  O
  O17      1.0000 0.97310  0.24010  0.87270  Biso   1.000  O
  O18      1.0000 0.50060  0.37070  0.80350  Biso   1.000  O
  O19      1.0000 0.81550  0.37020  0.79590  Biso   1.000  O
  O20      1.0000 0.59830  0.19500  0.96200  Biso   1.000  O
  O21      1.0000 0.67310  0.11300  0.93110  Biso   1.000  O
  O22      1.0000 0.54950  0.09150  0.88910  Biso   1.000  O
  O23      1.0000 0.47080  0.17370  0.92070  Biso   1.000  O
  O24      1.0000 0.59680  0.30360  0.96840  Biso   1.000  O
  O25      1.0000 0.75220  0.30550  0.96570  Biso   1.000  O
  O26      1.0000 0.75270  0.19460  0.95950  Biso   1.000  O
  O27      1.0000 0.87140  0.17680  0.91430  Biso   1.000  O
  O28      1.0000 0.79120  0.09410  0.88410  Biso   1.000  O
  O29      1.0000 0.46640  0.16280  0.84830  Biso   1.000  O
  O30      1.0000 0.58510  0.16930  0.80140  Biso   1.000  O
  O31      1.0000 0.66790  0.10090  0.84110  Biso   1.000  O
  O32      1.0000 0.49200  0.27090  0.84190  Biso   1.000  O
  O33      1.0000 0.49560  0.28170  0.91350  Biso   1.000  O
  O34      1.0000 0.66920  0.37580  0.92500  Biso   1.000  O
  O35      1.0000 0.57050  0.35290  0.87170  Biso   1.000  O
  O36      1.0000 0.84250  0.28460  0.90830  Biso   1.000  O
  O37      1.0000 0.76250  0.35480  0.86780  Biso   1.000  O
  O38      1.0000 0.86610  0.16830  0.84150  Biso   1.000  O
  O39      1.0000 0.83770  0.27290  0.83600  Biso   1.000  O
  O40      1.0000 0.73880  0.17150  0.79740  Biso   1.000  O
  O41      1.0000 0.58100  0.27780  0.78220  Biso   1.000  O
  O42      1.0000 0.73620  0.27760  0.77920  Biso   1.000  O
  O43      1.0000 0.66110  0.35870  0.81280  Biso   1.000  O
  B1       1.0000 0.66940  0.22990  0.87780  Biso   1.000  B
  O44      1.0000 0.59710  0.19260  0.88150  Biso   1.000  O
  O45      1.0000 0.67010  0.27200  0.90940  Biso   1.000  O
  O46      1.0000 0.74410  0.19430  0.87850  Biso   1.000  O
  O47      1.0000 0.66520  0.26230  0.84130  Biso   1.000  O
  O48      1.0000 0.81310  0.14310  0.18930  Biso   1.000  O
  O49      1.0000 0.85710  0.01440  0.28390  Biso   1.000  O
  H13      1.0000 0.85860  0.98340  0.27180  Biso   1.000  H
  H14      1.0000 0.81020  0.01930  0.29290  Biso   1.000  H
  O50      1.0000 0.78210  0.02690  0.24610  Biso   1.000  O
  H15      1.0000 0.79110  0.99900  0.23160  Biso   1.000  H
  H16      1.0000 0.73800  0.04260  0.23980  Biso   1.000  H
  O51      1.0000 0.88300  0.03010  0.18650  Biso   1.000  O
  H17      1.0000 0.83510  0.01750  0.18470  Biso   1.000  H
  H18      1.0000 0.91520  0.00290  0.19020  Biso   1.000  H
  O52      1.0000 0.59500  0.26480  0.87650  Biso   1.000  O
  O53      1.0000 0.67400  0.19910  0.91480  Biso   1.000  O
  O54      1.0000 0.74300  0.26840  0.87380  Biso   1.000  O
  O55      1.0000 0.67000  0.18850  0.84570  Biso   1.000  O
  Ce4      1.0000 0.06802  0.93926  0.52082  Biso   1.000  Ce
  Ce5      1.0000 0.89063  0.79895  0.64065  Biso   1.000  Ce
  Ce6      1.0000 0.60830  0.90425  0.73973  Biso   1.000  Ce
  O56      1.0000 0.15990  0.90400  0.47330  Biso   1.000  O
  O57      1.0000 0.22050  0.83740  0.44220  Biso   1.000  O
  O58      1.0000 0.97800  0.88140  0.55770  Biso   1.000  O
  O59      1.0000 0.93300  0.80070  0.57770  Biso   1.000  O
  O60      1.0000 0.08110  0.66600  0.49540  Biso   1.000  O
  H19      1.0000 0.10570  0.65810  0.47600  Biso   1.000  H
  O61      1.0000 0.05540  0.01120  0.47490  Biso   1.000  O
  O62      1.0000 0.76560  0.78600  0.67340  Biso   1.000  O
  O63      1.0000 0.71810  0.85690  0.70490  Biso   1.000  O
  O64      1.0000 0.51150  0.85340  0.77800  Biso   1.000  O
  O65      1.0000 0.46460  0.77690  0.80400  Biso   1.000  O
  O66      1.0000 0.60830  0.62750  0.73110  Biso   1.000  O
  H20      1.0000 0.56500  0.61580  0.73910  Biso   1.000  H
  O67      1.0000 0.58710  0.95380  0.80320  Biso   1.000  O
  H21      1.0000 0.53780  0.96280  0.80550  Biso   1.000  H
  H22      1.0000 0.61600  0.98350  0.80400  Biso   1.000  H
  O68      1.0000 0.75080  0.93110  0.73270  Biso   1.000  O
  H23      1.0000 0.76000  0.96030  0.74610  Biso   1.000  H
  H24      1.0000 0.76050  0.93850  0.70970  Biso   1.000  H
  O69      1.0000 0.61560  0.94850  0.67740  Biso   1.000  O
  H25      1.0000 0.66280  0.94440  0.66850  Biso   1.000  H
  H26      1.0000 0.60520  0.98350  0.67960  Biso   1.000  H
  N3       1.0000 0.07050  0.83480  0.50950  Biso   1.000  N
  N4       1.0000 0.61050  0.79720  0.73720  Biso   1.000  N
  C15      1.0000 0.17130  0.85350  0.46450  Biso   1.000  C
  C16      1.0000 0.12060  0.81220  0.48530  Biso   1.000  C
  C17      1.0000 0.12680  0.75600  0.47910  Biso   1.000  C
  H27      1.0000 0.16270  0.74180  0.46140  Biso   1.000  H
  C18      1.0000 0.07880  0.72110  0.49950  Biso   1.000  C
  C19      1.0000 0.02710  0.74420  0.52560  Biso   1.000  C
  H28      1.0000 0.99410  0.72160  0.54040  Biso   1.000  H
  C20      1.0000 0.02670  0.80100  0.52880  Biso   1.000  C
  C21      1.0000 0.97430  0.82870  0.55680  Biso   1.000  C
  C22      1.0000 0.71380  0.80590  0.69410  Biso   1.000  C
  C23      1.0000 0.66050  0.77040  0.71530  Biso   1.000  C
  C24      1.0000 0.66210  0.71360  0.71200  Biso   1.000  C
  H29      1.0000 0.69680  0.69570  0.69520  Biso   1.000  H
  C25      1.0000 0.61080  0.68390  0.73430  Biso   1.000  C
  C26      1.0000 0.56140  0.71110  0.75840  Biso   1.000  C
  H30      1.0000 0.52720  0.69140  0.77440  Biso   1.000  H
  C27      1.0000 0.56370  0.76780  0.75840  Biso   1.000  C
  C28      1.0000 0.50870  0.80000  0.78200  Biso   1.000  C
  W13      1.0000 0.93242  0.86450  0.43302  Biso   1.000  W
  W14      1.0000 0.82195  0.75341  0.47267  Biso   1.000  W
  W15      1.0000 0.72028  0.86467  0.42791  Biso   1.000  W
  W16      1.0000 0.93778  0.87926  0.34033  Biso   1.000  W
  W17      1.0000 0.03685  0.77531  0.38089  Biso   1.000  W
  W18      1.0000 0.93130  0.66349  0.42323  Biso   1.000  W
  W19      1.0000 0.73170  0.65928  0.41867  Biso   1.000  W
  W20      1.0000 0.62557  0.76996  0.37578  Biso   1.000  W
  W21      1.0000 0.72603  0.87416  0.33508  Biso   1.000  W
  W22      1.0000 0.84301  0.78003  0.28160  Biso   1.000  W
  W23      1.0000 0.93741  0.67571  0.32485  Biso   1.000  W
  W24      1.0000 0.73881  0.67676  0.32038  Biso   1.000  W
  O70      1.0000 0.97120  0.90930  0.46440  Biso   1.000  O
  O71      1.0000 0.67180  0.60790  0.43430  Biso   1.000  O
  O72      1.0000 0.52690  0.75990  0.37270  Biso   1.000  O
  O73      1.0000 0.99940  0.62930  0.30350  Biso   1.000  O
  O74      1.0000 0.68450  0.62980  0.29590  Biso   1.000  O
  O75      1.0000 0.90170  0.80500  0.46200  Biso   1.000  O
  O76      1.0000 0.82690  0.88700  0.43110  Biso   1.000  O
  O77      1.0000 0.95050  0.90850  0.38910  Biso   1.000  O
  O78      1.0000 0.02920  0.82630  0.42070  Biso   1.000  O
  O79      1.0000 0.90320  0.69640  0.46840  Biso   1.000  O
  O80      1.0000 0.74780  0.69450  0.46570  Biso   1.000  O
  O81      1.0000 0.74730  0.80540  0.45950  Biso   1.000  O
  O82      1.0000 0.62860  0.82320  0.41430  Biso   1.000  O
  O83      1.0000 0.70880  0.90590  0.38410  Biso   1.000  O
  O84      1.0000 0.03360  0.83720  0.34830  Biso   1.000  O
  O85      1.0000 0.91490  0.83070  0.30140  Biso   1.000  O
  O86      1.0000 0.83210  0.89910  0.34110  Biso   1.000  O
  O87      1.0000 0.00800  0.72910  0.34190  Biso   1.000  O
  O88      1.0000 0.00440  0.71830  0.41350  Biso   1.000  O
  O89      1.0000 0.83080  0.62420  0.42500  Biso   1.000  O
  O90      1.0000 0.92950  0.64710  0.37170  Biso   1.000  O
  O91      1.0000 0.65750  0.71540  0.40830  Biso   1.000  O
  O92      1.0000 0.73750  0.64520  0.36780  Biso   1.000  O
  O93      1.0000 0.63390  0.83170  0.34150  Biso   1.000  O
  O94      1.0000 0.66230  0.72710  0.33600  Biso   1.000  O
  O95      1.0000 0.76120  0.82850  0.29740  Biso   1.000  O
  O96      1.0000 0.91900  0.72220  0.28220  Biso   1.000  O
  O97      1.0000 0.76380  0.72240  0.27920  Biso   1.000  O
  O98      1.0000 0.83890  0.64130  0.31280  Biso   1.000  O
  B2       1.0000 0.83060  0.77010  0.37780  Biso   1.000  B
  O99      1.0000 0.90290  0.80740  0.38150  Biso   1.000  O
  O100     1.0000 0.82990  0.72800  0.40940  Biso   1.000  O
  O101     1.0000 0.75590  0.80570  0.37850  Biso   1.000  O
  O102     1.0000 0.83480  0.73770  0.34130  Biso   1.000  O
  O103     1.0000 0.68690  0.85690  0.68930  Biso   1.000  O
  O104     1.0000 0.64290  0.98560  0.78390  Biso   1.000  O
  H31      1.0000 0.64140  0.01660  0.77180  Biso   1.000  H
  H32      1.0000 0.68980  0.98070  0.79290  Biso   1.000  H
  O105     1.0000 0.71790  0.97310  0.74610  Biso   1.000  O
  H33      1.0000 0.70890  0.00100  0.73160  Biso   1.000  H
  H34      1.0000 0.76200  0.95740  0.73980  Biso   1.000  H
  O106     1.0000 0.61700  0.96990  0.68650  Biso   1.000  O
  H35      1.0000 0.66490  0.98250  0.68470  Biso   1.000  H
  H36      1.0000 0.58480  0.99710  0.69020  Biso   1.000  H
  O107     1.0000 0.90500  0.73520  0.37650  Biso   1.000  O
  O108     1.0000 0.82600  0.80090  0.41480  Biso   1.000  O
  O109     1.0000 0.75700  0.73160  0.37380  Biso   1.000  O
  O110     1.0000 0.83000  0.81150  0.34570  Biso   1.000  O
  Ce7      1.0000 0.56802  0.56074  0.47918  Biso   1.000  Ce
  Ce8      1.0000 0.39063  0.70105  0.35935  Biso   1.000  Ce
  Ce9      1.0000 0.10830  0.59575  0.26027  Biso   1.000  Ce
  O111     1.0000 0.65990  0.59600  0.52670  Biso   1.000  O
  O112     1.0000 0.72050  0.66260  0.55780  Biso   1.000  O
  O113     1.0000 0.47800  0.61860  0.44230  Biso   1.000  O
  O114     1.0000 0.43300  0.69930  0.42230  Biso   1.000  O
  O115     1.0000 0.58110  0.83400  0.50460  Biso   1.000  O
  H37      1.0000 0.60570  0.84190  0.52400  Biso   1.000  H
  O116     1.0000 0.55540  0.48880  0.52510  Biso   1.000  O
  O117     1.0000 0.26560  0.71400  0.32660  Biso   1.000  O
  O118     1.0000 0.21810  0.64310  0.29510  Biso   1.000  O
  O119     1.0000 0.01150  0.64660  0.22200  Biso   1.000  O
  O120     1.0000 0.96460  0.72310  0.19600  Biso   1.000  O
  O121     1.0000 0.10830  0.87250  0.26890  Biso   1.000  O
  H38      1.0000 0.06500  0.88420  0.26090  Biso   1.000  H
  O122     1.0000 0.08710  0.54620  0.19680  Biso   1.000  O
  H39      1.0000 0.03780  0.53720  0.19450  Biso   1.000  H
  H40      1.0000 0.11600  0.51650  0.19600  Biso   1.000  H
  O123     1.0000 0.25080  0.56890  0.26730  Biso   1.000  O
  H41      1.0000 0.26000  0.53970  0.25390  Biso   1.000  H
  H42      1.0000 0.26050  0.56150  0.29030  Biso   1.000  H
  O124     1.0000 0.11560  0.55150  0.32260  Biso   1.000  O
  H43      1.0000 0.16280  0.55560  0.33150  Biso   1.000  H
  H44      1.0000 0.10520  0.51650  0.32040  Biso   1.000  H
  N5       1.0000 0.57050  0.66520  0.49050  Biso   1.000  N
  N6       1.0000 0.11050  0.70280  0.26280  Biso   1.000  N
  C29      1.0000 0.67130  0.64650  0.53550  Biso   1.000  C
  C30      1.0000 0.62060  0.68780  0.51470  Biso   1.000  C
  C31      1.0000 0.62680  0.74400  0.52090  Biso   1.000  C
  H45      1.0000 0.66270  0.75820  0.53860  Biso   1.000  H
  C32      1.0000 0.57880  0.77890  0.50050  Biso   1.000  C
  C33      1.0000 0.52710  0.75580  0.47440  Biso   1.000  C
  H46      1.0000 0.49410  0.77840  0.45960  Biso   1.000  H
  C34      1.0000 0.52670  0.69900  0.47120  Biso   1.000  C
  C35      1.0000 0.47430  0.67130  0.44320  Biso   1.000  C
  C36      1.0000 0.21380  0.69410  0.30590  Biso   1.000  C
  C37      1.0000 0.16050  0.72960  0.28470  Biso   1.000  C
  C38      1.0000 0.16210  0.78640  0.28800  Biso   1.000  C
  H47      1.0000 0.19680  0.80430  0.30480  Biso   1.000  H
  C39      1.0000 0.11080  0.81610  0.26570  Biso   1.000  C
  C40      1.0000 0.06140  0.78890  0.24160  Biso   1.000  C
  H48      1.0000 0.02720  0.80860  0.22560  Biso   1.000  H
  C41      1.0000 0.06370  0.73220  0.24160  Biso   1.000  C
  C42      1.0000 0.00870  0.70000  0.21800  Biso   1.000  C
  W25      1.0000 0.43242  0.63550  0.56698  Biso   1.000  W
  W26      1.0000 0.32195  0.74659  0.52733  Biso   1.000  W
  W27      1.0000 0.22028  0.63533  0.57209  Biso   1.000  W
  W28      1.0000 0.43778  0.62074  0.65967  Biso   1.000  W
  W29      1.0000 0.53685  0.72469  0.61911  Biso   1.000  W
  W30      1.0000 0.43130  0.83651  0.57677  Biso   1.000  W
  W31      1.0000 0.23170  0.84072  0.58133  Biso   1.000  W
  W32      1.0000 0.12557  0.73004  0.62422  Biso   1.000  W
  W33      1.0000 0.22603  0.62584  0.66492  Biso   1.000  W
  W34      1.0000 0.34301  0.71997  0.71840  Biso   1.000  W
  W35      1.0000 0.43741  0.82429  0.67515  Biso   1.000  W
  W36      1.0000 0.23881  0.82324  0.67962  Biso   1.000  W
  O125     1.0000 0.47120  0.59070  0.53560  Biso   1.000  O
  O126     1.0000 0.17180  0.89210  0.56570  Biso   1.000  O
  O127     1.0000 0.02690  0.74010  0.62730  Biso   1.000  O
  O128     1.0000 0.49940  0.87070  0.69650  Biso   1.000  O
  O129     1.0000 0.18450  0.87020  0.70410  Biso   1.000  O
  O130     1.0000 0.40170  0.69500  0.53800  Biso   1.000  O
  O131     1.0000 0.32690  0.61300  0.56890  Biso   1.000  O
  O132     1.0000 0.45050  0.59150  0.61090  Biso   1.000  O
  O133     1.0000 0.52920  0.67370  0.57930  Biso   1.000  O
  O134     1.0000 0.40320  0.80360  0.53160  Biso   1.000  O
  O135     1.0000 0.24780  0.80550  0.53430  Biso   1.000  O
  O136     1.0000 0.24730  0.69460  0.54050  Biso   1.000  O
  O137     1.0000 0.12860  0.67680  0.58570  Biso   1.000  O
  O138     1.0000 0.20880  0.59410  0.61590  Biso   1.000  O
  O139     1.0000 0.53360  0.66280  0.65170  Biso   1.000  O
  O140     1.0000 0.41490  0.66930  0.69860  Biso   1.000  O
  O141     1.0000 0.33210  0.60090  0.65890  Biso   1.000  O
  O142     1.0000 0.50800  0.77090  0.65810  Biso   1.000  O
  O143     1.0000 0.50440  0.78170  0.58650  Biso   1.000  O
  O144     1.0000 0.33080  0.87580  0.57500  Biso   1.000  O
  O145     1.0000 0.42950  0.85290  0.62830  Biso   1.000  O
  O146     1.0000 0.15750  0.78460  0.59170  Biso   1.000  O
  O147     1.0000 0.23750  0.85480  0.63220  Biso   1.000  O
  O148     1.0000 0.13390  0.66830  0.65850  Biso   1.000  O
  O149     1.0000 0.16230  0.77290  0.66400  Biso   1.000  O
  O150     1.0000 0.26120  0.67150  0.70260  Biso   1.000  O
  O151     1.0000 0.41900  0.77780  0.71780  Biso   1.000  O
  O152     1.0000 0.26380  0.77760  0.72080  Biso   1.000  O
  O153     1.0000 0.33890  0.85870  0.68720  Biso   1.000  O
  B3       1.0000 0.33060  0.72990  0.62220  Biso   1.000  B
  O154     1.0000 0.40290  0.69260  0.61850  Biso   1.000  O
  O155     1.0000 0.32990  0.77200  0.59060  Biso   1.000  O
  O156     1.0000 0.25590  0.69430  0.62150  Biso   1.000  O
  O157     1.0000 0.33480  0.76230  0.65870  Biso   1.000  O
  O158     1.0000 0.18690  0.64310  0.31070  Biso   1.000  O
  O159     1.0000 0.14290  0.51440  0.21610  Biso   1.000  O
  H49      1.0000 0.14140  0.48340  0.22820  Biso   1.000  H
  H50      1.0000 0.18980  0.51930  0.20710  Biso   1.000  H
  O160     1.0000 0.21790  0.52690  0.25390  Biso   1.000  O
  H51      1.0000 0.20890  0.49900  0.26840  Biso   1.000  H
  H52      1.0000 0.26200  0.54260  0.26020  Biso   1.000  H
  O161     1.0000 0.11700  0.53010  0.31350  Biso   1.000  O
  H53      1.0000 0.16490  0.51750  0.31530  Biso   1.000  H
  H54      1.0000 0.08480  0.50290  0.30980  Biso   1.000  H
  O162     1.0000 0.40500  0.76480  0.62350  Biso   1.000  O
  O163     1.0000 0.32600  0.69910  0.58520  Biso   1.000  O
  O164     1.0000 0.25700  0.76840  0.62620  Biso   1.000  O
  O165     1.0000 0.33000  0.68850  0.65430  Biso   1.000  O
  Ce10     1.0000 0.93198  0.43926  0.97918  Biso   1.000  Ce
  Ce11     1.0000 0.10937  0.29895  0.85935  Biso   1.000  Ce
  Ce12     1.0000 0.39170  0.40425  0.76027  Biso   1.000  Ce
  O166     1.0000 0.84010  0.40400  0.02670  Biso   1.000  O
  O167     1.0000 0.77950  0.33740  0.05780  Biso   1.000  O
  O168     1.0000 0.02200  0.38140  0.94230  Biso   1.000  O
  O169     1.0000 0.06700  0.30070  0.92230  Biso   1.000  O
  O170     1.0000 0.91890  0.16600  0.00460  Biso   1.000  O
  H55      1.0000 0.89430  0.15810  0.02400  Biso   1.000  H
  O171     1.0000 0.94460  0.51120  0.02510  Biso   1.000  O
  O172     1.0000 0.23440  0.28600  0.82660  Biso   1.000  O
  O173     1.0000 0.28190  0.35690  0.79510  Biso   1.000  O
  O174     1.0000 0.48850  0.35340  0.72200  Biso   1.000  O
  O175     1.0000 0.53540  0.27690  0.69600  Biso   1.000  O
  O176     1.0000 0.39170  0.12750  0.76890  Biso   1.000  O
  H56      1.0000 0.43500  0.11580  0.76090  Biso   1.000  H
  O177     1.0000 0.41290  0.45380  0.69680  Biso   1.000  O
  H57      1.0000 0.46220  0.46280  0.69450  Biso   1.000  H
  H58      1.0000 0.38400  0.48350  0.69600  Biso   1.000  H
  O178     1.0000 0.24920  0.43110  0.76730  Biso   1.000  O
  H59      1.0000 0.24000  0.46030  0.75390  Biso   1.000  H
  H60      1.0000 0.23950  0.43850  0.79030  Biso   1.000  H
  O179     1.0000 0.38440  0.44850  0.82260  Biso   1.000  O
  H61      1.0000 0.33720  0.44440  0.83150  Biso   1.000  H
  H62      1.0000 0.39480  0.48350  0.82040  Biso   1.000  H
  N7       1.0000 0.92950  0.33480  0.99050  Biso   1.000  N
  N8       1.0000 0.38950  0.29720  0.76280  Biso   1.000  N
  C43      1.0000 0.82870  0.35350  0.03550  Biso   1.000  C
  C44      1.0000 0.87940  0.31220  0.01470  Biso   1.000  C
  C45      1.0000 0.87320  0.25600  0.02090  Biso   1.000  C
  H63      1.0000 0.83730  0.24180  0.03860  Biso   1.000  H
  C46      1.0000 0.92120  0.22110  0.00050  Biso   1.000  C
  C47      1.0000 0.97290  0.24420  0.97440  Biso   1.000  C
  H64      1.0000 0.00590  0.22160  0.95960  Biso   1.000  H
  C48      1.0000 0.97330  0.30100  0.97120  Biso   1.000  C
  C49      1.0000 0.02570  0.32870  0.94320  Biso   1.000  C
  C50      1.0000 0.28620  0.30590  0.80590  Biso   1.000  C
  C51      1.0000 0.33950  0.27040  0.78470  Biso   1.000  C
  C52      1.0000 0.33790  0.21360  0.78800  Biso   1.000  C
  H65      1.0000 0.30320  0.19570  0.80480  Biso   1.000  H
  C53      1.0000 0.38920  0.18390  0.76570  Biso   1.000  C
  C54      1.0000 0.43860  0.21110  0.74160  Biso   1.000  C
  H66      1.0000 0.47280  0.19140  0.72560  Biso   1.000  H
  C55      1.0000 0.43630  0.26780  0.74160  Biso   1.000  C
  C56      1.0000 0.49130  0.30000  0.71800  Biso   1.000  C
  W37      1.0000 0.06758  0.36450  0.06698  Biso   1.000  W
  W38      1.0000 0.17805  0.25341  0.02733  Biso   1.000  W
  W39      1.0000 0.27972  0.36467  0.07209  Biso   1.000  W
  W40      1.0000 0.06222  0.37926  0.15967  Biso   1.000  W
  W41      1.0000 0.96315  0.27531  0.11911  Biso   1.000  W
  W42      1.0000 0.06870  0.16349  0.07677  Biso   1.000  W
  W43      1.0000 0.26830  0.15928  0.08133  Biso   1.000  W
  W44      1.0000 0.37443  0.26996  0.12422  Biso   1.000  W
  W45      1.0000 0.27397  0.37416  0.16492  Biso   1.000  W
  W46      1.0000 0.15699  0.28003  0.21840  Biso   1.000  W
  W47      1.0000 0.06259  0.17571  0.17515  Biso   1.000  W
  W48      1.0000 0.26119  0.17676  0.17962  Biso   1.000  W
  O180     1.0000 0.02880  0.40930  0.03560  Biso   1.000  O
  O181     1.0000 0.32820  0.10790  0.06570  Biso   1.000  O
  O182     1.0000 0.47310  0.25990  0.12730  Biso   1.000  O
  O183     1.0000 0.00060  0.12930  0.19650  Biso   1.000  O
  O184     1.0000 0.31550  0.12980  0.20410  Biso   1.000  O
  O185     1.0000 0.09830  0.30500  0.03800  Biso   1.000  O
  O186     1.0000 0.17310  0.38700  0.06890  Biso   1.000  O
  O187     1.0000 0.04950  0.40850  0.11090  Biso   1.000  O
  O188     1.0000 0.97080  0.32630  0.07930  Biso   1.000  O
  O189     1.0000 0.09680  0.19640  0.03160  Biso   1.000  O
  O190     1.0000 0.25220  0.19450  0.03430  Biso   1.000  O
  O191     1.0000 0.25270  0.30540  0.04050  Biso   1.000  O
  O192     1.0000 0.37140  0.32320  0.08570  Biso   1.000  O
  O193     1.0000 0.29120  0.40590  0.11590  Biso   1.000  O
  O194     1.0000 0.96640  0.33720  0.15170  Biso   1.000  O
  O195     1.0000 0.08510  0.33070  0.19860  Biso   1.000  O
  O196     1.0000 0.16790  0.39910  0.15890  Biso   1.000  O
  O197     1.0000 0.99200  0.22910  0.15810  Biso   1.000  O
  O198     1.0000 0.99560  0.21830  0.08650  Biso   1.000  O
  O199     1.0000 0.16920  0.12420  0.07500  Biso   1.000  O
  O200     1.0000 0.07050  0.14710  0.12830  Biso   1.000  O
  O201     1.0000 0.34250  0.21540  0.09170  Biso   1.000  O
  O202     1.0000 0.26250  0.14520  0.13220  Biso   1.000  O
  O203     1.0000 0.36610  0.33170  0.15850  Biso   1.000  O
  O204     1.0000 0.33770  0.22710  0.16400  Biso   1.000  O
  O205     1.0000 0.23880  0.32850  0.20260  Biso   1.000  O
  O206     1.0000 0.08100  0.22220  0.21780  Biso   1.000  O
  O207     1.0000 0.23620  0.22240  0.22080  Biso   1.000  O
  O208     1.0000 0.16110  0.14130  0.18720  Biso   1.000  O
  B4       1.0000 0.16940  0.27010  0.12220  Biso   1.000  B
  O209     1.0000 0.09710  0.30740  0.11850  Biso   1.000  O
  O210     1.0000 0.17010  0.22800  0.09060  Biso   1.000  O
  O211     1.0000 0.24410  0.30570  0.12150  Biso   1.000  O
  O212     1.0000 0.16520  0.23770  0.15870  Biso   1.000  O
  O213     1.0000 0.31310  0.35690  0.81070  Biso   1.000  O
  O214     1.0000 0.35710  0.48560  0.71610  Biso   1.000  O
  H67      1.0000 0.35860  0.51660  0.72820  Biso   1.000  H
  H68      1.0000 0.31020  0.48070  0.70710  Biso   1.000  H
  O215     1.0000 0.28210  0.47310  0.75390  Biso   1.000  O
  H69      1.0000 0.29110  0.50100  0.76840  Biso   1.000  H
  H70      1.0000 0.23800  0.45740  0.76020  Biso   1.000  H
  O216     1.0000 0.38300  0.46990  0.81350  Biso   1.000  O
  H71      1.0000 0.33510  0.48250  0.81530  Biso   1.000  H
  H72      1.0000 0.41520  0.49710  0.80980  Biso   1.000  H
  O217     1.0000 0.09500  0.23520  0.12350  Biso   1.000  O
  O218     1.0000 0.17400  0.30090  0.08520  Biso   1.000  O
  O219     1.0000 0.24300  0.23160  0.12620  Biso   1.000  O
  O220     1.0000 0.17000  0.31150  0.15430  Biso   1.000  O
  Ce13     1.0000 0.56802  0.93926  0.97918  Biso   1.000  Ce
  Ce14     1.0000 0.39063  0.79895  0.85935  Biso   1.000  Ce
  Ce15     1.0000 0.10830  0.90425  0.76027  Biso   1.000  Ce
  O221     1.0000 0.65990  0.90400  0.02670  Biso   1.000  O
  O222     1.0000 0.72050  0.83740  0.05780  Biso   1.000  O
  O223     1.0000 0.47800  0.88140  0.94230  Biso   1.000  O
  O224     1.0000 0.43300  0.80070  0.92230  Biso   1.000  O
  O225     1.0000 0.58110  0.66600  0.00460  Biso   1.000  O
  H73      1.0000 0.60570  0.65810  0.02400  Biso   1.000  H
  O226     1.0000 0.55540  0.01120  0.02510  Biso   1.000  O
  O227     1.0000 0.26560  0.78600  0.82660  Biso   1.000  O
  O228     1.0000 0.21810  0.85690  0.79510  Biso   1.000  O
  O229     1.0000 0.01150  0.85340  0.72200  Biso   1.000  O
  O230     1.0000 0.96460  0.77690  0.69600  Biso   1.000  O
  O231     1.0000 0.10830  0.62750  0.76890  Biso   1.000  O
  H74      1.0000 0.06500  0.61580  0.76090  Biso   1.000  H
  O232     1.0000 0.08710  0.95380  0.69680  Biso   1.000  O
  H75      1.0000 0.03780  0.96280  0.69450  Biso   1.000  H
  H76      1.0000 0.11600  0.98350  0.69600  Biso   1.000  H
  O233     1.0000 0.25080  0.93110  0.76730  Biso   1.000  O
  H77      1.0000 0.26000  0.96030  0.75390  Biso   1.000  H
  H78      1.0000 0.26050  0.93850  0.79030  Biso   1.000  H
  O234     1.0000 0.11560  0.94850  0.82260  Biso   1.000  O
  H79      1.0000 0.16280  0.94440  0.83150  Biso   1.000  H
  H80      1.0000 0.10520  0.98350  0.82040  Biso   1.000  H
  N9       1.0000 0.57050  0.83480  0.99050  Biso   1.000  N
  N10      1.0000 0.11050  0.79720  0.76280  Biso   1.000  N
  C57      1.0000 0.67130  0.85350  0.03550  Biso   1.000  C
  C58      1.0000 0.62060  0.81220  0.01470  Biso   1.000  C
  C59      1.0000 0.62680  0.75600  0.02090  Biso   1.000  C
  H81      1.0000 0.66270  0.74180  0.03860  Biso   1.000  H
  C60      1.0000 0.57880  0.72110  0.00050  Biso   1.000  C
  C61      1.0000 0.52710  0.74420  0.97440  Biso   1.000  C
  H82      1.0000 0.49410  0.72160  0.95960  Biso   1.000  H
  C62      1.0000 0.52670  0.80100  0.97120  Biso   1.000  C
  C63      1.0000 0.47430  0.82870  0.94320  Biso   1.000  C
  C64      1.0000 0.21380  0.80590  0.80590  Biso   1.000  C
  C65      1.0000 0.16050  0.77040  0.78470  Biso   1.000  C
  C66      1.0000 0.16210  0.71360  0.78800  Biso   1.000  C
  H83      1.0000 0.19680  0.69570  0.80480  Biso   1.000  H
  C67      1.0000 0.11080  0.68390  0.76570  Biso   1.000  C
  C68      1.0000 0.06140  0.71110  0.74160  Biso   1.000  C
  H84      1.0000 0.02720  0.69140  0.72560  Biso   1.000  H
  C69      1.0000 0.06370  0.76780  0.74160  Biso   1.000  C
  C70      1.0000 0.00870  0.80000  0.71800  Biso   1.000  C
  W49      1.0000 0.43242  0.86450  0.06698  Biso   1.000  W
  W50      1.0000 0.32195  0.75341  0.02733  Biso   1.000  W
  W51      1.0000 0.22028  0.86467  0.07209  Biso   1.000  W
  W52      1.0000 0.43778  0.87926  0.15967  Biso   1.000  W
  W53      1.0000 0.53685  0.77531  0.11911  Biso   1.000  W
  W54      1.0000 0.43130  0.66349  0.07677  Biso   1.000  W
  W55      1.0000 0.23170  0.65928  0.08133  Biso   1.000  W
  W56      1.0000 0.12557  0.76996  0.12422  Biso   1.000  W
  W57      1.0000 0.22603  0.87416  0.16492  Biso   1.000  W
  W58      1.0000 0.34301  0.78003  0.21840  Biso   1.000  W
  W59      1.0000 0.43741  0.67571  0.17515  Biso   1.000  W
  W60      1.0000 0.23881  0.67676  0.17962  Biso   1.000  W
  O235     1.0000 0.47120  0.90930  0.03560  Biso   1.000  O
  O236     1.0000 0.17180  0.60790  0.06570  Biso   1.000  O
  O237     1.0000 0.02690  0.75990  0.12730  Biso   1.000  O
  O238     1.0000 0.49940  0.62930  0.19650  Biso   1.000  O
  O239     1.0000 0.18450  0.62980  0.20410  Biso   1.000  O
  O240     1.0000 0.40170  0.80500  0.03800  Biso   1.000  O
  O241     1.0000 0.32690  0.88700  0.06890  Biso   1.000  O
  O242     1.0000 0.45050  0.90850  0.11090  Biso   1.000  O
  O243     1.0000 0.52920  0.82630  0.07930  Biso   1.000  O
  O244     1.0000 0.40320  0.69640  0.03160  Biso   1.000  O
  O245     1.0000 0.24780  0.69450  0.03430  Biso   1.000  O
  O246     1.0000 0.24730  0.80540  0.04050  Biso   1.000  O
  O247     1.0000 0.12860  0.82320  0.08570  Biso   1.000  O
  O248     1.0000 0.20880  0.90590  0.11590  Biso   1.000  O
  O249     1.0000 0.53360  0.83720  0.15170  Biso   1.000  O
  O250     1.0000 0.41490  0.83070  0.19860  Biso   1.000  O
  O251     1.0000 0.33210  0.89910  0.15890  Biso   1.000  O
  O252     1.0000 0.50800  0.72910  0.15810  Biso   1.000  O
  O253     1.0000 0.50440  0.71830  0.08650  Biso   1.000  O
  O254     1.0000 0.33080  0.62420  0.07500  Biso   1.000  O
  O255     1.0000 0.42950  0.64710  0.12830  Biso   1.000  O
  O256     1.0000 0.15750  0.71540  0.09170  Biso   1.000  O
  O257     1.0000 0.23750  0.64520  0.13220  Biso   1.000  O
  O258     1.0000 0.13390  0.83170  0.15850  Biso   1.000  O
  O259     1.0000 0.16230  0.72710  0.16400  Biso   1.000  O
  O260     1.0000 0.26120  0.82850  0.20260  Biso   1.000  O
  O261     1.0000 0.41900  0.72220  0.21780  Biso   1.000  O
  O262     1.0000 0.26380  0.72240  0.22080  Biso   1.000  O
  O263     1.0000 0.33890  0.64130  0.18720  Biso   1.000  O
  B5       1.0000 0.33060  0.77010  0.12220  Biso   1.000  B
  O264     1.0000 0.40290  0.80740  0.11850  Biso   1.000  O
  O265     1.0000 0.32990  0.72800  0.09060  Biso   1.000  O
  O266     1.0000 0.25590  0.80570  0.12150  Biso   1.000  O
  O267     1.0000 0.33480  0.73770  0.15870  Biso   1.000  O
  O268     1.0000 0.18690  0.85690  0.81070  Biso   1.000  O
  O269     1.0000 0.14290  0.98560  0.71610  Biso   1.000  O
  H85      1.0000 0.14140  0.01660  0.72820  Biso   1.000  H
  H86      1.0000 0.18980  0.98070  0.70710  Biso   1.000  H
  O270     1.0000 0.21790  0.97310  0.75390  Biso   1.000  O
  H87      1.0000 0.20890  0.00100  0.76840  Biso   1.000  H
  H88      1.0000 0.26200  0.95740  0.76020  Biso   1.000  H
  O271     1.0000 0.11700  0.96990  0.81350  Biso   1.000  O
  H89      1.0000 0.16490  0.98250  0.81530  Biso   1.000  H
  H90      1.0000 0.08480  0.99710  0.80980  Biso   1.000  H
  O272     1.0000 0.40500  0.73520  0.12350  Biso   1.000  O
  O273     1.0000 0.32600  0.80090  0.08520  Biso   1.000  O
  O274     1.0000 0.25700  0.73160  0.12620  Biso   1.000  O
  O275     1.0000 0.33000  0.81150  0.15430  Biso   1.000  O
  Ce16     1.0000 0.93198  0.06074  0.47918  Biso   1.000  Ce
  Ce17     1.0000 0.10937  0.20105  0.35935  Biso   1.000  Ce
  Ce18     1.0000 0.39170  0.09575  0.26027  Biso   1.000  Ce
  O276     1.0000 0.84010  0.09600  0.52670  Biso   1.000  O
  O277     1.0000 0.77950  0.16260  0.55780  Biso   1.000  O
  O278     1.0000 0.02200  0.11860  0.44230  Biso   1.000  O
  O279     1.0000 0.06700  0.19930  0.42230  Biso   1.000  O
  O280     1.0000 0.91890  0.33400  0.50460  Biso   1.000  O
  H91      1.0000 0.89430  0.34190  0.52400  Biso   1.000  H
  O281     1.0000 0.94460  0.98880  0.52510  Biso   1.000  O
  O282     1.0000 0.23440  0.21400  0.32660  Biso   1.000  O
  O283     1.0000 0.28190  0.14310  0.29510  Biso   1.000  O
  O284     1.0000 0.48850  0.14660  0.22200  Biso   1.000  O
  O285     1.0000 0.53540  0.22310  0.19600  Biso   1.000  O
  O286     1.0000 0.39170  0.37250  0.26890  Biso   1.000  O
  H92      1.0000 0.43500  0.38420  0.26090  Biso   1.000  H
  O287     1.0000 0.41290  0.04620  0.19680  Biso   1.000  O
  H93      1.0000 0.46220  0.03720  0.19450  Biso   1.000  H
  H94      1.0000 0.38400  0.01650  0.19600  Biso   1.000  H
  O288     1.0000 0.24920  0.06890  0.26730  Biso   1.000  O
  H95      1.0000 0.24000  0.03970  0.25390  Biso   1.000  H
  H96      1.0000 0.23950  0.06150  0.29030  Biso   1.000  H
  O289     1.0000 0.38440  0.05150  0.32260  Biso   1.000  O
  H97      1.0000 0.33720  0.05560  0.33150  Biso   1.000  H
  H98      1.0000 0.39480  0.01650  0.32040  Biso   1.000  H
  N11      1.0000 0.92950  0.16520  0.49050  Biso   1.000  N
  N12      1.0000 0.38950  0.20280  0.26280  Biso   1.000  N
  C71      1.0000 0.82870  0.14650  0.53550  Biso   1.000  C
  C72      1.0000 0.87940  0.18780  0.51470  Biso   1.000  C
  C73      1.0000 0.87320  0.24400  0.52090  Biso   1.000  C
  H99      1.0000 0.83730  0.25820  0.53860  Biso   1.000  H
  C74      1.0000 0.92120  0.27890  0.50050  Biso   1.000  C
  C75      1.0000 0.97290  0.25580  0.47440  Biso   1.000  C
  H100     1.0000 0.00590  0.27840  0.45960  Biso   1.000  H
  C76      1.0000 0.97330  0.19900  0.47120  Biso   1.000  C
  C77      1.0000 0.02570  0.17130  0.44320  Biso   1.000  C
  C78      1.0000 0.28620  0.19410  0.30590  Biso   1.000  C
  C79      1.0000 0.33950  0.22960  0.28470  Biso   1.000  C
  C80      1.0000 0.33790  0.28640  0.28800  Biso   1.000  C
  H101     1.0000 0.30320  0.30430  0.30480  Biso   1.000  H
  C81      1.0000 0.38920  0.31610  0.26570  Biso   1.000  C
  C82      1.0000 0.43860  0.28890  0.24160  Biso   1.000  C
  H102     1.0000 0.47280  0.30860  0.22560  Biso   1.000  H
  C83      1.0000 0.43630  0.23220  0.24160  Biso   1.000  C
  C84      1.0000 0.49130  0.20000  0.21800  Biso   1.000  C
  W61      1.0000 0.06758  0.13550  0.56698  Biso   1.000  W
  W62      1.0000 0.17805  0.24659  0.52733  Biso   1.000  W
  W63      1.0000 0.27972  0.13533  0.57209  Biso   1.000  W
  W64      1.0000 0.06222  0.12074  0.65967  Biso   1.000  W
  W65      1.0000 0.96315  0.22469  0.61911  Biso   1.000  W
  W66      1.0000 0.06870  0.33651  0.57677  Biso   1.000  W
  W67      1.0000 0.26830  0.34072  0.58133  Biso   1.000  W
  W68      1.0000 0.37443  0.23004  0.62422  Biso   1.000  W
  W69      1.0000 0.27397  0.12584  0.66492  Biso   1.000  W
  W70      1.0000 0.15699  0.21997  0.71840  Biso   1.000  W
  W71      1.0000 0.06259  0.32429  0.67515  Biso   1.000  W
  W72      1.0000 0.26119  0.32324  0.67962  Biso   1.000  W
  O290     1.0000 0.02880  0.09070  0.53560  Biso   1.000  O
  O291     1.0000 0.32820  0.39210  0.56570  Biso   1.000  O
  O292     1.0000 0.47310  0.24010  0.62730  Biso   1.000  O
  O293     1.0000 0.00060  0.37070  0.69650  Biso   1.000  O
  O294     1.0000 0.31550  0.37020  0.70410  Biso   1.000  O
  O295     1.0000 0.09830  0.19500  0.53800  Biso   1.000  O
  O296     1.0000 0.17310  0.11300  0.56890  Biso   1.000  O
  O297     1.0000 0.04950  0.09150  0.61090  Biso   1.000  O
  O298     1.0000 0.97080  0.17370  0.57930  Biso   1.000  O
  O299     1.0000 0.09680  0.30360  0.53160  Biso   1.000  O
  O300     1.0000 0.25220  0.30550  0.53430  Biso   1.000  O
  O301     1.0000 0.25270  0.19460  0.54050  Biso   1.000  O
  O302     1.0000 0.37140  0.17680  0.58570  Biso   1.000  O
  O303     1.0000 0.29120  0.09410  0.61590  Biso   1.000  O
  O304     1.0000 0.96640  0.16280  0.65170  Biso   1.000  O
  O305     1.0000 0.08510  0.16930  0.69860  Biso   1.000  O
  O306     1.0000 0.16790  0.10090  0.65890  Biso   1.000  O
  O307     1.0000 0.99200  0.27090  0.65810  Biso   1.000  O
  O308     1.0000 0.99560  0.28170  0.58650  Biso   1.000  O
  O309     1.0000 0.16920  0.37580  0.57500  Biso   1.000  O
  O310     1.0000 0.07050  0.35290  0.62830  Biso   1.000  O
  O311     1.0000 0.34250  0.28460  0.59170  Biso   1.000  O
  O312     1.0000 0.26250  0.35480  0.63220  Biso   1.000  O
  O313     1.0000 0.36610  0.16830  0.65850  Biso   1.000  O
  O314     1.0000 0.33770  0.27290  0.66400  Biso   1.000  O
  O315     1.0000 0.23880  0.17150  0.70260  Biso   1.000  O
  O316     1.0000 0.08100  0.27780  0.71780  Biso   1.000  O
  O317     1.0000 0.23620  0.27760  0.72080  Biso   1.000  O
  O318     1.0000 0.16110  0.35870  0.68720  Biso   1.000  O
  B6       1.0000 0.16940  0.22990  0.62220  Biso   1.000  B
  O319     1.0000 0.09710  0.19260  0.61850  Biso   1.000  O
  O320     1.0000 0.17010  0.27200  0.59060  Biso   1.000  O
  O321     1.0000 0.24410  0.19430  0.62150  Biso   1.000  O
  O322     1.0000 0.16520  0.26230  0.65870  Biso   1.000  O
  O323     1.0000 0.31310  0.14310  0.31070  Biso   1.000  O
  O324     1.0000 0.35710  0.01440  0.21610  Biso   1.000  O
  H103     1.0000 0.35860  0.98340  0.22820  Biso   1.000  H
  H104     1.0000 0.31020  0.01930  0.20710  Biso   1.000  H
  O325     1.0000 0.28210  0.02690  0.25390  Biso   1.000  O
  H105     1.0000 0.29110  0.99900  0.26840  Biso   1.000  H
  H106     1.0000 0.23800  0.04260  0.26020  Biso   1.000  H
  O326     1.0000 0.38300  0.03010  0.31350  Biso   1.000  O
  H107     1.0000 0.33510  0.01750  0.31530  Biso   1.000  H
  H108     1.0000 0.41520  0.00290  0.30980  Biso   1.000  H
  O327     1.0000 0.09500  0.26480  0.62350  Biso   1.000  O
  O328     1.0000 0.17400  0.19910  0.58520  Biso   1.000  O
  O329     1.0000 0.24300  0.26840  0.62620  Biso   1.000  O
  O330     1.0000 0.17000  0.18850  0.65430  Biso   1.000  O
  Ce19     1.0000 0.43198  0.43926  0.52082  Biso   1.000  Ce
  Ce20     1.0000 0.60937  0.29895  0.64065  Biso   1.000  Ce
  Ce21     1.0000 0.89170  0.40425  0.73973  Biso   1.000  Ce
  O331     1.0000 0.34010  0.40400  0.47330  Biso   1.000  O
  O332     1.0000 0.27950  0.33740  0.44220  Biso   1.000  O
  O333     1.0000 0.52200  0.38140  0.55770  Biso   1.000  O
  O334     1.0000 0.56700  0.30070  0.57770  Biso   1.000  O
  O335     1.0000 0.41890  0.16600  0.49540  Biso   1.000  O
  H109     1.0000 0.39430  0.15810  0.47600  Biso   1.000  H
  O336     1.0000 0.44460  0.51120  0.47490  Biso   1.000  O
  O337     1.0000 0.73440  0.28600  0.67340  Biso   1.000  O
  O338     1.0000 0.78190  0.35690  0.70490  Biso   1.000  O
  O339     1.0000 0.98850  0.35340  0.77800  Biso   1.000  O
  O340     1.0000 0.03540  0.27690  0.80400  Biso   1.000  O
  O341     1.0000 0.89170  0.12750  0.73110  Biso   1.000  O
  H110     1.0000 0.93500  0.11580  0.73910  Biso   1.000  H
  O342     1.0000 0.91290  0.45380  0.80320  Biso   1.000  O
  H111     1.0000 0.96220  0.46280  0.80550  Biso   1.000  H
  H112     1.0000 0.88400  0.48350  0.80400  Biso   1.000  H
  O343     1.0000 0.74920  0.43110  0.73270  Biso   1.000  O
  H113     1.0000 0.74000  0.46030  0.74610  Biso   1.000  H
  H114     1.0000 0.73950  0.43850  0.70970  Biso   1.000  H
  O344     1.0000 0.88440  0.44850  0.67740  Biso   1.000  O
  H115     1.0000 0.83720  0.44440  0.66850  Biso   1.000  H
  H116     1.0000 0.89480  0.48350  0.67960  Biso   1.000  H
  N13      1.0000 0.42950  0.33480  0.50950  Biso   1.000  N
  N14      1.0000 0.88950  0.29720  0.73720  Biso   1.000  N
  C85      1.0000 0.32870  0.35350  0.46450  Biso   1.000  C
  C86      1.0000 0.37940  0.31220  0.48530  Biso   1.000  C
  C87      1.0000 0.37320  0.25600  0.47910  Biso   1.000  C
  H117     1.0000 0.33730  0.24180  0.46140  Biso   1.000  H
  C88      1.0000 0.42120  0.22110  0.49950  Biso   1.000  C
  C89      1.0000 0.47290  0.24420  0.52560  Biso   1.000  C
  H118     1.0000 0.50590  0.22160  0.54040  Biso   1.000  H
  C90      1.0000 0.47330  0.30100  0.52880  Biso   1.000  C
  C91      1.0000 0.52570  0.32870  0.55680  Biso   1.000  C
  C92      1.0000 0.78620  0.30590  0.69410  Biso   1.000  C
  C93      1.0000 0.83950  0.27040  0.71530  Biso   1.000  C
  C94      1.0000 0.83790  0.21360  0.71200  Biso   1.000  C
  H119     1.0000 0.80320  0.19570  0.69520  Biso   1.000  H
  C95      1.0000 0.88920  0.18390  0.73430  Biso   1.000  C
  C96      1.0000 0.93860  0.21110  0.75840  Biso   1.000  C
  H120     1.0000 0.97280  0.19140  0.77440  Biso   1.000  H
  C97      1.0000 0.93630  0.26780  0.75840  Biso   1.000  C
  C98      1.0000 0.99130  0.30000  0.78200  Biso   1.000  C
  W73      1.0000 0.56758  0.36450  0.43302  Biso   1.000  W
  W74      1.0000 0.67805  0.25341  0.47267  Biso   1.000  W
  W75      1.0000 0.77972  0.36467  0.42791  Biso   1.000  W
  W76      1.0000 0.56222  0.37926  0.34033  Biso   1.000  W
  W77      1.0000 0.46315  0.27531  0.38089  Biso   1.000  W
  W78      1.0000 0.56870  0.16349  0.42323  Biso   1.000  W
  W79      1.0000 0.76830  0.15928  0.41867  Biso   1.000  W
  W80      1.0000 0.87443  0.26996  0.37578  Biso   1.000  W
  W81      1.0000 0.77397  0.37416  0.33508  Biso   1.000  W
  W82      1.0000 0.65699  0.28003  0.28160  Biso   1.000  W
  W83      1.0000 0.56259  0.17571  0.32485  Biso   1.000  W
  W84      1.0000 0.76119  0.17676  0.32038  Biso   1.000  W
  O345     1.0000 0.52880  0.40930  0.46440  Biso   1.000  O
  O346     1.0000 0.82820  0.10790  0.43430  Biso   1.000  O
  O347     1.0000 0.97310  0.25990  0.37270  Biso   1.000  O
  O348     1.0000 0.50060  0.12930  0.30350  Biso   1.000  O
  O349     1.0000 0.81550  0.12980  0.29590  Biso   1.000  O
  O350     1.0000 0.59830  0.30500  0.46200  Biso   1.000  O
  O351     1.0000 0.67310  0.38700  0.43110  Biso   1.000  O
  O352     1.0000 0.54950  0.40850  0.38910  Biso   1.000  O
  O353     1.0000 0.47080  0.32630  0.42070  Biso   1.000  O
  O354     1.0000 0.59680  0.19640  0.46840  Biso   1.000  O
  O355     1.0000 0.75220  0.19450  0.46570  Biso   1.000  O
  O356     1.0000 0.75270  0.30540  0.45950  Biso   1.000  O
  O357     1.0000 0.87140  0.32320  0.41430  Biso   1.000  O
  O358     1.0000 0.79120  0.40590  0.38410  Biso   1.000  O
  O359     1.0000 0.46640  0.33720  0.34830  Biso   1.000  O
  O360     1.0000 0.58510  0.33070  0.30140  Biso   1.000  O
  O361     1.0000 0.66790  0.39910  0.34110  Biso   1.000  O
  O362     1.0000 0.49200  0.22910  0.34190  Biso   1.000  O
  O363     1.0000 0.49560  0.21830  0.41350  Biso   1.000  O
  O364     1.0000 0.66920  0.12420  0.42500  Biso   1.000  O
  O365     1.0000 0.57050  0.14710  0.37170  Biso   1.000  O
  O366     1.0000 0.84250  0.21540  0.40830  Biso   1.000  O
  O367     1.0000 0.76250  0.14520  0.36780  Biso   1.000  O
  O368     1.0000 0.86610  0.33170  0.34150  Biso   1.000  O
  O369     1.0000 0.83770  0.22710  0.33600  Biso   1.000  O
  O370     1.0000 0.73880  0.32850  0.29740  Biso   1.000  O
  O371     1.0000 0.58100  0.22220  0.28220  Biso   1.000  O
  O372     1.0000 0.73620  0.22240  0.27920  Biso   1.000  O
  O373     1.0000 0.66110  0.14130  0.31280  Biso   1.000  O
  B7       1.0000 0.66940  0.27010  0.37780  Biso   1.000  B
  O374     1.0000 0.59710  0.30740  0.38150  Biso   1.000  O
  O375     1.0000 0.67010  0.22800  0.40940  Biso   1.000  O
  O376     1.0000 0.74410  0.30570  0.37850  Biso   1.000  O
  O377     1.0000 0.66520  0.23770  0.34130  Biso   1.000  O
  O378     1.0000 0.81310  0.35690  0.68930  Biso   1.000  O
  O379     1.0000 0.85710  0.48560  0.78390  Biso   1.000  O
  H121     1.0000 0.85860  0.51660  0.77180  Biso   1.000  H
  H122     1.0000 0.81020  0.48070  0.79290  Biso   1.000  H
  O380     1.0000 0.78210  0.47310  0.74610  Biso   1.000  O
  H123     1.0000 0.79110  0.50100  0.73160  Biso   1.000  H
  H124     1.0000 0.73800  0.45740  0.73980  Biso   1.000  H
  O381     1.0000 0.88300  0.46990  0.68650  Biso   1.000  O
  H125     1.0000 0.83510  0.48250  0.68470  Biso   1.000  H
  H126     1.0000 0.91520  0.49710  0.69020  Biso   1.000  H
  O382     1.0000 0.59500  0.23520  0.37650  Biso   1.000  O
  O383     1.0000 0.67400  0.30090  0.41480  Biso   1.000  O
  O384     1.0000 0.74300  0.23160  0.37380  Biso   1.000  O
  O385     1.0000 0.67000  0.31150  0.34570  Biso   1.000  O
  Ce22     1.0000 0.06802  0.56074  0.02082  Biso   1.000  Ce
  Ce23     1.0000 0.89063  0.70105  0.14065  Biso   1.000  Ce
  Ce24     1.0000 0.60830  0.59575  0.23973  Biso   1.000  Ce
  O386     1.0000 0.15990  0.59600  0.97330  Biso   1.000  O
  O387     1.0000 0.22050  0.66260  0.94220  Biso   1.000  O
  O388     1.0000 0.97800  0.61860  0.05770  Biso   1.000  O
  O389     1.0000 0.93300  0.69930  0.07770  Biso   1.000  O
  O390     1.0000 0.08110  0.83400  0.99540  Biso   1.000  O
  H127     1.0000 0.10570  0.84190  0.97600  Biso   1.000  H
  O391     1.0000 0.05540  0.48880  0.97490  Biso   1.000  O
  O392     1.0000 0.76560  0.71400  0.17340  Biso   1.000  O
  O393     1.0000 0.71810  0.64310  0.20490  Biso   1.000  O
  O394     1.0000 0.51150  0.64660  0.27800  Biso   1.000  O
  O395     1.0000 0.46460  0.72310  0.30400  Biso   1.000  O
  O396     1.0000 0.60830  0.87250  0.23110  Biso   1.000  O
  H128     1.0000 0.56500  0.88420  0.23910  Biso   1.000  H
  O397     1.0000 0.58710  0.54620  0.30320  Biso   1.000  O
  H129     1.0000 0.53780  0.53720  0.30550  Biso   1.000  H
  H130     1.0000 0.61600  0.51650  0.30400  Biso   1.000  H
  O398     1.0000 0.75080  0.56890  0.23270  Biso   1.000  O
  H131     1.0000 0.76000  0.53970  0.24610  Biso   1.000  H
  H132     1.0000 0.76050  0.56150  0.20970  Biso   1.000  H
  O399     1.0000 0.61560  0.55150  0.17740  Biso   1.000  O
  H133     1.0000 0.66280  0.55560  0.16850  Biso   1.000  H
  H134     1.0000 0.60520  0.51650  0.17960  Biso   1.000  H
  N15      1.0000 0.07050  0.66520  0.00950  Biso   1.000  N
  N16      1.0000 0.61050  0.70280  0.23720  Biso   1.000  N
  C99      1.0000 0.17130  0.64650  0.96450  Biso   1.000  C
  C100     1.0000 0.12060  0.68780  0.98530  Biso   1.000  C
  C101     1.0000 0.12680  0.74400  0.97910  Biso   1.000  C
  H135     1.0000 0.16270  0.75820  0.96140  Biso   1.000  H
  C102     1.0000 0.07880  0.77890  0.99950  Biso   1.000  C
  C103     1.0000 0.02710  0.75580  0.02560  Biso   1.000  C
  H136     1.0000 0.99410  0.77840  0.04040  Biso   1.000  H
  C104     1.0000 0.02670  0.69900  0.02880  Biso   1.000  C
  C105     1.0000 0.97430  0.67130  0.05680  Biso   1.000  C
  C106     1.0000 0.71380  0.69410  0.19410  Biso   1.000  C
  C107     1.0000 0.66050  0.72960  0.21530  Biso   1.000  C
  C108     1.0000 0.66210  0.78640  0.21200  Biso   1.000  C
  H137     1.0000 0.69680  0.80430  0.19520  Biso   1.000  H
  C109     1.0000 0.61080  0.81610  0.23430  Biso   1.000  C
  C110     1.0000 0.56140  0.78890  0.25840  Biso   1.000  C
  H138     1.0000 0.52720  0.80860  0.27440  Biso   1.000  H
  C111     1.0000 0.56370  0.73220  0.25840  Biso   1.000  C
  C112     1.0000 0.50870  0.70000  0.28200  Biso   1.000  C
  W85      1.0000 0.93242  0.63550  0.93302  Biso   1.000  W
  W86      1.0000 0.82195  0.74659  0.97267  Biso   1.000  W
  W87      1.0000 0.72028  0.63533  0.92791  Biso   1.000  W
  W88      1.0000 0.93778  0.62074  0.84033  Biso   1.000  W
  W89      1.0000 0.03685  0.72469  0.88089  Biso   1.000  W
  W90      1.0000 0.93130  0.83651  0.92323  Biso   1.000  W
  W91      1.0000 0.73170  0.84072  0.91867  Biso   1.000  W
  W92      1.0000 0.62557  0.73004  0.87578  Biso   1.000  W
  W93      1.0000 0.72603  0.62584  0.83508  Biso   1.000  W
  W94      1.0000 0.84301  0.71997  0.78160  Biso   1.000  W
  W95      1.0000 0.93741  0.82429  0.82485  Biso   1.000  W
  W96      1.0000 0.73881  0.82324  0.82038  Biso   1.000  W
  O400     1.0000 0.97120  0.59070  0.96440  Biso   1.000  O
  O401     1.0000 0.67180  0.89210  0.93430  Biso   1.000  O
  O402     1.0000 0.52690  0.74010  0.87270  Biso   1.000  O
  O403     1.0000 0.99940  0.87070  0.80350  Biso   1.000  O
  O404     1.0000 0.68450  0.87020  0.79590  Biso   1.000  O
  O405     1.0000 0.90170  0.69500  0.96200  Biso   1.000  O
  O406     1.0000 0.82690  0.61300  0.93110  Biso   1.000  O
  O407     1.0000 0.95050  0.59150  0.88910  Biso   1.000  O
  O408     1.0000 0.02920  0.67370  0.92070  Biso   1.000  O
  O409     1.0000 0.90320  0.80360  0.96840  Biso   1.000  O
  O410     1.0000 0.74780  0.80550  0.96570  Biso   1.000  O
  O411     1.0000 0.74730  0.69460  0.95950  Biso   1.000  O
  O412     1.0000 0.62860  0.67680  0.91430  Biso   1.000  O
  O413     1.0000 0.70880  0.59410  0.88410  Biso   1.000  O
  O414     1.0000 0.03360  0.66280  0.84830  Biso   1.000  O
  O415     1.0000 0.91490  0.66930  0.80140  Biso   1.000  O
  O416     1.0000 0.83210  0.60090  0.84110  Biso   1.000  O
  O417     1.0000 0.00800  0.77090  0.84190  Biso   1.000  O
  O418     1.0000 0.00440  0.78170  0.91350  Biso   1.000  O
  O419     1.0000 0.83080  0.87580  0.92500  Biso   1.000  O
  O420     1.0000 0.92950  0.85290  0.87170  Biso   1.000  O
  O421     1.0000 0.65750  0.78460  0.90830  Biso   1.000  O
  O422     1.0000 0.73750  0.85480  0.86780  Biso   1.000  O
  O423     1.0000 0.63390  0.66830  0.84150  Biso   1.000  O
  O424     1.0000 0.66230  0.77290  0.83600  Biso   1.000  O
  O425     1.0000 0.76120  0.67150  0.79740  Biso   1.000  O
  O426     1.0000 0.91900  0.77780  0.78220  Biso   1.000  O
  O427     1.0000 0.76380  0.77760  0.77920  Biso   1.000  O
  O428     1.0000 0.83890  0.85870  0.81280  Biso   1.000  O
  B8       1.0000 0.83060  0.72990  0.87780  Biso   1.000  B
  O429     1.0000 0.90290  0.69260  0.88150  Biso   1.000  O
  O430     1.0000 0.82990  0.77200  0.90940  Biso   1.000  O
  O431     1.0000 0.75590  0.69430  0.87850  Biso   1.000  O
  O432     1.0000 0.83480  0.76230  0.84130  Biso   1.000  O
  O433     1.0000 0.68690  0.64310  0.18930  Biso   1.000  O
  O434     1.0000 0.64290  0.51440  0.28390  Biso   1.000  O
  H139     1.0000 0.64140  0.48340  0.27180  Biso   1.000  H
  H140     1.0000 0.68980  0.51930  0.29290  Biso   1.000  H
  O435     1.0000 0.71790  0.52690  0.24610  Biso   1.000  O
  H141     1.0000 0.70890  0.49900  0.23160  Biso   1.000  H
  H142     1.0000 0.76200  0.54260  0.23980  Biso   1.000  H
  O436     1.0000 0.61700  0.53010  0.18650  Biso   1.000  O
  H143     1.0000 0.66490  0.51750  0.18470  Biso   1.000  H
  H144     1.0000 0.58480  0.50290  0.19020  Biso   1.000  H
  O437     1.0000 0.90500  0.76480  0.87650  Biso   1.000  O
  O438     1.0000 0.82600  0.69910  0.91480  Biso   1.000  O
  O439     1.0000 0.75700  0.76840  0.87380  Biso   1.000  O
  O440     1.0000 0.83000  0.68850  0.84570  Biso   1.000  O
