data_image0
_cell_length_a       15.961
_cell_length_b       23.415
_cell_length_c       24.165
_cell_angle_alpha    90
_cell_angle_beta     91.832
_cell_angle_gamma    90

_symmetry_space_group_name_H-M    "P 1"
_symmetry_int_tables_number       1

loop_
  _symmetry_equiv_pos_as_xyz
  'x, y, z'

loop_
  _atom_site_label
  _atom_site_occupancy
  _atom_site_fract_x
  _atom_site_fract_y
  _atom_site_fract_z
  _atom_site_thermal_displace_type
  _atom_site_B_iso_or_equiv
  _atom_site_type_symbol
  Ho1      1.0000 0.24774  0.78831  0.98759  Biso   1.000  Ho
  Ho2      1.0000 0.16114  0.81545  0.13193  Biso   1.000  Ho
  Ho3      1.0000 0.02488  0.75005  0.02087  Biso   1.000  Ho
  Ho4      1.0000 0.20094  0.66642  0.08813  Biso   1.000  Ho
  Ho5      1.0000 0.33116  0.83371  0.84676  Biso   1.000  Ho
  Ho6      1.0000 0.29926  0.67770  0.87443  Biso   1.000  Ho
  Ho7      1.0000 0.47023  0.75757  0.94790  Biso   1.000  Ho
  O1       1.0000 0.13100  0.81740  0.03640  Biso   1.000  O
  H1       1.0000 0.11240  0.85550  0.02450  Biso   1.000  H
  O2       1.0000 0.15600  0.70730  0.00290  Biso   1.000  O
  H2       1.0000 0.15360  0.68010  0.97210  Biso   1.000  H
  O3       1.0000 0.26310  0.75670  0.07970  Biso   1.000  O
  H3       1.0000 0.32080  0.75870  0.09480  Biso   1.000  H
  O4       1.0000 0.09530  0.73110  0.10660  Biso   1.000  O
  H4       1.0000 0.05750  0.71720  0.13480  Biso   1.000  H
  O5       1.0000 0.23430  0.76690  0.89370  Biso   1.000  O
  H5       1.0000 0.17630  0.76930  0.87920  Biso   1.000  H
  O6       1.0000 0.36120  0.82360  0.94080  Biso   1.000  O
  H6       1.0000 0.37920  0.86020  0.95680  Biso   1.000  H
  O7       1.0000 0.33910  0.71290  0.96360  Biso   1.000  O
  H7       1.0000 0.34290  0.68280  0.99180  Biso   1.000  H
  O8       1.0000 0.40260  0.74750  0.86220  Biso   1.000  O
  H8       1.0000 0.44080  0.73800  0.83260  Biso   1.000  H
  O9       1.0000 0.95520  0.12880  0.87940  Biso   1.000  O
  O10      1.0000 0.03670  0.16900  0.94370  Biso   1.000  O
  O11      1.0000 0.18130  0.87480  0.95170  Biso   1.000  O
  O12      1.0000 0.24200  0.90330  0.87450  Biso   1.000  O
  O13      1.0000 0.53690  0.72180  0.42490  Biso   1.000  O
  O14      1.0000 0.41010  0.73400  0.45650  Biso   1.000  O
  O15      1.0000 0.27080  0.67810  0.17460  Biso   1.000  O
  O16      1.0000 0.23760  0.76750  0.19650  Biso   1.000  O
  O17      1.0000 0.25120  0.79180  0.77860  Biso   1.000  O
  O18      1.0000 0.21890  0.70150  0.79600  Biso   1.000  O
  O19      1.0000 0.08160  0.74210  0.51580  Biso   1.000  O
  O20      1.0000 0.95660  0.73280  0.54630  Biso   1.000  O
  O21      1.0000 0.82270  0.36670  0.08640  Biso   1.000  O
  O22      1.0000 0.76350  0.41280  0.15320  Biso   1.000  O
  O23      1.0000 0.09240  0.60000  0.05760  Biso   1.000  O
  O24      1.0000 0.10830  0.61210  0.14590  Biso   1.000  O
  O25      1.0000 0.54990  0.10840  0.13250  Biso   1.000  O
  O26      1.0000 0.46920  0.15600  0.07260  Biso   1.000  O
  O27      1.0000 0.31770  0.86730  0.03470  Biso   1.000  O
  O28      1.0000 0.24870  0.88830  0.11050  Biso   1.000  O
  O29      1.0000 0.59690  0.38450  0.09460  Biso   1.000  O
  O30      1.0000 0.49830  0.33730  0.04810  Biso   1.000  O
  O31      1.0000 0.31580  0.62400  0.04290  Biso   1.000  O
  O32      1.0000 0.26820  0.57690  0.10740  Biso   1.000  O
  C1       1.0000 0.01740  0.12890  0.91390  Biso   1.000  C
  C2       1.0000 0.07390  0.07380  0.91490  Biso   1.000  C
  C3       1.0000 0.02950  0.02440  0.90160  Biso   1.000  C
  H9       1.0000 0.97270  0.02640  0.89210  Biso   1.000  H
  C4       1.0000 0.07000  0.97180  0.90260  Biso   1.000  C
  H10      1.0000 0.04030  0.93870  0.89370  Biso   1.000  H
  C5       1.0000 0.15500  0.96870  0.91680  Biso   1.000  C
  C6       1.0000 0.19940  0.01820  0.93010  Biso   1.000  C
  C7       1.0000 0.15880  0.07080  0.92910  Biso   1.000  C
  C8       1.0000 0.20320  0.12020  0.94240  Biso   1.000  C
  H11      1.0000 0.17610  0.15540  0.94180  Biso   1.000  H
  C9       1.0000 0.28820  0.11710  0.95670  Biso   1.000  C
  H12      1.0000 0.31790  0.15020  0.96550  Biso   1.000  H
  C10      1.0000 0.32870  0.06460  0.95760  Biso   1.000  C
  H13      1.0000 0.38560  0.06260  0.96710  Biso   1.000  H
  C11      1.0000 0.28430  0.01510  0.94430  Biso   1.000  C
  H14      1.0000 0.31150  0.98000  0.94500  Biso   1.000  H
  C12      1.0000 0.06830  0.07310  0.92050  Biso   1.000  C
  C13      1.0000 0.02530  0.02170  0.92430  Biso   1.000  C
  H15      1.0000 0.96730  0.02160  0.92680  Biso   1.000  H
  C14      1.0000 0.06900  0.97030  0.92460  Biso   1.000  C
  H16      1.0000 0.04030  0.93590  0.92710  Biso   1.000  H
  C15      1.0000 0.15580  0.97040  0.92090  Biso   1.000  C
  C16      1.0000 0.19880  0.02180  0.91710  Biso   1.000  C
  C17      1.0000 0.15500  0.07310  0.91680  Biso   1.000  C
  C18      1.0000 0.19800  0.12450  0.91300  Biso   1.000  C
  H17      1.0000 0.16870  0.15890  0.91280  Biso   1.000  H
  C19      1.0000 0.28470  0.12460  0.90930  Biso   1.000  C
  H18      1.0000 0.31350  0.15900  0.90670  Biso   1.000  H
  C20      1.0000 0.32850  0.07330  0.90950  Biso   1.000  C
  H19      1.0000 0.38650  0.07330  0.90710  Biso   1.000  H
  C21      1.0000 0.28550  0.02190  0.91340  Biso   1.000  C
  H20      1.0000 0.31480  0.98760  0.91360  Biso   1.000  H
  C22      1.0000 0.19560  0.91110  0.91430  Biso   1.000  C
  C23      1.0000 0.45920  0.72600  0.41640  Biso   1.000  C
  C24      1.0000 0.41880  0.72170  0.35930  Biso   1.000  C
  C25      1.0000 0.34620  0.75210  0.35020  Biso   1.000  C
  H21      1.0000 0.32420  0.77290  0.37910  Biso   1.000  H
  C26      1.0000 0.30540  0.75230  0.29950  Biso   1.000  C
  H22      1.0000 0.25780  0.77490  0.29480  Biso   1.000  H
  C27      1.0000 0.33120  0.72090  0.25540  Biso   1.000  C
  C28      1.0000 0.40670  0.68860  0.26300  Biso   1.000  C
  C29      1.0000 0.44150  0.65880  0.21820  Biso   1.000  C
  H23      1.0000 0.41440  0.65980  0.18360  Biso   1.000  H
  C30      1.0000 0.51350  0.62890  0.22500  Biso   1.000  C
  H24      1.0000 0.53330  0.60790  0.19550  Biso   1.000  H
  C31      1.0000 0.55920  0.62880  0.27600  Biso   1.000  C
  H25      1.0000 0.60940  0.60890  0.27990  Biso   1.000  H
  C32      1.0000 0.52830  0.65870  0.31980  Biso   1.000  C
  H26      1.0000 0.55770  0.65890  0.35370  Biso   1.000  H
  C33      1.0000 0.45140  0.68970  0.31380  Biso   1.000  C
  C34      1.0000 0.27550  0.72330  0.20460  Biso   1.000  C
  C35      1.0000 0.21120  0.74490  0.76850  Biso   1.000  C
  C36      1.0000 0.15580  0.74490  0.71660  Biso   1.000  C
  C37      1.0000 0.18690  0.77050  0.67160  Biso   1.000  C
  H27      1.0000 0.23720  0.79050  0.67460  Biso   1.000  H
  C38      1.0000 0.14280  0.76690  0.61940  Biso   1.000  C
  H28      1.0000 0.16550  0.78480  0.58900  Biso   1.000  H
  C39      1.0000 0.06980  0.73870  0.61240  Biso   1.000  C
  C40      1.0000 0.03440  0.71210  0.65900  Biso   1.000  C
  C41      1.0000 0.95680  0.68230  0.65670  Biso   1.000  C
  H29      1.0000 0.92760  0.67950  0.62290  Biso   1.000  H
  C42      1.0000 0.92330  0.65760  0.70250  Biso   1.000  C
  H30      1.0000 0.87380  0.63680  0.69880  Biso   1.000  H
  C43      1.0000 0.96220  0.66320  0.75410  Biso   1.000  C
  H31      1.0000 0.93730  0.64830  0.78520  Biso   1.000  H
  C44      1.0000 0.03670  0.69050  0.75920  Biso   1.000  C
  H32      1.0000 0.06270  0.69370  0.79400  Biso   1.000  H
  C45      1.0000 0.07720  0.71510  0.71160  Biso   1.000  C
  C46      1.0000 0.03190  0.73590  0.55580  Biso   1.000  C
  C47      1.0000 0.82010  0.40840  0.12070  Biso   1.000  C
  C48      1.0000 0.89140  0.45240  0.11850  Biso   1.000  C
  C49      1.0000 0.91350  0.47450  0.06970  Biso   1.000  C
  H33      1.0000 0.88860  0.46080  0.03700  Biso   1.000  H
  C50      1.0000 0.97280  0.51720  0.06770  Biso   1.000  C
  H34      1.0000 0.98490  0.53290  0.03350  Biso   1.000  H
  C51      1.0000 0.01460  0.53760  0.11430  Biso   1.000  C
  C52      1.0000 0.99460  0.51540  0.16630  Biso   1.000  C
  C53      1.0000 0.03590  0.53320  0.21710  Biso   1.000  C
  H35      1.0000 0.07650  0.56160  0.21590  Biso   1.000  H
  C54      1.0000 0.01750  0.50990  0.26720  Biso   1.000  C
  H36      1.0000 0.04720  0.52080  0.29920  Biso   1.000  H
  C55      1.0000 0.95000  0.46740  0.26980  Biso   1.000  C
  H37      1.0000 0.93540  0.45210  0.30370  Biso   1.000  H
  C56      1.0000 0.90900  0.45050  0.22230  Biso   1.000  C
  H38      1.0000 0.86690  0.42320  0.22420  Biso   1.000  H
  C57      1.0000 0.92950  0.47390  0.16930  Biso   1.000  C
  C58      1.0000 0.07520  0.58610  0.10620  Biso   1.000  C
  C59      1.0000 0.48710  0.11190  0.09850  Biso   1.000  C
  C60      1.0000 0.43260  0.05860  0.09160  Biso   1.000  C
  C61      1.0000 0.47290  0.00820  0.07760  Biso   1.000  C
  H39      1.0000 0.53030  0.00820  0.07220  Biso   1.000  H
  C62      1.0000 0.42730  0.95790  0.07170  Biso   1.000  C
  H40      1.0000 0.45430  0.92420  0.06230  Biso   1.000  H
  C63      1.0000 0.34150  0.95790  0.07980  Biso   1.000  C
  C64      1.0000 0.30120  0.00820  0.09380  Biso   1.000  C
  C65      1.0000 0.34680  0.05860  0.09980  Biso   1.000  C
  C66      1.0000 0.30650  0.10890  0.11380  Biso   1.000  C
  H41      1.0000 0.33700  0.14260  0.11780  Biso   1.000  H
  C67      1.0000 0.22070  0.10890  0.12190  Biso   1.000  C
  H42      1.0000 0.19380  0.14260  0.13130  Biso   1.000  H
  C68      1.0000 0.17520  0.05860  0.11600  Biso   1.000  C
  H43      1.0000 0.11770  0.05860  0.12140  Biso   1.000  H
  C69      1.0000 0.21540  0.00820  0.10190  Biso   1.000  C
  H44      1.0000 0.18490  0.97460  0.09800  Biso   1.000  H
  C70      1.0000 0.43160  0.06050  0.08770  Biso   1.000  C
  C71      1.0000 0.47470  0.00900  0.08990  Biso   1.000  C
  H45      1.0000 0.53260  0.00870  0.09560  Biso   1.000  H
  C72      1.0000 0.43130  0.95780  0.08350  Biso   1.000  C
  H46      1.0000 0.46020  0.92330  0.08500  Biso   1.000  H
  C73      1.0000 0.34480  0.95820  0.07490  Biso   1.000  C
  C74      1.0000 0.30170  0.00980  0.07280  Biso   1.000  C
  C75      1.0000 0.34510  0.06090  0.07910  Biso   1.000  C
  C76      1.0000 0.30190  0.11250  0.07700  Biso   1.000  C
  H47      1.0000 0.33100  0.14670  0.08120  Biso   1.000  H
  C77      1.0000 0.21540  0.11290  0.06840  Biso   1.000  C
  H48      1.0000 0.18660  0.14740  0.06690  Biso   1.000  H
  C78      1.0000 0.17200  0.06170  0.06200  Biso   1.000  C
  H49      1.0000 0.11410  0.06200  0.05630  Biso   1.000  H
  C79      1.0000 0.21510  0.01020  0.06420  Biso   1.000  C
  H50      1.0000 0.18610  0.97590  0.05990  Biso   1.000  H
  C80      1.0000 0.29840  0.90040  0.07400  Biso   1.000  C
  C81      1.0000 0.52930  0.38240  0.06800  Biso   1.000  C
  C82      1.0000 0.47770  0.43610  0.06020  Biso   1.000  C
  C83      1.0000 0.48380  0.47560  0.10110  Biso   1.000  C
  H51      1.0000 0.52410  0.47060  0.12940  Biso   1.000  H
  C84      1.0000 0.43200  0.52350  0.10240  Biso   1.000  C
  H52      1.0000 0.43570  0.54890  0.13200  Biso   1.000  H
  C85      1.0000 0.37500  0.53250  0.05900  Biso   1.000  C
  C86      1.0000 0.36860  0.49510  0.01480  Biso   1.000  C
  C87      1.0000 0.31070  0.50500  0.97100  Biso   1.000  C
  H53      1.0000 0.27500  0.53640  0.97190  Biso   1.000  H
  C88      1.0000 0.30690  0.46920  0.92820  Biso   1.000  C
  H54      1.0000 0.26930  0.47670  0.89900  Biso   1.000  H
  C89      1.0000 0.35740  0.42100  0.92580  Biso   1.000  C
  H55      1.0000 0.35370  0.39710  0.89510  Biso   1.000  H
  C90      1.0000 0.41250  0.40850  0.96880  Biso   1.000  C
  H56      1.0000 0.44470  0.37540  0.96760  Biso   1.000  H
  C91      1.0000 0.42080  0.44510  0.01440  Biso   1.000  C
  C92      1.0000 0.31850  0.58140  0.06620  Biso   1.000  C
  Ho8      1.0000 0.25226  0.28831  0.51241  Biso   1.000  Ho
  Ho9      1.0000 0.33886  0.31545  0.36807  Biso   1.000  Ho
  Ho10     1.0000 0.47512  0.25005  0.47913  Biso   1.000  Ho
  Ho11     1.0000 0.29906  0.16642  0.41187  Biso   1.000  Ho
  Ho12     1.0000 0.16884  0.33371  0.65324  Biso   1.000  Ho
  Ho13     1.0000 0.20074  0.17770  0.62557  Biso   1.000  Ho
  Ho14     1.0000 0.02977  0.25757  0.55210  Biso   1.000  Ho
  O33      1.0000 0.36900  0.31740  0.46360  Biso   1.000  O
  H57      1.0000 0.38760  0.35550  0.47550  Biso   1.000  H
  O34      1.0000 0.34400  0.20730  0.49710  Biso   1.000  O
  H58      1.0000 0.34640  0.18010  0.52790  Biso   1.000  H
  O35      1.0000 0.23690  0.25670  0.42030  Biso   1.000  O
  H59      1.0000 0.17920  0.25870  0.40520  Biso   1.000  H
  O36      1.0000 0.40470  0.23110  0.39340  Biso   1.000  O
  H60      1.0000 0.44250  0.21720  0.36520  Biso   1.000  H
  O37      1.0000 0.26570  0.26690  0.60630  Biso   1.000  O
  H61      1.0000 0.32370  0.26930  0.62080  Biso   1.000  H
  O38      1.0000 0.13880  0.32360  0.55920  Biso   1.000  O
  H62      1.0000 0.12080  0.36020  0.54320  Biso   1.000  H
  O39      1.0000 0.16090  0.21290  0.53640  Biso   1.000  O
  H63      1.0000 0.15710  0.18280  0.50820  Biso   1.000  H
  O40      1.0000 0.09740  0.24750  0.63780  Biso   1.000  O
  H64      1.0000 0.05920  0.23800  0.66740  Biso   1.000  H
  O41      1.0000 0.54480  0.62880  0.62060  Biso   1.000  O
  O42      1.0000 0.46330  0.66900  0.55630  Biso   1.000  O
  O43      1.0000 0.31870  0.37480  0.54830  Biso   1.000  O
  O44      1.0000 0.25800  0.40330  0.62550  Biso   1.000  O
  O45      1.0000 0.96310  0.22180  0.07510  Biso   1.000  O
  O46      1.0000 0.08990  0.23400  0.04350  Biso   1.000  O
  O47      1.0000 0.22920  0.17810  0.32540  Biso   1.000  O
  O48      1.0000 0.26240  0.26750  0.30350  Biso   1.000  O
  O49      1.0000 0.24880  0.29180  0.72140  Biso   1.000  O
  O50      1.0000 0.28110  0.20150  0.70400  Biso   1.000  O
  O51      1.0000 0.41840  0.24210  0.98420  Biso   1.000  O
  O52      1.0000 0.54340  0.23280  0.95370  Biso   1.000  O
  O53      1.0000 0.67730  0.86670  0.41360  Biso   1.000  O
  O54      1.0000 0.73650  0.91280  0.34680  Biso   1.000  O
  O55      1.0000 0.40760  0.10000  0.44240  Biso   1.000  O
  O56      1.0000 0.39170  0.11210  0.35410  Biso   1.000  O
  O57      1.0000 0.95010  0.60840  0.36750  Biso   1.000  O
  O58      1.0000 0.03080  0.65600  0.42740  Biso   1.000  O
  O59      1.0000 0.18230  0.36730  0.46530  Biso   1.000  O
  O60      1.0000 0.25130  0.38830  0.38950  Biso   1.000  O
  O61      1.0000 0.90310  0.88450  0.40540  Biso   1.000  O
  O62      1.0000 0.00170  0.83730  0.45190  Biso   1.000  O
  O63      1.0000 0.18420  0.12400  0.45710  Biso   1.000  O
  O64      1.0000 0.23180  0.07690  0.39260  Biso   1.000  O
  C93      1.0000 0.48260  0.62890  0.58610  Biso   1.000  C
  C94      1.0000 0.42610  0.57380  0.58510  Biso   1.000  C
  C95      1.0000 0.47050  0.52440  0.59840  Biso   1.000  C
  H65      1.0000 0.52730  0.52640  0.60790  Biso   1.000  H
  C96      1.0000 0.43000  0.47180  0.59740  Biso   1.000  C
  H66      1.0000 0.45970  0.43870  0.60630  Biso   1.000  H
  C97      1.0000 0.34500  0.46870  0.58320  Biso   1.000  C
  C98      1.0000 0.30060  0.51820  0.56990  Biso   1.000  C
  C99      1.0000 0.34120  0.57080  0.57090  Biso   1.000  C
  C100     1.0000 0.29680  0.62020  0.55760  Biso   1.000  C
  H67      1.0000 0.32390  0.65540  0.55820  Biso   1.000  H
  C101     1.0000 0.21180  0.61710  0.54330  Biso   1.000  C
  H68      1.0000 0.18210  0.65020  0.53450  Biso   1.000  H
  C102     1.0000 0.17130  0.56460  0.54240  Biso   1.000  C
  H69      1.0000 0.11440  0.56260  0.53290  Biso   1.000  H
  C103     1.0000 0.21570  0.51510  0.55570  Biso   1.000  C
  H70      1.0000 0.18850  0.48000  0.55500  Biso   1.000  H
  C104     1.0000 0.43170  0.57310  0.57950  Biso   1.000  C
  C105     1.0000 0.47470  0.52170  0.57570  Biso   1.000  C
  H71      1.0000 0.53270  0.52160  0.57320  Biso   1.000  H
  C106     1.0000 0.43100  0.47030  0.57540  Biso   1.000  C
  H72      1.0000 0.45970  0.43590  0.57290  Biso   1.000  H
  C107     1.0000 0.34420  0.47040  0.57910  Biso   1.000  C
  C108     1.0000 0.30120  0.52180  0.58290  Biso   1.000  C
  C109     1.0000 0.34500  0.57310  0.58320  Biso   1.000  C
  C110     1.0000 0.30200  0.62450  0.58700  Biso   1.000  C
  H73      1.0000 0.33130  0.65890  0.58720  Biso   1.000  H
  C111     1.0000 0.21530  0.62460  0.59070  Biso   1.000  C
  H74      1.0000 0.18650  0.65900  0.59330  Biso   1.000  H
  C112     1.0000 0.17150  0.57330  0.59050  Biso   1.000  C
  H75      1.0000 0.11350  0.57330  0.59290  Biso   1.000  H
  C113     1.0000 0.21450  0.52190  0.58660  Biso   1.000  C
  H76      1.0000 0.18520  0.48760  0.58640  Biso   1.000  H
  C114     1.0000 0.30440  0.41110  0.58570  Biso   1.000  C
  C115     1.0000 0.04080  0.22600  0.08360  Biso   1.000  C
  C116     1.0000 0.08120  0.22170  0.14070  Biso   1.000  C
  C117     1.0000 0.15380  0.25210  0.14980  Biso   1.000  C
  H77      1.0000 0.17580  0.27290  0.12090  Biso   1.000  H
  C118     1.0000 0.19460  0.25230  0.20050  Biso   1.000  C
  H78      1.0000 0.24220  0.27490  0.20520  Biso   1.000  H
  C119     1.0000 0.16880  0.22090  0.24460  Biso   1.000  C
  C120     1.0000 0.09330  0.18860  0.23700  Biso   1.000  C
  C121     1.0000 0.05850  0.15880  0.28180  Biso   1.000  C
  H79      1.0000 0.08560  0.15980  0.31640  Biso   1.000  H
  C122     1.0000 0.98650  0.12890  0.27500  Biso   1.000  C
  H80      1.0000 0.96670  0.10790  0.30450  Biso   1.000  H
  C123     1.0000 0.94080  0.12880  0.22400  Biso   1.000  C
  H81      1.0000 0.89060  0.10890  0.22010  Biso   1.000  H
  C124     1.0000 0.97170  0.15870  0.18020  Biso   1.000  C
  H82      1.0000 0.94230  0.15890  0.14630  Biso   1.000  H
  C125     1.0000 0.04860  0.18970  0.18620  Biso   1.000  C
  C126     1.0000 0.22450  0.22330  0.29540  Biso   1.000  C
  C127     1.0000 0.28880  0.24490  0.73150  Biso   1.000  C
  C128     1.0000 0.34420  0.24490  0.78340  Biso   1.000  C
  C129     1.0000 0.31310  0.27050  0.82840  Biso   1.000  C
  H83      1.0000 0.26280  0.29050  0.82540  Biso   1.000  H
  C130     1.0000 0.35720  0.26690  0.88060  Biso   1.000  C
  H84      1.0000 0.33450  0.28480  0.91100  Biso   1.000  H
  C131     1.0000 0.43020  0.23870  0.88760  Biso   1.000  C
  C132     1.0000 0.46560  0.21210  0.84100  Biso   1.000  C
  C133     1.0000 0.54320  0.18230  0.84330  Biso   1.000  C
  H85      1.0000 0.57240  0.17950  0.87710  Biso   1.000  H
  C134     1.0000 0.57670  0.15760  0.79750  Biso   1.000  C
  H86      1.0000 0.62620  0.13680  0.80120  Biso   1.000  H
  C135     1.0000 0.53780  0.16320  0.74590  Biso   1.000  C
  H87      1.0000 0.56270  0.14830  0.71480  Biso   1.000  H
  C136     1.0000 0.46330  0.19050  0.74080  Biso   1.000  C
  H88      1.0000 0.43730  0.19370  0.70600  Biso   1.000  H
  C137     1.0000 0.42280  0.21510  0.78840  Biso   1.000  C
  C138     1.0000 0.46810  0.23590  0.94420  Biso   1.000  C
  C139     1.0000 0.67990  0.90840  0.37930  Biso   1.000  C
  C140     1.0000 0.60860  0.95240  0.38150  Biso   1.000  C
  C141     1.0000 0.58650  0.97450  0.43030  Biso   1.000  C
  H89      1.0000 0.61140  0.96080  0.46300  Biso   1.000  H
  C142     1.0000 0.52720  0.01720  0.43230  Biso   1.000  C
  H90      1.0000 0.51510  0.03290  0.46650  Biso   1.000  H
  C143     1.0000 0.48540  0.03760  0.38570  Biso   1.000  C
  C144     1.0000 0.50540  0.01540  0.33370  Biso   1.000  C
  C145     1.0000 0.46410  0.03320  0.28290  Biso   1.000  C
  H91      1.0000 0.42350  0.06160  0.28410  Biso   1.000  H
  C146     1.0000 0.48250  0.00990  0.23280  Biso   1.000  C
  H92      1.0000 0.45280  0.02080  0.20080  Biso   1.000  H
  C147     1.0000 0.55000  0.96740  0.23020  Biso   1.000  C
  H93      1.0000 0.56460  0.95210  0.19630  Biso   1.000  H
  C148     1.0000 0.59100  0.95050  0.27770  Biso   1.000  C
  H94      1.0000 0.63310  0.92320  0.27580  Biso   1.000  H
  C149     1.0000 0.57050  0.97390  0.33070  Biso   1.000  C
  C150     1.0000 0.42480  0.08610  0.39380  Biso   1.000  C
  C151     1.0000 0.01290  0.61190  0.40150  Biso   1.000  C
  C152     1.0000 0.06740  0.55860  0.40840  Biso   1.000  C
  C153     1.0000 0.02710  0.50820  0.42240  Biso   1.000  C
  H95      1.0000 0.96970  0.50820  0.42780  Biso   1.000  H
  C154     1.0000 0.07270  0.45790  0.42830  Biso   1.000  C
  H96      1.0000 0.04570  0.42420  0.43770  Biso   1.000  H
  C155     1.0000 0.15850  0.45790  0.42020  Biso   1.000  C
  C156     1.0000 0.19880  0.50820  0.40620  Biso   1.000  C
  C157     1.0000 0.15320  0.55860  0.40020  Biso   1.000  C
  C158     1.0000 0.19350  0.60890  0.38620  Biso   1.000  C
  H97      1.0000 0.16300  0.64260  0.38220  Biso   1.000  H
  C159     1.0000 0.27930  0.60890  0.37810  Biso   1.000  C
  H98      1.0000 0.30620  0.64260  0.36870  Biso   1.000  H
  C160     1.0000 0.32480  0.55860  0.38400  Biso   1.000  C
  H99      1.0000 0.38230  0.55860  0.37860  Biso   1.000  H
  C161     1.0000 0.28460  0.50820  0.39810  Biso   1.000  C
  H100     1.0000 0.31510  0.47460  0.40200  Biso   1.000  H
  C162     1.0000 0.06840  0.56050  0.41230  Biso   1.000  C
  C163     1.0000 0.02530  0.50900  0.41010  Biso   1.000  C
  H101     1.0000 0.96740  0.50870  0.40440  Biso   1.000  H
  C164     1.0000 0.06870  0.45780  0.41650  Biso   1.000  C
  H102     1.0000 0.03980  0.42330  0.41500  Biso   1.000  H
  C165     1.0000 0.15520  0.45820  0.42510  Biso   1.000  C
  C166     1.0000 0.19830  0.50980  0.42720  Biso   1.000  C
  C167     1.0000 0.15490  0.56090  0.42090  Biso   1.000  C
  C168     1.0000 0.19810  0.61250  0.42300  Biso   1.000  C
  H103     1.0000 0.16900  0.64670  0.41880  Biso   1.000  H
  C169     1.0000 0.28460  0.61290  0.43160  Biso   1.000  C
  H104     1.0000 0.31340  0.64740  0.43310  Biso   1.000  H
  C170     1.0000 0.32800  0.56170  0.43800  Biso   1.000  C
  H105     1.0000 0.38590  0.56200  0.44370  Biso   1.000  H
  C171     1.0000 0.28490  0.51020  0.43580  Biso   1.000  C
  H106     1.0000 0.31390  0.47590  0.44010  Biso   1.000  H
  C172     1.0000 0.20160  0.40040  0.42600  Biso   1.000  C
  C173     1.0000 0.97070  0.88240  0.43200  Biso   1.000  C
  C174     1.0000 0.02230  0.93610  0.43980  Biso   1.000  C
  C175     1.0000 0.01620  0.97560  0.39890  Biso   1.000  C
  H107     1.0000 0.97590  0.97060  0.37060  Biso   1.000  H
  C176     1.0000 0.06800  0.02350  0.39760  Biso   1.000  C
  H108     1.0000 0.06430  0.04890  0.36800  Biso   1.000  H
  C177     1.0000 0.12500  0.03250  0.44100  Biso   1.000  C
  C178     1.0000 0.13140  0.99510  0.48520  Biso   1.000  C
  C179     1.0000 0.18930  0.00500  0.52900  Biso   1.000  C
  H109     1.0000 0.22500  0.03640  0.52810  Biso   1.000  H
  C180     1.0000 0.19310  0.96920  0.57180  Biso   1.000  C
  H110     1.0000 0.23070  0.97670  0.60100  Biso   1.000  H
  C181     1.0000 0.14260  0.92100  0.57420  Biso   1.000  C
  H111     1.0000 0.14630  0.89710  0.60490  Biso   1.000  H
  C182     1.0000 0.08750  0.90850  0.53120  Biso   1.000  C
  H112     1.0000 0.05530  0.87540  0.53240  Biso   1.000  H
  C183     1.0000 0.07920  0.94510  0.48560  Biso   1.000  C
  C184     1.0000 0.18150  0.08140  0.43380  Biso   1.000  C
  Ho15     1.0000 0.75226  0.21169  0.01241  Biso   1.000  Ho
  Ho16     1.0000 0.83886  0.18455  0.86807  Biso   1.000  Ho
  Ho17     1.0000 0.97512  0.24995  0.97913  Biso   1.000  Ho
  Ho18     1.0000 0.79906  0.33358  0.91187  Biso   1.000  Ho
  Ho19     1.0000 0.66884  0.16629  0.15324  Biso   1.000  Ho
  Ho20     1.0000 0.70074  0.32230  0.12557  Biso   1.000  Ho
  Ho21     1.0000 0.52977  0.24243  0.05210  Biso   1.000  Ho
  O65      1.0000 0.86900  0.18260  0.96360  Biso   1.000  O
  H113     1.0000 0.88760  0.14450  0.97550  Biso   1.000  H
  O66      1.0000 0.84400  0.29270  0.99710  Biso   1.000  O
  H114     1.0000 0.84640  0.31990  0.02790  Biso   1.000  H
  O67      1.0000 0.73690  0.24330  0.92030  Biso   1.000  O
  H115     1.0000 0.67920  0.24130  0.90520  Biso   1.000  H
  O68      1.0000 0.90470  0.26890  0.89340  Biso   1.000  O
  H116     1.0000 0.94250  0.28280  0.86520  Biso   1.000  H
  O69      1.0000 0.76570  0.23310  0.10630  Biso   1.000  O
  H117     1.0000 0.82370  0.23070  0.12080  Biso   1.000  H
  O70      1.0000 0.63880  0.17640  0.05920  Biso   1.000  O
  H118     1.0000 0.62080  0.13980  0.04320  Biso   1.000  H
  O71      1.0000 0.66090  0.28710  0.03640  Biso   1.000  O
  H119     1.0000 0.65710  0.31720  0.00820  Biso   1.000  H
  O72      1.0000 0.59740  0.25250  0.13780  Biso   1.000  O
  H120     1.0000 0.55920  0.26200  0.16740  Biso   1.000  H
  O73      1.0000 0.04480  0.87120  0.12060  Biso   1.000  O
  O74      1.0000 0.96330  0.83100  0.05630  Biso   1.000  O
  O75      1.0000 0.81870  0.12520  0.04830  Biso   1.000  O
  O76      1.0000 0.75800  0.09670  0.12550  Biso   1.000  O
  O77      1.0000 0.46310  0.27820  0.57510  Biso   1.000  O
  O78      1.0000 0.58990  0.26600  0.54350  Biso   1.000  O
  O79      1.0000 0.72920  0.32190  0.82540  Biso   1.000  O
  O80      1.0000 0.76240  0.23250  0.80350  Biso   1.000  O
  O81      1.0000 0.74880  0.20820  0.22140  Biso   1.000  O
  O82      1.0000 0.78110  0.29850  0.20400  Biso   1.000  O
  O83      1.0000 0.91840  0.25790  0.48420  Biso   1.000  O
  O84      1.0000 0.04340  0.26720  0.45370  Biso   1.000  O
  O85      1.0000 0.17730  0.63330  0.91360  Biso   1.000  O
  O86      1.0000 0.23650  0.58720  0.84680  Biso   1.000  O
  O87      1.0000 0.90760  0.40000  0.94240  Biso   1.000  O
  O88      1.0000 0.89170  0.38790  0.85410  Biso   1.000  O
  O89      1.0000 0.45010  0.89160  0.86750  Biso   1.000  O
  O90      1.0000 0.53080  0.84400  0.92740  Biso   1.000  O
  O91      1.0000 0.68230  0.13270  0.96530  Biso   1.000  O
  O92      1.0000 0.75130  0.11170  0.88950  Biso   1.000  O
  O93      1.0000 0.40310  0.61550  0.90540  Biso   1.000  O
  O94      1.0000 0.50170  0.66270  0.95190  Biso   1.000  O
  O95      1.0000 0.68420  0.37600  0.95710  Biso   1.000  O
  O96      1.0000 0.73180  0.42310  0.89260  Biso   1.000  O
  C185     1.0000 0.98260  0.87110  0.08610  Biso   1.000  C
  C186     1.0000 0.92610  0.92620  0.08510  Biso   1.000  C
  C187     1.0000 0.97050  0.97560  0.09840  Biso   1.000  C
  H121     1.0000 0.02730  0.97360  0.10790  Biso   1.000  H
  C188     1.0000 0.93000  0.02820  0.09740  Biso   1.000  C
  H122     1.0000 0.95970  0.06130  0.10630  Biso   1.000  H
  C189     1.0000 0.84500  0.03130  0.08320  Biso   1.000  C
  C190     1.0000 0.80060  0.98180  0.06990  Biso   1.000  C
  C191     1.0000 0.84120  0.92920  0.07090  Biso   1.000  C
  C192     1.0000 0.79680  0.87980  0.05760  Biso   1.000  C
  H123     1.0000 0.82390  0.84460  0.05820  Biso   1.000  H
  C193     1.0000 0.71180  0.88290  0.04330  Biso   1.000  C
  H124     1.0000 0.68210  0.84980  0.03450  Biso   1.000  H
  C194     1.0000 0.67130  0.93540  0.04240  Biso   1.000  C
  H125     1.0000 0.61440  0.93740  0.03290  Biso   1.000  H
  C195     1.0000 0.71570  0.98490  0.05570  Biso   1.000  C
  H126     1.0000 0.68850  0.02000  0.05500  Biso   1.000  H
  C196     1.0000 0.93170  0.92690  0.07950  Biso   1.000  C
  C197     1.0000 0.97470  0.97830  0.07570  Biso   1.000  C
  H127     1.0000 0.03270  0.97840  0.07320  Biso   1.000  H
  C198     1.0000 0.93100  0.02970  0.07540  Biso   1.000  C
  H128     1.0000 0.95970  0.06410  0.07290  Biso   1.000  H
  C199     1.0000 0.84420  0.02960  0.07910  Biso   1.000  C
  C200     1.0000 0.80120  0.97820  0.08290  Biso   1.000  C
  C201     1.0000 0.84500  0.92690  0.08320  Biso   1.000  C
  C202     1.0000 0.80200  0.87550  0.08700  Biso   1.000  C
  H129     1.0000 0.83130  0.84110  0.08720  Biso   1.000  H
  C203     1.0000 0.71530  0.87540  0.09070  Biso   1.000  C
  H130     1.0000 0.68650  0.84100  0.09330  Biso   1.000  H
  C204     1.0000 0.67150  0.92670  0.09050  Biso   1.000  C
  H131     1.0000 0.61350  0.92670  0.09290  Biso   1.000  H
  C205     1.0000 0.71450  0.97810  0.08660  Biso   1.000  C
  H132     1.0000 0.68520  0.01240  0.08640  Biso   1.000  H
  C206     1.0000 0.80440  0.08890  0.08570  Biso   1.000  C
  C207     1.0000 0.54080  0.27400  0.58360  Biso   1.000  C
  C208     1.0000 0.58120  0.27830  0.64070  Biso   1.000  C
  C209     1.0000 0.65380  0.24790  0.64980  Biso   1.000  C
  H133     1.0000 0.67580  0.22710  0.62090  Biso   1.000  H
  C210     1.0000 0.69460  0.24770  0.70050  Biso   1.000  C
  H134     1.0000 0.74220  0.22510  0.70520  Biso   1.000  H
  C211     1.0000 0.66880  0.27910  0.74460  Biso   1.000  C
  C212     1.0000 0.59330  0.31140  0.73700  Biso   1.000  C
  C213     1.0000 0.55850  0.34120  0.78180  Biso   1.000  C
  H135     1.0000 0.58560  0.34020  0.81640  Biso   1.000  H
  C214     1.0000 0.48650  0.37110  0.77500  Biso   1.000  C
  H136     1.0000 0.46670  0.39210  0.80450  Biso   1.000  H
  C215     1.0000 0.44080  0.37120  0.72400  Biso   1.000  C
  H137     1.0000 0.39060  0.39110  0.72010  Biso   1.000  H
  C216     1.0000 0.47170  0.34130  0.68020  Biso   1.000  C
  H138     1.0000 0.44230  0.34110  0.64630  Biso   1.000  H
  C217     1.0000 0.54860  0.31030  0.68620  Biso   1.000  C
  C218     1.0000 0.72450  0.27670  0.79540  Biso   1.000  C
  C219     1.0000 0.78880  0.25510  0.23150  Biso   1.000  C
  C220     1.0000 0.84420  0.25510  0.28340  Biso   1.000  C
  C221     1.0000 0.81310  0.22950  0.32840  Biso   1.000  C
  H139     1.0000 0.76280  0.20950  0.32540  Biso   1.000  H
  C222     1.0000 0.85720  0.23310  0.38060  Biso   1.000  C
  H140     1.0000 0.83450  0.21520  0.41100  Biso   1.000  H
  C223     1.0000 0.93020  0.26130  0.38760  Biso   1.000  C
  C224     1.0000 0.96560  0.28790  0.34100  Biso   1.000  C
  C225     1.0000 0.04320  0.31770  0.34330  Biso   1.000  C
  H141     1.0000 0.07240  0.32050  0.37710  Biso   1.000  H
  C226     1.0000 0.07670  0.34240  0.29750  Biso   1.000  C
  H142     1.0000 0.12620  0.36320  0.30120  Biso   1.000  H
  C227     1.0000 0.03780  0.33680  0.24590  Biso   1.000  C
  H143     1.0000 0.06270  0.35170  0.21480  Biso   1.000  H
  C228     1.0000 0.96330  0.30950  0.24080  Biso   1.000  C
  H144     1.0000 0.93730  0.30630  0.20600  Biso   1.000  H
  C229     1.0000 0.92280  0.28490  0.28840  Biso   1.000  C
  C230     1.0000 0.96810  0.26410  0.44420  Biso   1.000  C
  C231     1.0000 0.17990  0.59160  0.87930  Biso   1.000  C
  C232     1.0000 0.10860  0.54760  0.88150  Biso   1.000  C
  C233     1.0000 0.08650  0.52550  0.93030  Biso   1.000  C
  H145     1.0000 0.11140  0.53920  0.96300  Biso   1.000  H
  C234     1.0000 0.02720  0.48280  0.93230  Biso   1.000  C
  H146     1.0000 0.01510  0.46710  0.96650  Biso   1.000  H
  C235     1.0000 0.98540  0.46240  0.88570  Biso   1.000  C
  C236     1.0000 0.00540  0.48460  0.83370  Biso   1.000  C
  C237     1.0000 0.96410  0.46680  0.78290  Biso   1.000  C
  H147     1.0000 0.92350  0.43840  0.78410  Biso   1.000  H
  C238     1.0000 0.98250  0.49010  0.73280  Biso   1.000  C
  H148     1.0000 0.95280  0.47920  0.70080  Biso   1.000  H
  C239     1.0000 0.05000  0.53260  0.73020  Biso   1.000  C
  H149     1.0000 0.06460  0.54790  0.69630  Biso   1.000  H
  C240     1.0000 0.09100  0.54950  0.77770  Biso   1.000  C
  H150     1.0000 0.13310  0.57680  0.77580  Biso   1.000  H
  C241     1.0000 0.07050  0.52610  0.83070  Biso   1.000  C
  C242     1.0000 0.92480  0.41390  0.89380  Biso   1.000  C
  C243     1.0000 0.51290  0.88810  0.90150  Biso   1.000  C
  C244     1.0000 0.56740  0.94140  0.90840  Biso   1.000  C
  C245     1.0000 0.52710  0.99180  0.92240  Biso   1.000  C
  H151     1.0000 0.46970  0.99180  0.92780  Biso   1.000  H
  C246     1.0000 0.57270  0.04210  0.92830  Biso   1.000  C
  H152     1.0000 0.54570  0.07580  0.93770  Biso   1.000  H
  C247     1.0000 0.65850  0.04210  0.92020  Biso   1.000  C
  C248     1.0000 0.69880  0.99180  0.90620  Biso   1.000  C
  C249     1.0000 0.65320  0.94140  0.90020  Biso   1.000  C
  C250     1.0000 0.69350  0.89110  0.88620  Biso   1.000  C
  H153     1.0000 0.66300  0.85740  0.88220  Biso   1.000  H
  C251     1.0000 0.77930  0.89110  0.87810  Biso   1.000  C
  H154     1.0000 0.80620  0.85740  0.86870  Biso   1.000  H
  C252     1.0000 0.82480  0.94140  0.88400  Biso   1.000  C
  H155     1.0000 0.88230  0.94140  0.87860  Biso   1.000  H
  C253     1.0000 0.78460  0.99180  0.89810  Biso   1.000  C
  H156     1.0000 0.81510  0.02540  0.90200  Biso   1.000  H
  C254     1.0000 0.56840  0.93950  0.91230  Biso   1.000  C
  C255     1.0000 0.52530  0.99100  0.91010  Biso   1.000  C
  H157     1.0000 0.46740  0.99130  0.90440  Biso   1.000  H
  C256     1.0000 0.56870  0.04220  0.91650  Biso   1.000  C
  H158     1.0000 0.53980  0.07670  0.91500  Biso   1.000  H
  C257     1.0000 0.65520  0.04180  0.92510  Biso   1.000  C
  C258     1.0000 0.69830  0.99020  0.92720  Biso   1.000  C
  C259     1.0000 0.65490  0.93910  0.92090  Biso   1.000  C
  C260     1.0000 0.69810  0.88750  0.92300  Biso   1.000  C
  H159     1.0000 0.66900  0.85330  0.91880  Biso   1.000  H
  C261     1.0000 0.78460  0.88710  0.93160  Biso   1.000  C
  H160     1.0000 0.81340  0.85260  0.93310  Biso   1.000  H
  C262     1.0000 0.82800  0.93830  0.93800  Biso   1.000  C
  H161     1.0000 0.88590  0.93800  0.94370  Biso   1.000  H
  C263     1.0000 0.78490  0.98980  0.93580  Biso   1.000  C
  H162     1.0000 0.81390  0.02410  0.94010  Biso   1.000  H
  C264     1.0000 0.70160  0.09960  0.92600  Biso   1.000  C
  C265     1.0000 0.47070  0.61760  0.93200  Biso   1.000  C
  C266     1.0000 0.52230  0.56390  0.93980  Biso   1.000  C
  C267     1.0000 0.51620  0.52440  0.89890  Biso   1.000  C
  H163     1.0000 0.47590  0.52940  0.87060  Biso   1.000  H
  C268     1.0000 0.56800  0.47650  0.89760  Biso   1.000  C
  H164     1.0000 0.56430  0.45110  0.86800  Biso   1.000  H
  C269     1.0000 0.62500  0.46750  0.94100  Biso   1.000  C
  C270     1.0000 0.63140  0.50490  0.98520  Biso   1.000  C
  C271     1.0000 0.68930  0.49500  0.02900  Biso   1.000  C
  H165     1.0000 0.72500  0.46360  0.02810  Biso   1.000  H
  C272     1.0000 0.69310  0.53080  0.07180  Biso   1.000  C
  H166     1.0000 0.73070  0.52330  0.10100  Biso   1.000  H
  C273     1.0000 0.64260  0.57900  0.07420  Biso   1.000  C
  H167     1.0000 0.64630  0.60290  0.10490  Biso   1.000  H
  C274     1.0000 0.58750  0.59150  0.03120  Biso   1.000  C
  H168     1.0000 0.55530  0.62460  0.03240  Biso   1.000  H
  C275     1.0000 0.57920  0.55490  0.98560  Biso   1.000  C
  C276     1.0000 0.68150  0.41860  0.93380  Biso   1.000  C
  Ho22     1.0000 0.74774  0.71169  0.48759  Biso   1.000  Ho
  Ho23     1.0000 0.66114  0.68455  0.63193  Biso   1.000  Ho
  Ho24     1.0000 0.52488  0.74995  0.52087  Biso   1.000  Ho
  Ho25     1.0000 0.70094  0.83358  0.58813  Biso   1.000  Ho
  Ho26     1.0000 0.83116  0.66629  0.34676  Biso   1.000  Ho
  Ho27     1.0000 0.79926  0.82230  0.37443  Biso   1.000  Ho
  Ho28     1.0000 0.97023  0.74243  0.44790  Biso   1.000  Ho
  O97      1.0000 0.63100  0.68260  0.53640  Biso   1.000  O
  H169     1.0000 0.61240  0.64450  0.52450  Biso   1.000  H
  O98      1.0000 0.65600  0.79270  0.50290  Biso   1.000  O
  H170     1.0000 0.65360  0.81990  0.47210  Biso   1.000  H
  O99      1.0000 0.76310  0.74330  0.57970  Biso   1.000  O
  H171     1.0000 0.82080  0.74130  0.59480  Biso   1.000  H
  O100     1.0000 0.59530  0.76890  0.60660  Biso   1.000  O
  H172     1.0000 0.55750  0.78280  0.63480  Biso   1.000  H
  O101     1.0000 0.73430  0.73310  0.39370  Biso   1.000  O
  H173     1.0000 0.67630  0.73070  0.37920  Biso   1.000  H
  O102     1.0000 0.86120  0.67640  0.44080  Biso   1.000  O
  H174     1.0000 0.87920  0.63980  0.45680  Biso   1.000  H
  O103     1.0000 0.83910  0.78710  0.46360  Biso   1.000  O
  H175     1.0000 0.84290  0.81720  0.49180  Biso   1.000  H
  O104     1.0000 0.90260  0.75250  0.36220  Biso   1.000  O
  H176     1.0000 0.94080  0.76200  0.33260  Biso   1.000  H
  O105     1.0000 0.45520  0.37120  0.37940  Biso   1.000  O
  O106     1.0000 0.53670  0.33100  0.44370  Biso   1.000  O
  O107     1.0000 0.68130  0.62520  0.45170  Biso   1.000  O
  O108     1.0000 0.74200  0.59670  0.37450  Biso   1.000  O
  O109     1.0000 0.03690  0.77820  0.92490  Biso   1.000  O
  O110     1.0000 0.91010  0.76600  0.95650  Biso   1.000  O
  O111     1.0000 0.77080  0.82190  0.67460  Biso   1.000  O
  O112     1.0000 0.73760  0.73250  0.69650  Biso   1.000  O
  O113     1.0000 0.75120  0.70820  0.27860  Biso   1.000  O
  O114     1.0000 0.71890  0.79850  0.29600  Biso   1.000  O
  O115     1.0000 0.58160  0.75790  0.01580  Biso   1.000  O
  O116     1.0000 0.45660  0.76720  0.04630  Biso   1.000  O
  O117     1.0000 0.32270  0.13330  0.58640  Biso   1.000  O
  O118     1.0000 0.26350  0.08720  0.65320  Biso   1.000  O
  O119     1.0000 0.59240  0.90000  0.55760  Biso   1.000  O
  O120     1.0000 0.60830  0.88790  0.64590  Biso   1.000  O
  O121     1.0000 0.04990  0.39160  0.63250  Biso   1.000  O
  O122     1.0000 0.96920  0.34400  0.57260  Biso   1.000  O
  O123     1.0000 0.81770  0.63270  0.53470  Biso   1.000  O
  O124     1.0000 0.74870  0.61170  0.61050  Biso   1.000  O
  O125     1.0000 0.09690  0.11550  0.59460  Biso   1.000  O
  O126     1.0000 0.99830  0.16270  0.54810  Biso   1.000  O
  O127     1.0000 0.81580  0.87600  0.54290  Biso   1.000  O
  O128     1.0000 0.76820  0.92310  0.60740  Biso   1.000  O
  C277     1.0000 0.51740  0.37110  0.41390  Biso   1.000  C
  C278     1.0000 0.57390  0.42620  0.41490  Biso   1.000  C
  C279     1.0000 0.52950  0.47560  0.40160  Biso   1.000  C
  H177     1.0000 0.47270  0.47360  0.39210  Biso   1.000  H
  C280     1.0000 0.57000  0.52820  0.40260  Biso   1.000  C
  H178     1.0000 0.54030  0.56130  0.39370  Biso   1.000  H
  C281     1.0000 0.65500  0.53130  0.41680  Biso   1.000  C
  C282     1.0000 0.69940  0.48180  0.43010  Biso   1.000  C
  C283     1.0000 0.65880  0.42920  0.42910  Biso   1.000  C
  C284     1.0000 0.70320  0.37980  0.44240  Biso   1.000  C
  H179     1.0000 0.67610  0.34460  0.44180  Biso   1.000  H
  C285     1.0000 0.78820  0.38290  0.45670  Biso   1.000  C
  H180     1.0000 0.81790  0.34980  0.46550  Biso   1.000  H
  C286     1.0000 0.82870  0.43540  0.45760  Biso   1.000  C
  H181     1.0000 0.88560  0.43740  0.46710  Biso   1.000  H
  C287     1.0000 0.78430  0.48490  0.44430  Biso   1.000  C
  H182     1.0000 0.81150  0.52000  0.44500  Biso   1.000  H
  C288     1.0000 0.56830  0.42690  0.42050  Biso   1.000  C
  C289     1.0000 0.52530  0.47830  0.42430  Biso   1.000  C
  H183     1.0000 0.46730  0.47840  0.42680  Biso   1.000  H
  C290     1.0000 0.56900  0.52970  0.42460  Biso   1.000  C
  H184     1.0000 0.54030  0.56410  0.42710  Biso   1.000  H
  C291     1.0000 0.65580  0.52960  0.42090  Biso   1.000  C
  C292     1.0000 0.69880  0.47820  0.41710  Biso   1.000  C
  C293     1.0000 0.65500  0.42690  0.41680  Biso   1.000  C
  C294     1.0000 0.69800  0.37550  0.41300  Biso   1.000  C
  H185     1.0000 0.66870  0.34110  0.41280  Biso   1.000  H
  C295     1.0000 0.78470  0.37540  0.40930  Biso   1.000  C
  H186     1.0000 0.81350  0.34100  0.40670  Biso   1.000  H
  C296     1.0000 0.82850  0.42670  0.40950  Biso   1.000  C
  H187     1.0000 0.88650  0.42670  0.40710  Biso   1.000  H
  C297     1.0000 0.78550  0.47810  0.41340  Biso   1.000  C
  H188     1.0000 0.81480  0.51240  0.41360  Biso   1.000  H
  C298     1.0000 0.69560  0.58890  0.41430  Biso   1.000  C
  C299     1.0000 0.95920  0.77400  0.91640  Biso   1.000  C
  C300     1.0000 0.91880  0.77830  0.85930  Biso   1.000  C
  C301     1.0000 0.84620  0.74790  0.85020  Biso   1.000  C
  H189     1.0000 0.82420  0.72710  0.87910  Biso   1.000  H
  C302     1.0000 0.80540  0.74770  0.79950  Biso   1.000  C
  H190     1.0000 0.75780  0.72510  0.79480  Biso   1.000  H
  C303     1.0000 0.83120  0.77910  0.75540  Biso   1.000  C
  C304     1.0000 0.90670  0.81140  0.76300  Biso   1.000  C
  C305     1.0000 0.94150  0.84120  0.71820  Biso   1.000  C
  H191     1.0000 0.91440  0.84020  0.68360  Biso   1.000  H
  C306     1.0000 0.01350  0.87110  0.72500  Biso   1.000  C
  H192     1.0000 0.03330  0.89210  0.69550  Biso   1.000  H
  C307     1.0000 0.05920  0.87120  0.77600  Biso   1.000  C
  H193     1.0000 0.10940  0.89110  0.77990  Biso   1.000  H
  C308     1.0000 0.02830  0.84130  0.81980  Biso   1.000  C
  H194     1.0000 0.05770  0.84110  0.85370  Biso   1.000  H
  C309     1.0000 0.95140  0.81030  0.81380  Biso   1.000  C
  C310     1.0000 0.77550  0.77670  0.70460  Biso   1.000  C
  C311     1.0000 0.71120  0.75510  0.26850  Biso   1.000  C
  C312     1.0000 0.65580  0.75510  0.21660  Biso   1.000  C
  C313     1.0000 0.68690  0.72950  0.17160  Biso   1.000  C
  H195     1.0000 0.73720  0.70950  0.17460  Biso   1.000  H
  C314     1.0000 0.64280  0.73310  0.11940  Biso   1.000  C
  H196     1.0000 0.66550  0.71520  0.08900  Biso   1.000  H
  C315     1.0000 0.56980  0.76130  0.11240  Biso   1.000  C
  C316     1.0000 0.53440  0.78790  0.15900  Biso   1.000  C
  C317     1.0000 0.45680  0.81770  0.15670  Biso   1.000  C
  H197     1.0000 0.42760  0.82050  0.12290  Biso   1.000  H
  C318     1.0000 0.42330  0.84240  0.20250  Biso   1.000  C
  H198     1.0000 0.37380  0.86320  0.19880  Biso   1.000  H
  C319     1.0000 0.46220  0.83680  0.25410  Biso   1.000  C
  H199     1.0000 0.43730  0.85170  0.28520  Biso   1.000  H
  C320     1.0000 0.53670  0.80950  0.25920  Biso   1.000  C
  H200     1.0000 0.56270  0.80630  0.29400  Biso   1.000  H
  C321     1.0000 0.57720  0.78490  0.21160  Biso   1.000  C
  C322     1.0000 0.53190  0.76410  0.05580  Biso   1.000  C
  C323     1.0000 0.32010  0.09160  0.62070  Biso   1.000  C
  C324     1.0000 0.39140  0.04760  0.61850  Biso   1.000  C
  C325     1.0000 0.41350  0.02550  0.56970  Biso   1.000  C
  H201     1.0000 0.38860  0.03920  0.53700  Biso   1.000  H
  C326     1.0000 0.47280  0.98280  0.56770  Biso   1.000  C
  H202     1.0000 0.48490  0.96710  0.53350  Biso   1.000  H
  C327     1.0000 0.51460  0.96240  0.61430  Biso   1.000  C
  C328     1.0000 0.49460  0.98460  0.66630  Biso   1.000  C
  C329     1.0000 0.53590  0.96680  0.71710  Biso   1.000  C
  H203     1.0000 0.57650  0.93840  0.71590  Biso   1.000  H
  C330     1.0000 0.51750  0.99010  0.76720  Biso   1.000  C
  H204     1.0000 0.54720  0.97920  0.79920  Biso   1.000  H
  C331     1.0000 0.45000  0.03260  0.76980  Biso   1.000  C
  H205     1.0000 0.43540  0.04790  0.80370  Biso   1.000  H
  C332     1.0000 0.40900  0.04950  0.72230  Biso   1.000  C
  H206     1.0000 0.36690  0.07680  0.72420  Biso   1.000  H
  C333     1.0000 0.42950  0.02610  0.66930  Biso   1.000  C
  C334     1.0000 0.57520  0.91390  0.60620  Biso   1.000  C
  C335     1.0000 0.98710  0.38810  0.59850  Biso   1.000  C
  C336     1.0000 0.93260  0.44140  0.59160  Biso   1.000  C
  C337     1.0000 0.97290  0.49180  0.57760  Biso   1.000  C
  H207     1.0000 0.03030  0.49180  0.57220  Biso   1.000  H
  C338     1.0000 0.92730  0.54210  0.57170  Biso   1.000  C
  H208     1.0000 0.95430  0.57580  0.56230  Biso   1.000  H
  C339     1.0000 0.84150  0.54210  0.57980  Biso   1.000  C
  C340     1.0000 0.80120  0.49180  0.59380  Biso   1.000  C
  C341     1.0000 0.84680  0.44140  0.59980  Biso   1.000  C
  C342     1.0000 0.80650  0.39110  0.61380  Biso   1.000  C
  H209     1.0000 0.83700  0.35740  0.61780  Biso   1.000  H
  C343     1.0000 0.72070  0.39110  0.62190  Biso   1.000  C
  H210     1.0000 0.69380  0.35740  0.63130  Biso   1.000  H
  C344     1.0000 0.67520  0.44140  0.61600  Biso   1.000  C
  H211     1.0000 0.61770  0.44140  0.62140  Biso   1.000  H
  C345     1.0000 0.71540  0.49180  0.60190  Biso   1.000  C
  H212     1.0000 0.68490  0.52540  0.59800  Biso   1.000  H
  C346     1.0000 0.93160  0.43950  0.58770  Biso   1.000  C
  C347     1.0000 0.97470  0.49100  0.58990  Biso   1.000  C
  H213     1.0000 0.03260  0.49130  0.59560  Biso   1.000  H
  C348     1.0000 0.93130  0.54220  0.58350  Biso   1.000  C
  H214     1.0000 0.96020  0.57670  0.58500  Biso   1.000  H
  C349     1.0000 0.84480  0.54180  0.57490  Biso   1.000  C
  C350     1.0000 0.80170  0.49020  0.57280  Biso   1.000  C
  C351     1.0000 0.84510  0.43910  0.57910  Biso   1.000  C
  C352     1.0000 0.80190  0.38750  0.57700  Biso   1.000  C
  H215     1.0000 0.83100  0.35330  0.58120  Biso   1.000  H
  C353     1.0000 0.71540  0.38710  0.56840  Biso   1.000  C
  H216     1.0000 0.68660  0.35260  0.56690  Biso   1.000  H
  C354     1.0000 0.67200  0.43830  0.56200  Biso   1.000  C
  H217     1.0000 0.61410  0.43800  0.55630  Biso   1.000  H
  C355     1.0000 0.71510  0.48980  0.56420  Biso   1.000  C
  H218     1.0000 0.68610  0.52410  0.55990  Biso   1.000  H
  C356     1.0000 0.79840  0.59960  0.57400  Biso   1.000  C
  C357     1.0000 0.02930  0.11760  0.56800  Biso   1.000  C
  C358     1.0000 0.97770  0.06390  0.56020  Biso   1.000  C
  C359     1.0000 0.98380  0.02440  0.60110  Biso   1.000  C
  H219     1.0000 0.02410  0.02940  0.62940  Biso   1.000  H
  C360     1.0000 0.93200  0.97650  0.60240  Biso   1.000  C
  H220     1.0000 0.93570  0.95110  0.63200  Biso   1.000  H
  C361     1.0000 0.87500  0.96750  0.55900  Biso   1.000  C
  C362     1.0000 0.86860  0.00490  0.51480  Biso   1.000  C
  C363     1.0000 0.81070  0.99500  0.47100  Biso   1.000  C
  H221     1.0000 0.77500  0.96360  0.47190  Biso   1.000  H
  C364     1.0000 0.80690  0.03080  0.42820  Biso   1.000  C
  H222     1.0000 0.76930  0.02330  0.39900  Biso   1.000  H
  C365     1.0000 0.85740  0.07900  0.42580  Biso   1.000  C
  H223     1.0000 0.85370  0.10290  0.39510  Biso   1.000  H
  C366     1.0000 0.91250  0.09150  0.46880  Biso   1.000  C
  H224     1.0000 0.94470  0.12460  0.46760  Biso   1.000  H
  C367     1.0000 0.92080  0.05490  0.51440  Biso   1.000  C
  C368     1.0000 0.81850  0.91860  0.56620  Biso   1.000  C
