data_image0
_cell_length_a       15.825
_cell_length_b       23.261
_cell_length_c       23.883
_cell_angle_alpha    90
_cell_angle_beta     91.142
_cell_angle_gamma    90

_symmetry_space_group_name_H-M    "P 1"
_symmetry_int_tables_number       1

loop_
  _symmetry_equiv_pos_as_xyz
  'x, y, z'

loop_
  _atom_site_label
  _atom_site_occupancy
  _atom_site_fract_x
  _atom_site_fract_y
  _atom_site_fract_z
  _atom_site_thermal_displace_type
  _atom_site_B_iso_or_equiv
  _atom_site_type_symbol
  Yb1      1.0000 0.24839  0.78724  0.98956  Biso   1.000  Yb
  O1       1.0000 0.13130  0.81570  0.03630  Biso   1.000  O
  O2       1.0000 0.15700  0.70750  0.00570  Biso   1.000  O
  O3       1.0000 0.26100  0.75610  0.08110  Biso   1.000  O
  O4       1.0000 0.23250  0.76620  0.89600  Biso   1.000  O
  O5       1.0000 0.36260  0.82240  0.94300  Biso   1.000  O
  O6       1.0000 0.34030  0.71270  0.96320  Biso   1.000  O
  O7       1.0000 0.18330  0.87390  0.95300  Biso   1.000  O
  O8       1.0000 0.31530  0.86670  0.03640  Biso   1.000  O
  Yb2      1.0000 0.15837  0.81523  0.13308  Biso   1.000  Yb
  Yb3      1.0000 0.02627  0.74910  0.02218  Biso   1.000  Yb
  H1       1.0000 0.11270  0.85380  0.02380  Biso   1.000  H
  Yb4      1.0000 0.19897  0.66708  0.09086  Biso   1.000  Yb
  H2       1.0000 0.15550  0.67970  0.97480  Biso   1.000  H
  H3       1.0000 0.31880  0.75810  0.09640  Biso   1.000  H
  Yb5      1.0000 0.33102  0.83276  0.84953  Biso   1.000  Yb
  Yb6      1.0000 0.30024  0.67874  0.87509  Biso   1.000  Yb
  H4       1.0000 0.17410  0.76870  0.88180  Biso   1.000  H
  Yb7      1.0000 0.46979  0.75718  0.94809  Biso   1.000  Yb
  H5       1.0000 0.38080  0.85920  0.95920  Biso   1.000  H
  H6       1.0000 0.34430  0.68200  0.99120  Biso   1.000  H
  C1       1.0000 0.19780  0.91140  0.91540  Biso   1.000  C
  C2       1.0000 0.29720  0.89960  0.07470  Biso   1.000  C
  O9       1.0000 0.09100  0.73120  0.10850  Biso   1.000  O
  O10      1.0000 0.04220  0.87040  0.12210  Biso   1.000  O
  O11      1.0000 0.23470  0.76940  0.19780  Biso   1.000  O
  O12      1.0000 0.24430  0.88790  0.11350  Biso   1.000  O
  O13      1.0000 0.96240  0.83050  0.05590  Biso   1.000  O
  O14      1.0000 0.03870  0.77580  0.92650  Biso   1.000  O
  O15      1.0000 0.91230  0.76210  0.95890  Biso   1.000  O
  O16      1.0000 0.26680  0.67930  0.17610  Biso   1.000  O
  O17      1.0000 0.09960  0.59780  0.05970  Biso   1.000  O
  O18      1.0000 0.10190  0.61620  0.14850  Biso   1.000  O
  O19      1.0000 0.31340  0.62520  0.04370  Biso   1.000  O
  O20      1.0000 0.26710  0.57780  0.11310  Biso   1.000  O
  O21      1.0000 0.40260  0.74830  0.86190  Biso   1.000  O
  O22      1.0000 0.24770  0.79410  0.78140  Biso   1.000  O
  O23      1.0000 0.44700  0.89040  0.86840  Biso   1.000  O
  O24      1.0000 0.24360  0.90230  0.87390  Biso   1.000  O
  O25      1.0000 0.21890  0.70220  0.79810  Biso   1.000  O
  O26      1.0000 0.18230  0.63380  0.91360  Biso   1.000  O
  O27      1.0000 0.23930  0.58860  0.84510  Biso   1.000  O
  O28      1.0000 0.40210  0.61690  0.90390  Biso   1.000  O
  O29      1.0000 0.53240  0.84470  0.92980  Biso   1.000  O
  O30      1.0000 0.49960  0.66270  0.95170  Biso   1.000  O
  O31      1.0000 0.58110  0.75560  0.01550  Biso   1.000  O
  O32      1.0000 0.45490  0.76860  0.04650  Biso   1.000  O
  C3       1.0000 0.15710  0.96930  0.91800  Biso   1.000  C
  C4       1.0000 0.33930  0.95800  0.08020  Biso   1.000  C
  H7       1.0000 0.05180  0.71760  0.13680  Biso   1.000  H
  C5       1.0000 0.27270  0.72330  0.20610  Biso   1.000  C
  C6       1.0000 0.07580  0.58600  0.10830  Biso   1.000  C
  C7       1.0000 0.31880  0.58300  0.07170  Biso   1.000  C
  H8       1.0000 0.44110  0.73940  0.83140  Biso   1.000  H
  C8       1.0000 0.20940  0.74520  0.77100  Biso   1.000  C
  C9       1.0000 0.07130  0.97210  0.90440  Biso   1.000  C
  C10      1.0000 0.20160  0.01930  0.93060  Biso   1.000  C
  C11      1.0000 0.42580  0.95720  0.07090  Biso   1.000  C
  C12      1.0000 0.29980  0.00900  0.09470  Biso   1.000  C
  C13      1.0000 0.32950  0.72280  0.25780  Biso   1.000  C
  C14      1.0000 0.01200  0.53760  0.11570  Biso   1.000  C
  C15      1.0000 0.37440  0.53280  0.06440  Biso   1.000  C
  C16      1.0000 0.15310  0.74540  0.71740  Biso   1.000  C
  C17      1.0000 0.03010  0.02480  0.90350  Biso   1.000  C
  H9       1.0000 0.04150  0.93860  0.89600  Biso   1.000  H
  C18      1.0000 0.16040  0.07210  0.92970  Biso   1.000  C
  C19      1.0000 0.28730  0.01660  0.94420  Biso   1.000  C
  C20      1.0000 0.47260  0.00750  0.07620  Biso   1.000  C
  H10      1.0000 0.45230  0.92300  0.06120  Biso   1.000  H
  C21      1.0000 0.21330  0.00980  0.10400  Biso   1.000  C
  C22      1.0000 0.34660  0.05940  0.09990  Biso   1.000  C
  C23      1.0000 0.30320  0.75630  0.30220  Biso   1.000  C
  C24      1.0000 0.40520  0.68900  0.26420  Biso   1.000  C
  C25      1.0000 0.97230  0.51640  0.06860  Biso   1.000  C
  C26      1.0000 0.99380  0.51370  0.16750  Biso   1.000  C
  C27      1.0000 0.36730  0.49610  0.01770  Biso   1.000  C
  C28      1.0000 0.43240  0.52300  0.10550  Biso   1.000  C
  C29      1.0000 0.18650  0.77200  0.67190  Biso   1.000  C
  C30      1.0000 0.07710  0.71560  0.71290  Biso   1.000  C
  H11      1.0000 0.97280  0.02670  0.89440  Biso   1.000  H
  C31      1.0000 0.07470  0.07490  0.91610  Biso   1.000  C
  C32      1.0000 0.20490  0.12210  0.94230  Biso   1.000  C
  C33      1.0000 0.33190  0.06660  0.95680  Biso   1.000  C
  H12      1.0000 0.31490  0.98120  0.94480  Biso   1.000  H
  H13      1.0000 0.53050  0.00700  0.07000  Biso   1.000  H
  C34      1.0000 0.43300  0.05860  0.09070  Biso   1.000  C
  C35      1.0000 0.17370  0.06090  0.11850  Biso   1.000  C
  H14      1.0000 0.18200  0.97610  0.10040  Biso   1.000  H
  C36      1.0000 0.30700  0.11040  0.11440  Biso   1.000  C
  C37      1.0000 0.34760  0.75600  0.35360  Biso   1.000  C
  H15      1.0000 0.25550  0.77920  0.29780  Biso   1.000  H
  C38      1.0000 0.45130  0.69170  0.31580  Biso   1.000  C
  C39      1.0000 0.43770  0.65620  0.21840  Biso   1.000  C
  C40      1.0000 0.91430  0.47270  0.07160  Biso   1.000  C
  H16      1.0000 0.98490  0.53190  0.03390  Biso   1.000  H
  C41      1.0000 0.92650  0.47250  0.17170  Biso   1.000  C
  C42      1.0000 0.03410  0.53000  0.21940  Biso   1.000  C
  C43      1.0000 0.41990  0.44540  0.01750  Biso   1.000  C
  C44      1.0000 0.30900  0.50500  0.97320  Biso   1.000  C
  C45      1.0000 0.48760  0.47420  0.10360  Biso   1.000  C
  H17      1.0000 0.43660  0.54830  0.13560  Biso   1.000  H
  H18      1.0000 0.23720  0.79210  0.67510  Biso   1.000  H
  C46      1.0000 0.14250  0.76830  0.62020  Biso   1.000  C
  C47      1.0000 0.03460  0.71210  0.66030  Biso   1.000  C
  C48      1.0000 0.03850  0.69030  0.76140  Biso   1.000  C
  C49      1.0000 0.01880  0.12810  0.91310  Biso   1.000  C
  H19      1.0000 0.17730  0.15740  0.94170  Biso   1.000  H
  C50      1.0000 0.29060  0.11930  0.95590  Biso   1.000  C
  H20      1.0000 0.38920  0.06470  0.96590  Biso   1.000  H
  C51      1.0000 0.48880  0.11260  0.09800  Biso   1.000  C
  C52      1.0000 0.22060  0.11120  0.12370  Biso   1.000  C
  H21      1.0000 0.11590  0.06140  0.12470  Biso   1.000  H
  H22      1.0000 0.33840  0.14410  0.11800  Biso   1.000  H
  C53      1.0000 0.41940  0.72480  0.36150  Biso   1.000  C
  H23      1.0000 0.32730  0.77780  0.38310  Biso   1.000  H
  C54      1.0000 0.52750  0.65730  0.32130  Biso   1.000  C
  H24      1.0000 0.40880  0.65460  0.18410  Biso   1.000  H
  C55      1.0000 0.51280  0.62720  0.22670  Biso   1.000  C
  C56      1.0000 0.88860  0.45140  0.11970  Biso   1.000  C
  H25      1.0000 0.89230  0.45740  0.03840  Biso   1.000  H
  C57      1.0000 0.90480  0.44960  0.22500  Biso   1.000  C
  H26      1.0000 0.07810  0.55650  0.21860  Biso   1.000  H
  C58      1.0000 0.01030  0.50810  0.27050  Biso   1.000  C
  C59      1.0000 0.47940  0.43700  0.06120  Biso   1.000  C
  C60      1.0000 0.41260  0.40850  0.96870  Biso   1.000  C
  C61      1.0000 0.30300  0.46870  0.92850  Biso   1.000  C
  H27      1.0000 0.27340  0.53680  0.97430  Biso   1.000  H
  H28      1.0000 0.52860  0.46860  0.13160  Biso   1.000  H
  H29      1.0000 0.16510  0.78650  0.58920  Biso   1.000  H
  C62      1.0000 0.07120  0.74030  0.61410  Biso   1.000  C
  C63      1.0000 0.95650  0.68060  0.65800  Biso   1.000  C
  C64      1.0000 0.96440  0.66290  0.75680  Biso   1.000  C
  H30      1.0000 0.06550  0.69320  0.79630  Biso   1.000  H
  H31      1.0000 0.32040  0.15280  0.96430  Biso   1.000  H
  H32      1.0000 0.19410  0.14530  0.13340  Biso   1.000  H
  C65      1.0000 0.46090  0.72760  0.41850  Biso   1.000  C
  C66      1.0000 0.55400  0.62790  0.27770  Biso   1.000  C
  H33      1.0000 0.55740  0.65580  0.35520  Biso   1.000  H
  H34      1.0000 0.53590  0.60680  0.19720  Biso   1.000  H
  C67      1.0000 0.81730  0.40800  0.12060  Biso   1.000  C
  C68      1.0000 0.94720  0.46800  0.27310  Biso   1.000  C
  H35      1.0000 0.86220  0.42220  0.22750  Biso   1.000  H
  H36      1.0000 0.03730  0.52060  0.30330  Biso   1.000  H
  C69      1.0000 0.53080  0.38260  0.06710  Biso   1.000  C
  C70      1.0000 0.35560  0.42100  0.92640  Biso   1.000  C
  H37      1.0000 0.44680  0.37610  0.96600  Biso   1.000  H
  H38      1.0000 0.26410  0.47570  0.89970  Biso   1.000  H
  C71      1.0000 0.03260  0.73850  0.55570  Biso   1.000  C
  H39      1.0000 0.92830  0.67690  0.62360  Biso   1.000  H
  C72      1.0000 0.92200  0.65600  0.70390  Biso   1.000  C
  H40      1.0000 0.93990  0.64790  0.78870  Biso   1.000  H
  H41      1.0000 0.60330  0.60650  0.28190  Biso   1.000  H
  H42      1.0000 0.93250  0.45290  0.30760  Biso   1.000  H
  H43      1.0000 0.35210  0.39680  0.89550  Biso   1.000  H
  H44      1.0000 0.87200  0.63510  0.70080  Biso   1.000  H
  C73      1.0000 0.06880  0.07400  0.92190  Biso   1.000  C
  C74      1.0000 0.02590  0.02210  0.92650  Biso   1.000  C
  H45      1.0000 0.96740  0.02190  0.92950  Biso   1.000  H
  C75      1.0000 0.07040  0.97060  0.92670  Biso   1.000  C
  H46      1.0000 0.04170  0.93590  0.92980  Biso   1.000  H
  C76      1.0000 0.15790  0.97100  0.92220  Biso   1.000  C
  C77      1.0000 0.20080  0.02280  0.91760  Biso   1.000  C
  C78      1.0000 0.15620  0.07440  0.91740  Biso   1.000  C
  C79      1.0000 0.19910  0.12620  0.91280  Biso   1.000  C
  H47      1.0000 0.16930  0.16070  0.91270  Biso   1.000  H
  C80      1.0000 0.28650  0.12660  0.90830  Biso   1.000  C
  H48      1.0000 0.31520  0.16130  0.90520  Biso   1.000  H
  C81      1.0000 0.33110  0.07510  0.90840  Biso   1.000  C
  H49      1.0000 0.38960  0.07530  0.90550  Biso   1.000  H
  C82      1.0000 0.28820  0.02320  0.91310  Biso   1.000  C
  H50      1.0000 0.31800  0.98880  0.91320  Biso   1.000  H
  C83      1.0000 0.43160  0.06070  0.08690  Biso   1.000  C
  C84      1.0000 0.47430  0.00840  0.08880  Biso   1.000  C
  H51      1.0000 0.53270  0.00780  0.09380  Biso   1.000  H
  C85      1.0000 0.42970  0.95720  0.08300  Biso   1.000  C
  H52      1.0000 0.45820  0.92230  0.08420  Biso   1.000  H
  C86      1.0000 0.34240  0.95820  0.07540  Biso   1.000  C
  C87      1.0000 0.29970  0.01050  0.07360  Biso   1.000  C
  C88      1.0000 0.34430  0.06170  0.07940  Biso   1.000  C
  C89      1.0000 0.30160  0.11390  0.07750  Biso   1.000  C
  H53      1.0000 0.33150  0.14810  0.08140  Biso   1.000  H
  C90      1.0000 0.21430  0.11490  0.06990  Biso   1.000  C
  H54      1.0000 0.18570  0.14980  0.06870  Biso   1.000  H
  C91      1.0000 0.16970  0.06370  0.06420  Biso   1.000  C
  H55      1.0000 0.11130  0.06440  0.05910  Biso   1.000  H
  C92      1.0000 0.21240  0.01150  0.06600  Biso   1.000  C
  H56      1.0000 0.18250  0.97720  0.06220  Biso   1.000  H
  Yb8      1.0000 0.25161  0.28724  0.51044  Biso   1.000  Yb
  O33      1.0000 0.36870  0.31570  0.46370  Biso   1.000  O
  O34      1.0000 0.34300  0.20750  0.49430  Biso   1.000  O
  O35      1.0000 0.23900  0.25610  0.41890  Biso   1.000  O
  O36      1.0000 0.26750  0.26620  0.60400  Biso   1.000  O
  O37      1.0000 0.13740  0.32240  0.55700  Biso   1.000  O
  O38      1.0000 0.15970  0.21270  0.53680  Biso   1.000  O
  O39      1.0000 0.31670  0.37390  0.54700  Biso   1.000  O
  O40      1.0000 0.18470  0.36670  0.46360  Biso   1.000  O
  Yb9      1.0000 0.34163  0.31523  0.36692  Biso   1.000  Yb
  Yb10     1.0000 0.47373  0.24910  0.47782  Biso   1.000  Yb
  H57      1.0000 0.38730  0.35380  0.47620  Biso   1.000  H
  Yb11     1.0000 0.30103  0.16708  0.40914  Biso   1.000  Yb
  H58      1.0000 0.34450  0.17970  0.52520  Biso   1.000  H
  H59      1.0000 0.18120  0.25810  0.40360  Biso   1.000  H
  Yb12     1.0000 0.16898  0.33276  0.65047  Biso   1.000  Yb
  Yb13     1.0000 0.19976  0.17874  0.62491  Biso   1.000  Yb
  H60      1.0000 0.32590  0.26870  0.61820  Biso   1.000  H
  Yb14     1.0000 0.03021  0.25718  0.55191  Biso   1.000  Yb
  H61      1.0000 0.11920  0.35920  0.54080  Biso   1.000  H
  H62      1.0000 0.15570  0.18200  0.50880  Biso   1.000  H
  C93      1.0000 0.30220  0.41140  0.58460  Biso   1.000  C
  C94      1.0000 0.20280  0.39960  0.42530  Biso   1.000  C
  O41      1.0000 0.40900  0.23120  0.39150  Biso   1.000  O
  O42      1.0000 0.45780  0.37040  0.37790  Biso   1.000  O
  O43      1.0000 0.26530  0.26940  0.30220  Biso   1.000  O
  O44      1.0000 0.25570  0.38790  0.38650  Biso   1.000  O
  O45      1.0000 0.53760  0.33050  0.44410  Biso   1.000  O
  O46      1.0000 0.46130  0.27580  0.57350  Biso   1.000  O
  O47      1.0000 0.58770  0.26210  0.54110  Biso   1.000  O
  O48      1.0000 0.23320  0.17930  0.32390  Biso   1.000  O
  O49      1.0000 0.40040  0.09780  0.44030  Biso   1.000  O
  O50      1.0000 0.39810  0.11620  0.35150  Biso   1.000  O
  O51      1.0000 0.18660  0.12520  0.45630  Biso   1.000  O
  O52      1.0000 0.23290  0.07780  0.38690  Biso   1.000  O
  O53      1.0000 0.09740  0.24830  0.63810  Biso   1.000  O
  O54      1.0000 0.25230  0.29410  0.71860  Biso   1.000  O
  O55      1.0000 0.05300  0.39040  0.63160  Biso   1.000  O
  O56      1.0000 0.25640  0.40230  0.62610  Biso   1.000  O
  O57      1.0000 0.28110  0.20220  0.70190  Biso   1.000  O
  O58      1.0000 0.31770  0.13380  0.58640  Biso   1.000  O
  O59      1.0000 0.26070  0.08860  0.65490  Biso   1.000  O
  O60      1.0000 0.09790  0.11690  0.59610  Biso   1.000  O
  O61      1.0000 0.96760  0.34470  0.57020  Biso   1.000  O
  O62      1.0000 0.00040  0.16270  0.54830  Biso   1.000  O
  O63      1.0000 0.91890  0.25560  0.48450  Biso   1.000  O
  O64      1.0000 0.04510  0.26860  0.45350  Biso   1.000  O
  C95      1.0000 0.34290  0.46930  0.58200  Biso   1.000  C
  C96      1.0000 0.16070  0.45800  0.41980  Biso   1.000  C
  H63      1.0000 0.44820  0.21760  0.36320  Biso   1.000  H
  C97      1.0000 0.22730  0.22330  0.29390  Biso   1.000  C
  C98      1.0000 0.42420  0.08600  0.39170  Biso   1.000  C
  C99      1.0000 0.18120  0.08300  0.42830  Biso   1.000  C
  H64      1.0000 0.05890  0.23940  0.66860  Biso   1.000  H
  C100     1.0000 0.29060  0.24520  0.72900  Biso   1.000  C
  C101     1.0000 0.42870  0.47210  0.59560  Biso   1.000  C
  C102     1.0000 0.29840  0.51930  0.56940  Biso   1.000  C
  C103     1.0000 0.07420  0.45720  0.42910  Biso   1.000  C
  C104     1.0000 0.20020  0.50900  0.40530  Biso   1.000  C
  C105     1.0000 0.17050  0.22280  0.24220  Biso   1.000  C
  C106     1.0000 0.48800  0.03760  0.38430  Biso   1.000  C
  C107     1.0000 0.12560  0.03280  0.43560  Biso   1.000  C
  C108     1.0000 0.34690  0.24540  0.78260  Biso   1.000  C
  C109     1.0000 0.46990  0.52480  0.59650  Biso   1.000  C
  H65      1.0000 0.45850  0.43860  0.60400  Biso   1.000  H
  C110     1.0000 0.33960  0.57210  0.57030  Biso   1.000  C
  C111     1.0000 0.21270  0.51660  0.55580  Biso   1.000  C
  C112     1.0000 0.02740  0.50750  0.42380  Biso   1.000  C
  H66      1.0000 0.04770  0.42300  0.43880  Biso   1.000  H
  C113     1.0000 0.28670  0.50980  0.39600  Biso   1.000  C
  C114     1.0000 0.15340  0.55940  0.40010  Biso   1.000  C
  C115     1.0000 0.19680  0.25630  0.19780  Biso   1.000  C
  C116     1.0000 0.09480  0.18900  0.23580  Biso   1.000  C
  C117     1.0000 0.52770  0.01640  0.43140  Biso   1.000  C
  C118     1.0000 0.50620  0.01370  0.33250  Biso   1.000  C
  C119     1.0000 0.13270  0.99610  0.48230  Biso   1.000  C
  C120     1.0000 0.06760  0.02300  0.39450  Biso   1.000  C
  C121     1.0000 0.31350  0.27200  0.82810  Biso   1.000  C
  C122     1.0000 0.42290  0.21560  0.78710  Biso   1.000  C
  H67      1.0000 0.52720  0.52670  0.60560  Biso   1.000  H
  C123     1.0000 0.42530  0.57490  0.58390  Biso   1.000  C
  C124     1.0000 0.29510  0.62210  0.55770  Biso   1.000  C
  C125     1.0000 0.16810  0.56660  0.54320  Biso   1.000  C
  H68      1.0000 0.18510  0.48120  0.55520  Biso   1.000  H
  H69      1.0000 0.96950  0.50700  0.43000  Biso   1.000  H
  C126     1.0000 0.06700  0.55860  0.40930  Biso   1.000  C
  C127     1.0000 0.32630  0.56090  0.38150  Biso   1.000  C
  H70      1.0000 0.31800  0.47610  0.39960  Biso   1.000  H
  C128     1.0000 0.19300  0.61040  0.38560  Biso   1.000  C
  C129     1.0000 0.15240  0.25600  0.14640  Biso   1.000  C
  H71      1.0000 0.24450  0.27920  0.20220  Biso   1.000  H
  C130     1.0000 0.04870  0.19170  0.18420  Biso   1.000  C
  C131     1.0000 0.06230  0.15620  0.28160  Biso   1.000  C
  C132     1.0000 0.58570  0.97270  0.42840  Biso   1.000  C
  H72      1.0000 0.51510  0.03190  0.46610  Biso   1.000  H
  C133     1.0000 0.57350  0.97250  0.32830  Biso   1.000  C
  C134     1.0000 0.46590  0.03000  0.28060  Biso   1.000  C
  C135     1.0000 0.08010  0.94540  0.48250  Biso   1.000  C
  C136     1.0000 0.19100  0.00500  0.52680  Biso   1.000  C
  C137     1.0000 0.01240  0.97420  0.39640  Biso   1.000  C
  H73      1.0000 0.06340  0.04830  0.36440  Biso   1.000  H
  H74      1.0000 0.26280  0.29210  0.82490  Biso   1.000  H
  C138     1.0000 0.35750  0.26830  0.87980  Biso   1.000  C
  C139     1.0000 0.46540  0.21210  0.83970  Biso   1.000  C
  C140     1.0000 0.46150  0.19030  0.73860  Biso   1.000  C
  C141     1.0000 0.48120  0.62810  0.58690  Biso   1.000  C
  H75      1.0000 0.32270  0.65740  0.55830  Biso   1.000  H
  C142     1.0000 0.20940  0.61930  0.54410  Biso   1.000  C
  H76      1.0000 0.11080  0.56470  0.53410  Biso   1.000  H
  C143     1.0000 0.01120  0.61260  0.40200  Biso   1.000  C
  C144     1.0000 0.27940  0.61120  0.37630  Biso   1.000  C
  H77      1.0000 0.38410  0.56140  0.37530  Biso   1.000  H
  H78      1.0000 0.16160  0.64410  0.38200  Biso   1.000  H
  C145     1.0000 0.08060  0.22480  0.13850  Biso   1.000  C
  H79      1.0000 0.17270  0.27780  0.11690  Biso   1.000  H
  C146     1.0000 0.97250  0.15730  0.17870  Biso   1.000  C
  H80      1.0000 0.09120  0.15460  0.31590  Biso   1.000  H
  C147     1.0000 0.98720  0.12720  0.27330  Biso   1.000  C
  C148     1.0000 0.61140  0.95140  0.38030  Biso   1.000  C
  H81      1.0000 0.60770  0.95740  0.46160  Biso   1.000  H
  C149     1.0000 0.59520  0.94960  0.27500  Biso   1.000  C
  H82      1.0000 0.42190  0.05650  0.28140  Biso   1.000  H
  C150     1.0000 0.48970  0.00810  0.22950  Biso   1.000  C
  C151     1.0000 0.02060  0.93700  0.43880  Biso   1.000  C
  C152     1.0000 0.08740  0.90850  0.53130  Biso   1.000  C
  C153     1.0000 0.19700  0.96870  0.57150  Biso   1.000  C
  H83      1.0000 0.22660  0.03680  0.52570  Biso   1.000  H
  H84      1.0000 0.97140  0.96860  0.36840  Biso   1.000  H
  H85      1.0000 0.33490  0.28650  0.91080  Biso   1.000  H
  C154     1.0000 0.42880  0.24030  0.88590  Biso   1.000  C
  C155     1.0000 0.54350  0.18060  0.84200  Biso   1.000  C
  C156     1.0000 0.53560  0.16290  0.74320  Biso   1.000  C
  H86      1.0000 0.43450  0.19320  0.70370  Biso   1.000  H
  H87      1.0000 0.17960  0.65280  0.53570  Biso   1.000  H
  H88      1.0000 0.30590  0.64530  0.36660  Biso   1.000  H
  C157     1.0000 0.03910  0.22760  0.08150  Biso   1.000  C
  C158     1.0000 0.94600  0.12790  0.22230  Biso   1.000  C
  H89      1.0000 0.94260  0.15580  0.14480  Biso   1.000  H
  H90      1.0000 0.96410  0.10680  0.30280  Biso   1.000  H
  C159     1.0000 0.68270  0.90800  0.37940  Biso   1.000  C
  C160     1.0000 0.55280  0.96800  0.22690  Biso   1.000  C
  H91      1.0000 0.63780  0.92220  0.27250  Biso   1.000  H
  H92      1.0000 0.46270  0.02060  0.19670  Biso   1.000  H
  C161     1.0000 0.96920  0.88260  0.43290  Biso   1.000  C
  C162     1.0000 0.14440  0.92100  0.57360  Biso   1.000  C
  H93      1.0000 0.05320  0.87610  0.53400  Biso   1.000  H
  H94      1.0000 0.23590  0.97570  0.60030  Biso   1.000  H
  C163     1.0000 0.46740  0.23850  0.94430  Biso   1.000  C
  H95      1.0000 0.57170  0.17690  0.87640  Biso   1.000  H
  C164     1.0000 0.57800  0.15600  0.79610  Biso   1.000  C
  H96      1.0000 0.56010  0.14790  0.71130  Biso   1.000  H
  H97      1.0000 0.89670  0.10650  0.21810  Biso   1.000  H
  H98      1.0000 0.56750  0.95290  0.19240  Biso   1.000  H
  H99      1.0000 0.14790  0.89680  0.60450  Biso   1.000  H
  H100     1.0000 0.62800  0.13510  0.79920  Biso   1.000  H
  C165     1.0000 0.43120  0.57400  0.57810  Biso   1.000  C
  C166     1.0000 0.47410  0.52210  0.57350  Biso   1.000  C
  H101     1.0000 0.53260  0.52190  0.57050  Biso   1.000  H
  C167     1.0000 0.42960  0.47060  0.57330  Biso   1.000  C
  H102     1.0000 0.45830  0.43590  0.57020  Biso   1.000  H
  C168     1.0000 0.34210  0.47100  0.57780  Biso   1.000  C
  C169     1.0000 0.29920  0.52280  0.58240  Biso   1.000  C
  C170     1.0000 0.34380  0.57440  0.58260  Biso   1.000  C
  C171     1.0000 0.30090  0.62620  0.58720  Biso   1.000  C
  H103     1.0000 0.33070  0.66070  0.58730  Biso   1.000  H
  C172     1.0000 0.21350  0.62660  0.59170  Biso   1.000  C
  H104     1.0000 0.18480  0.66130  0.59480  Biso   1.000  H
  C173     1.0000 0.16890  0.57510  0.59160  Biso   1.000  C
  H105     1.0000 0.11040  0.57530  0.59450  Biso   1.000  H
  C174     1.0000 0.21180  0.52320  0.58690  Biso   1.000  C
  H106     1.0000 0.18200  0.48880  0.58680  Biso   1.000  H
  C175     1.0000 0.06840  0.56070  0.41310  Biso   1.000  C
  C176     1.0000 0.02570  0.50840  0.41120  Biso   1.000  C
  H107     1.0000 0.96730  0.50780  0.40620  Biso   1.000  H
  C177     1.0000 0.07030  0.45720  0.41700  Biso   1.000  C
  H108     1.0000 0.04180  0.42230  0.41580  Biso   1.000  H
  C178     1.0000 0.15760  0.45820  0.42460  Biso   1.000  C
  C179     1.0000 0.20030  0.51050  0.42640  Biso   1.000  C
  C180     1.0000 0.15570  0.56170  0.42060  Biso   1.000  C
  C181     1.0000 0.19840  0.61390  0.42250  Biso   1.000  C
  H109     1.0000 0.16850  0.64810  0.41860  Biso   1.000  H
  C182     1.0000 0.28570  0.61490  0.43010  Biso   1.000  C
  H110     1.0000 0.31430  0.64980  0.43130  Biso   1.000  H
  C183     1.0000 0.33030  0.56370  0.43580  Biso   1.000  C
  H111     1.0000 0.38870  0.56440  0.44090  Biso   1.000  H
  C184     1.0000 0.28760  0.51150  0.43400  Biso   1.000  C
  H112     1.0000 0.31750  0.47720  0.43780  Biso   1.000  H
  Yb15     1.0000 0.75161  0.21276  0.01044  Biso   1.000  Yb
  O65      1.0000 0.86870  0.18430  0.96370  Biso   1.000  O
  O66      1.0000 0.84300  0.29250  0.99430  Biso   1.000  O
  O67      1.0000 0.73900  0.24390  0.91890  Biso   1.000  O
  O68      1.0000 0.76750  0.23380  0.10400  Biso   1.000  O
  O69      1.0000 0.63740  0.17760  0.05700  Biso   1.000  O
  O70      1.0000 0.65970  0.28730  0.03680  Biso   1.000  O
  O71      1.0000 0.81670  0.12610  0.04700  Biso   1.000  O
  O72      1.0000 0.68470  0.13330  0.96360  Biso   1.000  O
  Yb16     1.0000 0.84163  0.18477  0.86692  Biso   1.000  Yb
  Yb17     1.0000 0.97373  0.25090  0.97782  Biso   1.000  Yb
  H113     1.0000 0.88730  0.14620  0.97620  Biso   1.000  H
  Yb18     1.0000 0.80103  0.33292  0.90914  Biso   1.000  Yb
  H114     1.0000 0.84450  0.32030  0.02520  Biso   1.000  H
  H115     1.0000 0.68120  0.24190  0.90360  Biso   1.000  H
  Yb19     1.0000 0.66898  0.16724  0.15047  Biso   1.000  Yb
  Yb20     1.0000 0.69976  0.32126  0.12491  Biso   1.000  Yb
  H116     1.0000 0.82590  0.23130  0.11820  Biso   1.000  H
  Yb21     1.0000 0.53021  0.24282  0.05191  Biso   1.000  Yb
  H117     1.0000 0.61920  0.14080  0.04080  Biso   1.000  H
  H118     1.0000 0.65570  0.31800  0.00880  Biso   1.000  H
  C185     1.0000 0.80220  0.08860  0.08460  Biso   1.000  C
  C186     1.0000 0.70280  0.10040  0.92530  Biso   1.000  C
  O73      1.0000 0.90900  0.26880  0.89150  Biso   1.000  O
  O74      1.0000 0.95780  0.12960  0.87790  Biso   1.000  O
  O75      1.0000 0.76530  0.23060  0.80220  Biso   1.000  O
  O76      1.0000 0.75570  0.11210  0.88650  Biso   1.000  O
  O77      1.0000 0.03760  0.16950  0.94410  Biso   1.000  O
  O78      1.0000 0.96130  0.22420  0.07350  Biso   1.000  O
  O79      1.0000 0.08770  0.23790  0.04110  Biso   1.000  O
  O80      1.0000 0.73320  0.32070  0.82390  Biso   1.000  O
  O81      1.0000 0.90040  0.40220  0.94030  Biso   1.000  O
  O82      1.0000 0.89810  0.38380  0.85150  Biso   1.000  O
  O83      1.0000 0.68660  0.37480  0.95630  Biso   1.000  O
  O84      1.0000 0.73290  0.42220  0.88690  Biso   1.000  O
  O85      1.0000 0.59740  0.25170  0.13810  Biso   1.000  O
  O86      1.0000 0.75230  0.20590  0.21860  Biso   1.000  O
  O87      1.0000 0.55300  0.10960  0.13160  Biso   1.000  O
  O88      1.0000 0.75640  0.09770  0.12610  Biso   1.000  O
  O89      1.0000 0.78110  0.29780  0.20190  Biso   1.000  O
  O90      1.0000 0.81770  0.36620  0.08640  Biso   1.000  O
  O91      1.0000 0.76070  0.41140  0.15490  Biso   1.000  O
  O92      1.0000 0.59790  0.38310  0.09610  Biso   1.000  O
  O93      1.0000 0.46760  0.15530  0.07020  Biso   1.000  O
  O94      1.0000 0.50040  0.33730  0.04830  Biso   1.000  O
  O95      1.0000 0.41890  0.24440  0.98450  Biso   1.000  O
  O96      1.0000 0.54510  0.23140  0.95350  Biso   1.000  O
  C187     1.0000 0.84290  0.03070  0.08200  Biso   1.000  C
  C188     1.0000 0.66070  0.04200  0.91980  Biso   1.000  C
  H119     1.0000 0.94820  0.28240  0.86320  Biso   1.000  H
  C189     1.0000 0.72730  0.27670  0.79390  Biso   1.000  C
  C190     1.0000 0.92420  0.41400  0.89170  Biso   1.000  C
  C191     1.0000 0.68120  0.41700  0.92830  Biso   1.000  C
  H120     1.0000 0.55890  0.26060  0.16860  Biso   1.000  H
  C192     1.0000 0.79060  0.25480  0.22900  Biso   1.000  C
  C193     1.0000 0.92870  0.02790  0.09560  Biso   1.000  C
  C194     1.0000 0.79840  0.98070  0.06940  Biso   1.000  C
  C195     1.0000 0.57420  0.04280  0.92910  Biso   1.000  C
  C196     1.0000 0.70020  0.99100  0.90530  Biso   1.000  C
  C197     1.0000 0.67050  0.27720  0.74220  Biso   1.000  C
  C198     1.0000 0.98800  0.46240  0.88430  Biso   1.000  C
  C199     1.0000 0.62560  0.46720  0.93560  Biso   1.000  C
  C200     1.0000 0.84690  0.25460  0.28260  Biso   1.000  C
  C201     1.0000 0.96990  0.97520  0.09650  Biso   1.000  C
  H121     1.0000 0.95850  0.06140  0.10400  Biso   1.000  H
  C202     1.0000 0.83960  0.92790  0.07030  Biso   1.000  C
  C203     1.0000 0.71270  0.98340  0.05580  Biso   1.000  C
  C204     1.0000 0.52740  0.99250  0.92380  Biso   1.000  C
  H122     1.0000 0.54770  0.07700  0.93880  Biso   1.000  H
  C205     1.0000 0.78670  0.99020  0.89600  Biso   1.000  C
  C206     1.0000 0.65340  0.94060  0.90010  Biso   1.000  C
  C207     1.0000 0.69680  0.24370  0.69780  Biso   1.000  C
  C208     1.0000 0.59480  0.31100  0.73580  Biso   1.000  C
  C209     1.0000 0.02770  0.48360  0.93140  Biso   1.000  C
  C210     1.0000 0.00620  0.48630  0.83250  Biso   1.000  C
  C211     1.0000 0.63270  0.50390  0.98230  Biso   1.000  C
  C212     1.0000 0.56760  0.47700  0.89450  Biso   1.000  C
  C213     1.0000 0.81350  0.22800  0.32810  Biso   1.000  C
  C214     1.0000 0.92290  0.28440  0.28710  Biso   1.000  C
  H123     1.0000 0.02720  0.97330  0.10560  Biso   1.000  H
  C215     1.0000 0.92530  0.92510  0.08390  Biso   1.000  C
  C216     1.0000 0.79510  0.87790  0.05770  Biso   1.000  C
  C217     1.0000 0.66810  0.93340  0.04320  Biso   1.000  C
  H124     1.0000 0.68510  0.01880  0.05520  Biso   1.000  H
  H125     1.0000 0.46950  0.99300  0.93000  Biso   1.000  H
  C218     1.0000 0.56700  0.94140  0.90930  Biso   1.000  C
  C219     1.0000 0.82630  0.93910  0.88150  Biso   1.000  C
  H126     1.0000 0.81800  0.02390  0.89960  Biso   1.000  H
  C220     1.0000 0.69300  0.88960  0.88560  Biso   1.000  C
  C221     1.0000 0.65240  0.24400  0.64640  Biso   1.000  C
  H127     1.0000 0.74450  0.22080  0.70220  Biso   1.000  H
  C222     1.0000 0.54870  0.30830  0.68420  Biso   1.000  C
  C223     1.0000 0.56230  0.34380  0.78160  Biso   1.000  C
  C224     1.0000 0.08570  0.52730  0.92840  Biso   1.000  C
  H128     1.0000 0.01510  0.46810  0.96610  Biso   1.000  H
  C225     1.0000 0.07350  0.52750  0.82830  Biso   1.000  C
  C226     1.0000 0.96590  0.47000  0.78060  Biso   1.000  C
  C227     1.0000 0.58010  0.55460  0.98250  Biso   1.000  C
  C228     1.0000 0.69100  0.49500  0.02680  Biso   1.000  C
  C229     1.0000 0.51240  0.52580  0.89640  Biso   1.000  C
  H129     1.0000 0.56340  0.45170  0.86440  Biso   1.000  H
  H130     1.0000 0.76280  0.20790  0.32490  Biso   1.000  H
  C230     1.0000 0.85750  0.23170  0.37980  Biso   1.000  C
  C231     1.0000 0.96540  0.28790  0.33970  Biso   1.000  C
  C232     1.0000 0.96150  0.30970  0.23860  Biso   1.000  C
  C233     1.0000 0.98120  0.87190  0.08690  Biso   1.000  C
  H131     1.0000 0.82270  0.84260  0.05830  Biso   1.000  H
  C234     1.0000 0.70940  0.88070  0.04410  Biso   1.000  C
  H132     1.0000 0.61080  0.93530  0.03410  Biso   1.000  H
  C235     1.0000 0.51120  0.88740  0.90200  Biso   1.000  C
  C236     1.0000 0.77940  0.88880  0.87630  Biso   1.000  C
  H133     1.0000 0.88410  0.93860  0.87530  Biso   1.000  H
  H134     1.0000 0.66160  0.85590  0.88200  Biso   1.000  H
  C237     1.0000 0.58060  0.27520  0.63850  Biso   1.000  C
  H135     1.0000 0.67270  0.22220  0.61690  Biso   1.000  H
  C238     1.0000 0.47250  0.34270  0.67870  Biso   1.000  C
  H136     1.0000 0.59120  0.34540  0.81590  Biso   1.000  H
  C239     1.0000 0.48720  0.37280  0.77330  Biso   1.000  C
  C240     1.0000 0.11140  0.54860  0.88030  Biso   1.000  C
  H137     1.0000 0.10770  0.54260  0.96160  Biso   1.000  H
  C241     1.0000 0.09520  0.55040  0.77500  Biso   1.000  C
  H138     1.0000 0.92190  0.44350  0.78140  Biso   1.000  H
  C242     1.0000 0.98970  0.49190  0.72950  Biso   1.000  C
  C243     1.0000 0.52060  0.56300  0.93880  Biso   1.000  C
  C244     1.0000 0.58740  0.59150  0.03130  Biso   1.000  C
  C245     1.0000 0.69700  0.53130  0.07150  Biso   1.000  C
  H139     1.0000 0.72660  0.46320  0.02570  Biso   1.000  H
  H140     1.0000 0.47140  0.53140  0.86840  Biso   1.000  H
  H141     1.0000 0.83490  0.21350  0.41080  Biso   1.000  H
  C246     1.0000 0.92880  0.25970  0.38590  Biso   1.000  C
  C247     1.0000 0.04350  0.31940  0.34200  Biso   1.000  C
  C248     1.0000 0.03560  0.33710  0.24320  Biso   1.000  C
  H142     1.0000 0.93450  0.30680  0.20370  Biso   1.000  H
  H143     1.0000 0.67960  0.84720  0.03570  Biso   1.000  H
  H144     1.0000 0.80590  0.85470  0.86660  Biso   1.000  H
  C249     1.0000 0.53910  0.27240  0.58150  Biso   1.000  C
  C250     1.0000 0.44600  0.37210  0.72230  Biso   1.000  C
  H145     1.0000 0.44260  0.34420  0.64480  Biso   1.000  H
  H146     1.0000 0.46410  0.39320  0.80280  Biso   1.000  H
  C251     1.0000 0.18270  0.59200  0.87940  Biso   1.000  C
  C252     1.0000 0.05280  0.53200  0.72690  Biso   1.000  C
  H147     1.0000 0.13780  0.57780  0.77250  Biso   1.000  H
  H148     1.0000 0.96270  0.47940  0.69670  Biso   1.000  H
  C253     1.0000 0.46920  0.61740  0.93290  Biso   1.000  C
  C254     1.0000 0.64440  0.57900  0.07360  Biso   1.000  C
  H149     1.0000 0.55320  0.62390  0.03400  Biso   1.000  H
  H150     1.0000 0.73590  0.52430  0.10030  Biso   1.000  H
  C255     1.0000 0.96740  0.26150  0.44430  Biso   1.000  C
  H151     1.0000 0.07170  0.32310  0.37640  Biso   1.000  H
  C256     1.0000 0.07800  0.34400  0.29610  Biso   1.000  C
  H152     1.0000 0.06010  0.35210  0.21130  Biso   1.000  H
  H153     1.0000 0.39670  0.39350  0.71810  Biso   1.000  H
  H154     1.0000 0.06750  0.54710  0.69240  Biso   1.000  H
  H155     1.0000 0.64790  0.60320  0.10450  Biso   1.000  H
  H156     1.0000 0.12800  0.36490  0.29920  Biso   1.000  H
  C257     1.0000 0.93120  0.92600  0.07810  Biso   1.000  C
  C258     1.0000 0.97410  0.97790  0.07350  Biso   1.000  C
  H157     1.0000 0.03260  0.97810  0.07050  Biso   1.000  H
  C259     1.0000 0.92960  0.02940  0.07330  Biso   1.000  C
  H158     1.0000 0.95830  0.06410  0.07020  Biso   1.000  H
  C260     1.0000 0.84210  0.02900  0.07780  Biso   1.000  C
  C261     1.0000 0.79920  0.97720  0.08240  Biso   1.000  C
  C262     1.0000 0.84380  0.92560  0.08260  Biso   1.000  C
  C263     1.0000 0.80090  0.87380  0.08720  Biso   1.000  C
  H159     1.0000 0.83070  0.83930  0.08730  Biso   1.000  H
  C264     1.0000 0.71350  0.87340  0.09170  Biso   1.000  C
  H160     1.0000 0.68480  0.83870  0.09480  Biso   1.000  H
  C265     1.0000 0.66890  0.92490  0.09160  Biso   1.000  C
  H161     1.0000 0.61040  0.92470  0.09450  Biso   1.000  H
  C266     1.0000 0.71180  0.97680  0.08690  Biso   1.000  C
  H162     1.0000 0.68200  0.01120  0.08680  Biso   1.000  H
  C267     1.0000 0.56840  0.93930  0.91310  Biso   1.000  C
  C268     1.0000 0.52570  0.99160  0.91120  Biso   1.000  C
  H163     1.0000 0.46730  0.99220  0.90620  Biso   1.000  H
  C269     1.0000 0.57030  0.04280  0.91700  Biso   1.000  C
  H164     1.0000 0.54180  0.07770  0.91580  Biso   1.000  H
  C270     1.0000 0.65760  0.04180  0.92460  Biso   1.000  C
  C271     1.0000 0.70030  0.98950  0.92640  Biso   1.000  C
  C272     1.0000 0.65570  0.93830  0.92060  Biso   1.000  C
  C273     1.0000 0.69840  0.88610  0.92250  Biso   1.000  C
  H165     1.0000 0.66850  0.85190  0.91860  Biso   1.000  H
  C274     1.0000 0.78570  0.88510  0.93010  Biso   1.000  C
  H166     1.0000 0.81430  0.85020  0.93130  Biso   1.000  H
  C275     1.0000 0.83030  0.93630  0.93580  Biso   1.000  C
  H167     1.0000 0.88870  0.93560  0.94090  Biso   1.000  H
  C276     1.0000 0.78760  0.98850  0.93400  Biso   1.000  C
  H168     1.0000 0.81750  0.02280  0.93780  Biso   1.000  H
  Yb22     1.0000 0.74839  0.71276  0.48956  Biso   1.000  Yb
  O97      1.0000 0.63130  0.68430  0.53630  Biso   1.000  O
  O98      1.0000 0.65700  0.79250  0.50570  Biso   1.000  O
  O99      1.0000 0.76100  0.74390  0.58110  Biso   1.000  O
  O100     1.0000 0.73250  0.73380  0.39600  Biso   1.000  O
  O101     1.0000 0.86260  0.67760  0.44300  Biso   1.000  O
  O102     1.0000 0.84030  0.78730  0.46320  Biso   1.000  O
  O103     1.0000 0.68330  0.62610  0.45300  Biso   1.000  O
  O104     1.0000 0.81530  0.63330  0.53640  Biso   1.000  O
  Yb23     1.0000 0.65837  0.68477  0.63308  Biso   1.000  Yb
  Yb24     1.0000 0.52627  0.75090  0.52218  Biso   1.000  Yb
  H169     1.0000 0.61270  0.64620  0.52380  Biso   1.000  H
  Yb25     1.0000 0.69897  0.83292  0.59086  Biso   1.000  Yb
  H170     1.0000 0.65550  0.82030  0.47480  Biso   1.000  H
  H171     1.0000 0.81880  0.74190  0.59640  Biso   1.000  H
  Yb26     1.0000 0.83102  0.66724  0.34953  Biso   1.000  Yb
  Yb27     1.0000 0.80024  0.82126  0.37509  Biso   1.000  Yb
  H172     1.0000 0.67410  0.73130  0.38180  Biso   1.000  H
  Yb28     1.0000 0.96979  0.74282  0.44809  Biso   1.000  Yb
  H173     1.0000 0.88080  0.64080  0.45920  Biso   1.000  H
  H174     1.0000 0.84430  0.81800  0.49120  Biso   1.000  H
  C277     1.0000 0.69780  0.58860  0.41540  Biso   1.000  C
  C278     1.0000 0.79720  0.60040  0.57470  Biso   1.000  C
  O105     1.0000 0.59100  0.76880  0.60850  Biso   1.000  O
  O106     1.0000 0.54220  0.62960  0.62210  Biso   1.000  O
  O107     1.0000 0.73470  0.73060  0.69780  Biso   1.000  O
  O108     1.0000 0.74430  0.61210  0.61350  Biso   1.000  O
  O109     1.0000 0.46240  0.66950  0.55590  Biso   1.000  O
  O110     1.0000 0.53870  0.72420  0.42650  Biso   1.000  O
  O111     1.0000 0.41230  0.73790  0.45890  Biso   1.000  O
  O112     1.0000 0.76680  0.82070  0.67610  Biso   1.000  O
  O113     1.0000 0.59960  0.90220  0.55970  Biso   1.000  O
  O114     1.0000 0.60190  0.88380  0.64850  Biso   1.000  O
  O115     1.0000 0.81340  0.87480  0.54370  Biso   1.000  O
  O116     1.0000 0.76710  0.92220  0.61310  Biso   1.000  O
  O117     1.0000 0.90260  0.75170  0.36190  Biso   1.000  O
  O118     1.0000 0.74770  0.70590  0.28140  Biso   1.000  O
  O119     1.0000 0.94700  0.60960  0.36840  Biso   1.000  O
  O120     1.0000 0.74360  0.59770  0.37390  Biso   1.000  O
  O121     1.0000 0.71890  0.79780  0.29810  Biso   1.000  O
  O122     1.0000 0.68230  0.86620  0.41360  Biso   1.000  O
  O123     1.0000 0.73930  0.91140  0.34510  Biso   1.000  O
  O124     1.0000 0.90210  0.88310  0.40390  Biso   1.000  O
  O125     1.0000 0.03240  0.65530  0.42980  Biso   1.000  O
  O126     1.0000 0.99960  0.83730  0.45170  Biso   1.000  O
  O127     1.0000 0.08110  0.74440  0.51550  Biso   1.000  O
  O128     1.0000 0.95490  0.73140  0.54650  Biso   1.000  O
  C279     1.0000 0.65710  0.53070  0.41800  Biso   1.000  C
  C280     1.0000 0.83930  0.54200  0.58020  Biso   1.000  C
  H175     1.0000 0.55180  0.78240  0.63680  Biso   1.000  H
  C281     1.0000 0.77270  0.77670  0.70610  Biso   1.000  C
  C282     1.0000 0.57580  0.91400  0.60830  Biso   1.000  C
  C283     1.0000 0.81880  0.91700  0.57170  Biso   1.000  C
  H176     1.0000 0.94110  0.76060  0.33140  Biso   1.000  H
  C284     1.0000 0.70940  0.75480  0.27100  Biso   1.000  C
  C285     1.0000 0.57130  0.52790  0.40440  Biso   1.000  C
  C286     1.0000 0.70160  0.48070  0.43060  Biso   1.000  C
  C287     1.0000 0.92580  0.54280  0.57090  Biso   1.000  C
  C288     1.0000 0.79980  0.49100  0.59470  Biso   1.000  C
  C289     1.0000 0.82950  0.77720  0.75780  Biso   1.000  C
  C290     1.0000 0.51200  0.96240  0.61570  Biso   1.000  C
  C291     1.0000 0.87440  0.96720  0.56440  Biso   1.000  C
  C292     1.0000 0.65310  0.75460  0.21740  Biso   1.000  C
  C293     1.0000 0.53010  0.47520  0.40350  Biso   1.000  C
  H177     1.0000 0.54150  0.56140  0.39600  Biso   1.000  H
  C294     1.0000 0.66040  0.42790  0.42970  Biso   1.000  C
  C295     1.0000 0.78730  0.48340  0.44420  Biso   1.000  C
  C296     1.0000 0.97260  0.49250  0.57620  Biso   1.000  C
  H178     1.0000 0.95230  0.57700  0.56120  Biso   1.000  H
  C297     1.0000 0.71330  0.49020  0.60400  Biso   1.000  C
  C298     1.0000 0.84660  0.44060  0.59990  Biso   1.000  C
  C299     1.0000 0.80320  0.74370  0.80220  Biso   1.000  C
  C300     1.0000 0.90520  0.81100  0.76420  Biso   1.000  C
  C301     1.0000 0.47230  0.98360  0.56860  Biso   1.000  C
  C302     1.0000 0.49380  0.98630  0.66750  Biso   1.000  C
  C303     1.0000 0.86730  0.00390  0.51770  Biso   1.000  C
  C304     1.0000 0.93240  0.97700  0.60550  Biso   1.000  C
  C305     1.0000 0.68650  0.72800  0.17190  Biso   1.000  C
  C306     1.0000 0.57710  0.78440  0.21290  Biso   1.000  C
  H179     1.0000 0.47280  0.47330  0.39440  Biso   1.000  H
  C307     1.0000 0.57470  0.42510  0.41610  Biso   1.000  C
  C308     1.0000 0.70490  0.37790  0.44230  Biso   1.000  C
  C309     1.0000 0.83190  0.43340  0.45680  Biso   1.000  C
  H180     1.0000 0.81490  0.51880  0.44480  Biso   1.000  H
  H181     1.0000 0.03050  0.49300  0.57000  Biso   1.000  H
  C310     1.0000 0.93300  0.44140  0.59070  Biso   1.000  C
  C311     1.0000 0.67370  0.43910  0.61850  Biso   1.000  C
  H182     1.0000 0.68200  0.52390  0.60040  Biso   1.000  H
  C312     1.0000 0.80700  0.38960  0.61440  Biso   1.000  C
  C313     1.0000 0.84760  0.74400  0.85360  Biso   1.000  C
  H183     1.0000 0.75550  0.72080  0.79780  Biso   1.000  H
  C314     1.0000 0.95130  0.80830  0.81580  Biso   1.000  C
  C315     1.0000 0.93770  0.84380  0.71840  Biso   1.000  C
  C316     1.0000 0.41430  0.02730  0.57160  Biso   1.000  C
  H184     1.0000 0.48490  0.96810  0.53390  Biso   1.000  H
  C317     1.0000 0.42650  0.02750  0.67170  Biso   1.000  C
  C318     1.0000 0.53410  0.97000  0.71940  Biso   1.000  C
  C319     1.0000 0.91990  0.05460  0.51750  Biso   1.000  C
  C320     1.0000 0.80900  0.99500  0.47320  Biso   1.000  C
  C321     1.0000 0.98760  0.02580  0.60360  Biso   1.000  C
  H185     1.0000 0.93660  0.95170  0.63560  Biso   1.000  H
  H186     1.0000 0.73720  0.70790  0.17510  Biso   1.000  H
  C322     1.0000 0.64250  0.73170  0.12020  Biso   1.000  C
  C323     1.0000 0.53460  0.78790  0.16030  Biso   1.000  C
  C324     1.0000 0.53850  0.80970  0.26140  Biso   1.000  C
  C325     1.0000 0.51880  0.37190  0.41310  Biso   1.000  C
  H187     1.0000 0.67730  0.34260  0.44170  Biso   1.000  H
  C326     1.0000 0.79060  0.38070  0.45590  Biso   1.000  C
  H188     1.0000 0.88920  0.43530  0.46590  Biso   1.000  H
  C327     1.0000 0.98880  0.38740  0.59800  Biso   1.000  C
  C328     1.0000 0.72060  0.38880  0.62370  Biso   1.000  C
  H189     1.0000 0.61590  0.43860  0.62470  Biso   1.000  H
  H190     1.0000 0.83840  0.35590  0.61800  Biso   1.000  H
  C329     1.0000 0.91940  0.77520  0.86150  Biso   1.000  C
  H191     1.0000 0.82730  0.72220  0.88310  Biso   1.000  H
  C330     1.0000 0.02750  0.84270  0.82130  Biso   1.000  C
  H192     1.0000 0.90880  0.84540  0.68410  Biso   1.000  H
  C331     1.0000 0.01280  0.87280  0.72670  Biso   1.000  C
  C332     1.0000 0.38860  0.04860  0.61970  Biso   1.000  C
  H193     1.0000 0.39230  0.04260  0.53840  Biso   1.000  H
  C333     1.0000 0.40480  0.05040  0.72500  Biso   1.000  C
  H194     1.0000 0.57810  0.94350  0.71860  Biso   1.000  H
  C334     1.0000 0.51030  0.99190  0.77050  Biso   1.000  C
  C335     1.0000 0.97940  0.06300  0.56120  Biso   1.000  C
  C336     1.0000 0.91260  0.09150  0.46870  Biso   1.000  C
  C337     1.0000 0.80300  0.03130  0.42850  Biso   1.000  C
  H195     1.0000 0.77340  0.96320  0.47430  Biso   1.000  H
  H196     1.0000 0.02860  0.03140  0.63160  Biso   1.000  H
  H197     1.0000 0.66510  0.71350  0.08920  Biso   1.000  H
  C338     1.0000 0.57120  0.75970  0.11410  Biso   1.000  C
  C339     1.0000 0.45650  0.81940  0.15800  Biso   1.000  C
  C340     1.0000 0.46440  0.83710  0.25680  Biso   1.000  C
  H198     1.0000 0.56550  0.80680  0.29630  Biso   1.000  H
  H199     1.0000 0.82040  0.34720  0.46430  Biso   1.000  H
  H200     1.0000 0.69410  0.35470  0.63340  Biso   1.000  H
  C341     1.0000 0.96090  0.77240  0.91850  Biso   1.000  C
  C342     1.0000 0.05400  0.87210  0.77770  Biso   1.000  C
  H201     1.0000 0.05740  0.84420  0.85520  Biso   1.000  H
  H202     1.0000 0.03590  0.89320  0.69720  Biso   1.000  H
  C343     1.0000 0.31730  0.09200  0.62060  Biso   1.000  C
  C344     1.0000 0.44720  0.03200  0.77310  Biso   1.000  C
  H203     1.0000 0.36220  0.07780  0.72750  Biso   1.000  H
  H204     1.0000 0.53730  0.97940  0.80330  Biso   1.000  H
  C345     1.0000 0.03080  0.11740  0.56710  Biso   1.000  C
  C346     1.0000 0.85560  0.07900  0.42640  Biso   1.000  C
  H205     1.0000 0.94680  0.12390  0.46600  Biso   1.000  H
  H206     1.0000 0.76410  0.02430  0.39970  Biso   1.000  H
  C347     1.0000 0.53260  0.76150  0.05570  Biso   1.000  C
  H207     1.0000 0.42830  0.82310  0.12360  Biso   1.000  H
  C348     1.0000 0.42200  0.84400  0.20390  Biso   1.000  C
  H208     1.0000 0.43990  0.85210  0.28870  Biso   1.000  H
  H209     1.0000 0.10330  0.89350  0.78190  Biso   1.000  H
  H210     1.0000 0.43250  0.04710  0.80760  Biso   1.000  H
  H211     1.0000 0.85210  0.10320  0.39550  Biso   1.000  H
  H212     1.0000 0.37200  0.86490  0.20080  Biso   1.000  H
  C349     1.0000 0.56880  0.42600  0.42190  Biso   1.000  C
  C350     1.0000 0.52590  0.47790  0.42650  Biso   1.000  C
  H213     1.0000 0.46740  0.47810  0.42950  Biso   1.000  H
  C351     1.0000 0.57040  0.52940  0.42670  Biso   1.000  C
  H214     1.0000 0.54170  0.56410  0.42980  Biso   1.000  H
  C352     1.0000 0.65790  0.52900  0.42220  Biso   1.000  C
  C353     1.0000 0.70080  0.47720  0.41760  Biso   1.000  C
  C354     1.0000 0.65620  0.42560  0.41740  Biso   1.000  C
  C355     1.0000 0.69910  0.37380  0.41280  Biso   1.000  C
  H215     1.0000 0.66930  0.33930  0.41270  Biso   1.000  H
  C356     1.0000 0.78650  0.37340  0.40830  Biso   1.000  C
  H216     1.0000 0.81520  0.33870  0.40520  Biso   1.000  H
  C357     1.0000 0.83110  0.42490  0.40840  Biso   1.000  C
  H217     1.0000 0.88960  0.42470  0.40550  Biso   1.000  H
  C358     1.0000 0.78820  0.47680  0.41310  Biso   1.000  C
  H218     1.0000 0.81800  0.51120  0.41320  Biso   1.000  H
  C359     1.0000 0.93160  0.43930  0.58690  Biso   1.000  C
  C360     1.0000 0.97430  0.49160  0.58880  Biso   1.000  C
  H219     1.0000 0.03270  0.49220  0.59380  Biso   1.000  H
  C361     1.0000 0.92970  0.54280  0.58300  Biso   1.000  C
  H220     1.0000 0.95820  0.57770  0.58420  Biso   1.000  H
  C362     1.0000 0.84240  0.54180  0.57540  Biso   1.000  C
  C363     1.0000 0.79970  0.48950  0.57360  Biso   1.000  C
  C364     1.0000 0.84430  0.43830  0.57940  Biso   1.000  C
  C365     1.0000 0.80160  0.38610  0.57750  Biso   1.000  C
  H221     1.0000 0.83150  0.35190  0.58140  Biso   1.000  H
  C366     1.0000 0.71430  0.38510  0.56990  Biso   1.000  C
  H222     1.0000 0.68570  0.35020  0.56870  Biso   1.000  H
  C367     1.0000 0.66970  0.43630  0.56420  Biso   1.000  C
  H223     1.0000 0.61130  0.43560  0.55910  Biso   1.000  H
  C368     1.0000 0.71240  0.48850  0.56600  Biso   1.000  C
  H224     1.0000 0.68250  0.52280  0.56220  Biso   1.000  H
