data_EVOTIT_clean
_audit_creation_date              2015-05-20
_audit_creation_method            'Materials Studio'
_symmetry_space_group_name_H-M    'P1'
_symmetry_Int_Tables_number       1
_symmetry_cell_setting            triclinic
loop_
_symmetry_equiv_pos_as_xyz
  x,y,z
_cell_length_a                    31.2768
_cell_length_b                    31.2768
_cell_length_c                    31.2768
_cell_angle_alpha                 116.4835
_cell_angle_beta                  116.4835
_cell_angle_gamma                 116.4835
loop_
_atom_site_label
_atom_site_type_symbol
_atom_site_fract_x
_atom_site_fract_y
_atom_site_fract_z
_atom_site_U_iso_or_equiv
_atom_site_adp_type
_atom_site_occupancy
Zn1    Zn    0.49284   0.16650   0.49133   0.01267  Uiso   1.00
Zn2    Zn    0.26281   0.91234   0.20272   0.01267  Uiso   1.00
H3     H     0.17300   0.74970   0.09400   0.01267  Uiso   1.00
H4     H     0.17400   0.67640   0.09670   0.01267  Uiso   1.00
H5     H     0.36820   0.94710   0.32870   0.01267  Uiso   1.00
H6     H     0.37230   0.87990   0.33900   0.01267  Uiso   1.00
H7     H     0.59860   0.32630   0.46190   0.01267  Uiso   1.00
H8     H     0.68850   0.28690   0.58390   0.01267  Uiso   1.00
H9     H     0.45320   0.18050   0.33760   0.01267  Uiso   1.00
H10    H     0.41290   0.91540   0.48130   0.01267  Uiso   1.00
H11    H     0.36210   0.16750   0.53710   0.01267  Uiso   1.00
H12    H     0.46190   0.21000   0.56910   0.01267  Uiso   1.00
H13    H     0.22060   0.02450   0.31280   0.01267  Uiso   1.00
H14    H     0.32310   0.06150   0.34670   0.01267  Uiso   1.00
C15    C     0.65174   0.33966   0.62940   0.01267  Uiso   1.00
C16    C     0.21387   0.77620   0.14453   0.01267  Uiso   1.00
C17    C     0.27622   0.77218   0.22030   0.01267  Uiso   1.00
C18    C     0.42304   0.08687   0.34589   0.01267  Uiso   1.00
C19    C     0.42133   0.08350   0.29607   0.01267  Uiso   1.00
C20    C     0.65063   0.32654   0.57703   0.01267  Uiso   1.00
C21    C     0.28267   0.09881   0.42332   0.01267  Uiso   1.00
C22    C     0.21433   0.73195   0.14542   0.01267  Uiso   1.00
C23    C     0.32693   0.89092   0.28095   0.01267  Uiso   1.00
C24    C     0.33081   0.85138   0.28721   0.01267  Uiso   1.00
C25    C     0.49520   0.08790   0.50130   0.01267  Uiso   1.00
C26    C     0.63760   0.29080   0.46770   0.01267  Uiso   1.00
C27    C     0.61860   0.31900   0.48700   0.01267  Uiso   1.00
C28    C     0.62740   0.33810   0.54190   0.01267  Uiso   1.00
C29    C     0.67170   0.29710   0.56110   0.01267  Uiso   1.00
C30    C     0.62530   0.27370   0.40350   0.01267  Uiso   1.00
C31    C     0.66560   0.28410   0.50850   0.01267  Uiso   1.00
C32    C     0.42520   0.12950   0.29510   0.01267  Uiso   1.00
C33    C     0.41260   0.03350   0.24770   0.01267  Uiso   1.00
C34    C     0.50560   0.04840   0.50370   0.01267  Uiso   1.00
C35    C     0.45940   0.00580   0.49770   0.01267  Uiso   1.00
C36    C     0.44960   0.94970   0.49010   0.01267  Uiso   1.00
C37    C     0.35390   0.14810   0.49690   0.01267  Uiso   1.00
C38    C     0.41130   0.16970   0.51450   0.01267  Uiso   1.00
C39    C     0.27130   0.06430   0.36720   0.01267  Uiso   1.00
C40    C     0.33230   0.08590   0.38750   0.01267  Uiso   1.00
N41    N     0.26813   0.85361   0.21116   0.01267  Uiso   1.00
N42    N     0.40518   0.14098   0.46384   0.01267  Uiso   1.00
O43    O     0.68160   0.24350   0.49020   0.01267  Uiso   1.00
O44    O     0.41760   0.00660   0.50540   0.01267  Uiso   1.00
O45    O     0.36976   0.02322   0.31612   0.01267  Uiso   1.00
O46    O     0.71468   0.40857   0.70335   0.01267  Uiso   1.00
O47    O     0.59250   0.28211   0.60099   0.01267  Uiso   1.00
O48    O     0.47967   0.15628   0.41845   0.01267  Uiso   1.00
O49    O     0.47368   0.10662   0.51190   0.01267  Uiso   1.00
O50    O     0.59568   0.27535   0.37417   0.01267  Uiso   1.00
O51    O     0.64520   0.25570   0.39380   0.01267  Uiso   1.00
O52    O     0.40907   0.98993   0.25280   0.01267  Uiso   1.00
O53    O     0.52247   0.11700   0.49293   0.01267  Uiso   1.00
O54    O     0.59380   0.35510   0.55010   0.01267  Uiso   1.00
C55    C     0.45829   0.69471   0.47427   0.00000  Uiso   1.00
H56    H     0.44292   0.67198   0.42298   0.00000  Uiso   1.00
C57    C     0.51283   0.71729   0.51984   0.00000  Uiso   1.00
H58    H     0.47261   0.74603   0.50501   0.00000  Uiso   1.00
O59    O     0.51149   0.67918   0.48711   0.00000  Uiso   1.00
H60    H     0.51127   0.71246   0.55329   0.00000  Uiso   1.00
H61    H     0.57026   0.78280   0.56468   0.00000  Uiso   1.00
C62    C     0.55800   0.71445   0.49817   0.00000  Uiso   1.00
H63    H     0.52969   0.67728   0.43837   0.00000  Uiso   1.00
H64    H     0.60833   0.73002   0.53828   0.00000  Uiso   1.00
H65    H     0.58372   0.77226   0.52921   0.00000  Uiso   1.00
C66    C     0.36169   0.81274   0.53511   0.00000  Uiso   1.00
H67    H     0.34778   0.79713   0.48647   0.00000  Uiso   1.00
H68    H     0.42554   0.85125   0.58746   0.00000  Uiso   1.00
C69    C     0.35620   0.84760   0.55739   0.00000  Uiso   1.00
H70    H     0.36703   0.86048   0.60376   0.00000  Uiso   1.00
O71    O     0.29328   0.81034   0.50447   0.00000  Uiso   1.00
H72    H     0.40280   0.90683   0.58621   0.00000  Uiso   1.00
C73    C     0.29572   0.85114   0.51670   0.00000  Uiso   1.00
H74    H     0.31236   0.88489   0.56948   0.00000  Uiso   1.00
H75    H     0.23436   0.81428   0.46106   0.00000  Uiso   1.00
H76    H     0.34293   0.89614   0.53213   0.00000  Uiso   1.00
C77    C     0.55223   0.43605   0.01716   0.00000  Uiso   1.00
H78    H     0.52262   0.39165   0.95691   0.00000  Uiso   1.00
C79    C     0.58523   0.43659   0.05399   0.00000  Uiso   1.00
H80    H     0.59694   0.49887   0.05142   0.00000  Uiso   1.00
H81    H     0.54558   0.37215   0.01369   0.00000  Uiso   1.00
H82    H     0.59943   0.46635   0.10526   0.00000  Uiso   1.00
O83    O     0.64367   0.47180   0.07985   0.00000  Uiso   1.00
C84    C     0.68113   0.53377   0.11697   0.00000  Uiso   1.00
H85    H     0.70991   0.57063   0.17697   0.00000  Uiso   1.00
H86    H     0.64169   0.53121   0.08383   0.00000  Uiso   1.00
H87    H     0.73026   0.56312   0.12821   0.00000  Uiso   1.00
Zn88   Zn    0.49133   0.49284   0.16650   0.01267  Uiso   1.00
Zn89   Zn    0.20272   0.26281   0.91234   0.01267  Uiso   1.00
H90    H     0.09400   0.17300   0.74970   0.01267  Uiso   1.00
H91    H     0.09670   0.17400   0.67640   0.01267  Uiso   1.00
H92    H     0.32870   0.36820   0.94710   0.01267  Uiso   1.00
H93    H     0.33900   0.37230   0.87990   0.01267  Uiso   1.00
H94    H     0.46190   0.59860   0.32630   0.01267  Uiso   1.00
H95    H     0.58390   0.68850   0.28690   0.01267  Uiso   1.00
H96    H     0.33760   0.45320   0.18050   0.01267  Uiso   1.00
H97    H     0.48130   0.41290   0.91540   0.01267  Uiso   1.00
H98    H     0.53710   0.36210   0.16750   0.01267  Uiso   1.00
H99    H     0.56910   0.46190   0.21000   0.01267  Uiso   1.00
H100   H     0.31280   0.22060   0.02450   0.01267  Uiso   1.00
H101   H     0.34670   0.32310   0.06150   0.01267  Uiso   1.00
C102   C     0.62940   0.65174   0.33966   0.01267  Uiso   1.00
C103   C     0.14453   0.21387   0.77620   0.01267  Uiso   1.00
C104   C     0.22030   0.27622   0.77218   0.01267  Uiso   1.00
C105   C     0.34589   0.42304   0.08687   0.01267  Uiso   1.00
C106   C     0.29607   0.42133   0.08350   0.01267  Uiso   1.00
C107   C     0.57703   0.65063   0.32654   0.01267  Uiso   1.00
C108   C     0.42332   0.28267   0.09881   0.01267  Uiso   1.00
C109   C     0.14542   0.21433   0.73195   0.01267  Uiso   1.00
C110   C     0.28095   0.32693   0.89092   0.01267  Uiso   1.00
C111   C     0.28721   0.33081   0.85138   0.01267  Uiso   1.00
C112   C     0.50130   0.49520   0.08790   0.01267  Uiso   1.00
C113   C     0.46770   0.63760   0.29080   0.01267  Uiso   1.00
C114   C     0.48700   0.61860   0.31900   0.01267  Uiso   1.00
C115   C     0.54190   0.62740   0.33810   0.01267  Uiso   1.00
C116   C     0.56110   0.67170   0.29710   0.01267  Uiso   1.00
C117   C     0.40350   0.62530   0.27370   0.01267  Uiso   1.00
C118   C     0.50850   0.66560   0.28410   0.01267  Uiso   1.00
C119   C     0.29510   0.42520   0.12950   0.01267  Uiso   1.00
C120   C     0.24770   0.41260   0.03350   0.01267  Uiso   1.00
C121   C     0.50370   0.50560   0.04840   0.01267  Uiso   1.00
C122   C     0.49770   0.45940   0.00580   0.01267  Uiso   1.00
C123   C     0.49010   0.44960   0.94970   0.01267  Uiso   1.00
C124   C     0.49690   0.35390   0.14810   0.01267  Uiso   1.00
C125   C     0.51450   0.41130   0.16970   0.01267  Uiso   1.00
C126   C     0.36720   0.27130   0.06430   0.01267  Uiso   1.00
C127   C     0.38750   0.33230   0.08590   0.01267  Uiso   1.00
N128   N     0.21116   0.26813   0.85361   0.01267  Uiso   1.00
N129   N     0.46384   0.40518   0.14098   0.01267  Uiso   1.00
O130   O     0.49020   0.68160   0.24350   0.01267  Uiso   1.00
O131   O     0.50540   0.41760   0.00660   0.01267  Uiso   1.00
O132   O     0.31612   0.36976   0.02322   0.01267  Uiso   1.00
O133   O     0.70335   0.71468   0.40857   0.01267  Uiso   1.00
O134   O     0.60099   0.59250   0.28211   0.01267  Uiso   1.00
O135   O     0.41845   0.47967   0.15628   0.01267  Uiso   1.00
O136   O     0.51190   0.47368   0.10662   0.01267  Uiso   1.00
O137   O     0.37417   0.59568   0.27535   0.01267  Uiso   1.00
O138   O     0.39380   0.64520   0.25570   0.01267  Uiso   1.00
O139   O     0.25280   0.40907   0.98993   0.01267  Uiso   1.00
O140   O     0.49293   0.52247   0.11700   0.01267  Uiso   1.00
O141   O     0.55010   0.59380   0.35510   0.01267  Uiso   1.00
C142   C     0.47427   0.45829   0.69471   0.00000  Uiso   1.00
H143   H     0.42298   0.44292   0.67198   0.00000  Uiso   1.00
C144   C     0.51984   0.51283   0.71729   0.00000  Uiso   1.00
H145   H     0.50501   0.47261   0.74603   0.00000  Uiso   1.00
O146   O     0.48711   0.51149   0.67918   0.00000  Uiso   1.00
H147   H     0.55329   0.51127   0.71246   0.00000  Uiso   1.00
H148   H     0.56468   0.57026   0.78280   0.00000  Uiso   1.00
C149   C     0.49817   0.55800   0.71445   0.00000  Uiso   1.00
H150   H     0.43837   0.52969   0.67728   0.00000  Uiso   1.00
H151   H     0.53828   0.60833   0.73002   0.00000  Uiso   1.00
H152   H     0.52921   0.58372   0.77226   0.00000  Uiso   1.00
C153   C     0.53511   0.36169   0.81274   0.00000  Uiso   1.00
H154   H     0.48647   0.34778   0.79713   0.00000  Uiso   1.00
H155   H     0.58746   0.42554   0.85125   0.00000  Uiso   1.00
C156   C     0.55739   0.35620   0.84760   0.00000  Uiso   1.00
H157   H     0.60376   0.36703   0.86048   0.00000  Uiso   1.00
O158   O     0.50447   0.29328   0.81034   0.00000  Uiso   1.00
H159   H     0.58621   0.40280   0.90683   0.00000  Uiso   1.00
C160   C     0.51670   0.29572   0.85114   0.00000  Uiso   1.00
H161   H     0.56948   0.31236   0.88489   0.00000  Uiso   1.00
H162   H     0.46106   0.23436   0.81428   0.00000  Uiso   1.00
H163   H     0.53213   0.34293   0.89614   0.00000  Uiso   1.00
C164   C     0.01716   0.55223   0.43605   0.00000  Uiso   1.00
H165   H     0.95691   0.52262   0.39165   0.00000  Uiso   1.00
C166   C     0.05399   0.58523   0.43659   0.00000  Uiso   1.00
H167   H     0.05142   0.59694   0.49887   0.00000  Uiso   1.00
H168   H     0.01369   0.54558   0.37215   0.00000  Uiso   1.00
H169   H     0.10526   0.59943   0.46635   0.00000  Uiso   1.00
O170   O     0.07985   0.64367   0.47180   0.00000  Uiso   1.00
C171   C     0.11697   0.68113   0.53377   0.00000  Uiso   1.00
H172   H     0.17697   0.70991   0.57063   0.00000  Uiso   1.00
H173   H     0.08383   0.64169   0.53121   0.00000  Uiso   1.00
H174   H     0.12821   0.73026   0.56312   0.00000  Uiso   1.00
Zn175  Zn    0.16650   0.49133   0.49284   0.01267  Uiso   1.00
Zn176  Zn    0.91234   0.20272   0.26281   0.01267  Uiso   1.00
H177   H     0.74970   0.09400   0.17300   0.01267  Uiso   1.00
H178   H     0.67640   0.09670   0.17400   0.01267  Uiso   1.00
H179   H     0.94710   0.32870   0.36820   0.01267  Uiso   1.00
H180   H     0.87990   0.33900   0.37230   0.01267  Uiso   1.00
H181   H     0.32630   0.46190   0.59860   0.01267  Uiso   1.00
H182   H     0.28690   0.58390   0.68850   0.01267  Uiso   1.00
H183   H     0.18050   0.33760   0.45320   0.01267  Uiso   1.00
H184   H     0.91540   0.48130   0.41290   0.01267  Uiso   1.00
H185   H     0.16750   0.53710   0.36210   0.01267  Uiso   1.00
H186   H     0.21000   0.56910   0.46190   0.01267  Uiso   1.00
H187   H     0.02450   0.31280   0.22060   0.01267  Uiso   1.00
H188   H     0.06150   0.34670   0.32310   0.01267  Uiso   1.00
C189   C     0.33966   0.62940   0.65174   0.01267  Uiso   1.00
C190   C     0.77620   0.14453   0.21387   0.01267  Uiso   1.00
C191   C     0.77218   0.22030   0.27622   0.01267  Uiso   1.00
C192   C     0.08687   0.34589   0.42304   0.01267  Uiso   1.00
C193   C     0.08350   0.29607   0.42133   0.01267  Uiso   1.00
C194   C     0.32654   0.57703   0.65063   0.01267  Uiso   1.00
C195   C     0.09881   0.42332   0.28267   0.01267  Uiso   1.00
C196   C     0.73195   0.14542   0.21433   0.01267  Uiso   1.00
C197   C     0.89092   0.28095   0.32693   0.01267  Uiso   1.00
C198   C     0.85138   0.28721   0.33081   0.01267  Uiso   1.00
C199   C     0.08790   0.50130   0.49520   0.01267  Uiso   1.00
C200   C     0.29080   0.46770   0.63760   0.01267  Uiso   1.00
C201   C     0.31900   0.48700   0.61860   0.01267  Uiso   1.00
C202   C     0.33810   0.54190   0.62740   0.01267  Uiso   1.00
C203   C     0.29710   0.56110   0.67170   0.01267  Uiso   1.00
C204   C     0.27370   0.40350   0.62530   0.01267  Uiso   1.00
C205   C     0.28410   0.50850   0.66560   0.01267  Uiso   1.00
C206   C     0.12950   0.29510   0.42520   0.01267  Uiso   1.00
C207   C     0.03350   0.24770   0.41260   0.01267  Uiso   1.00
C208   C     0.04840   0.50370   0.50560   0.01267  Uiso   1.00
C209   C     0.00580   0.49770   0.45940   0.01267  Uiso   1.00
C210   C     0.94970   0.49010   0.44960   0.01267  Uiso   1.00
C211   C     0.14810   0.49690   0.35390   0.01267  Uiso   1.00
C212   C     0.16970   0.51450   0.41130   0.01267  Uiso   1.00
C213   C     0.06430   0.36720   0.27130   0.01267  Uiso   1.00
C214   C     0.08590   0.38750   0.33230   0.01267  Uiso   1.00
N215   N     0.85361   0.21116   0.26813   0.01267  Uiso   1.00
N216   N     0.14098   0.46384   0.40518   0.01267  Uiso   1.00
O217   O     0.24350   0.49020   0.68160   0.01267  Uiso   1.00
O218   O     0.00660   0.50540   0.41760   0.01267  Uiso   1.00
O219   O     0.02322   0.31612   0.36976   0.01267  Uiso   1.00
O220   O     0.40857   0.70335   0.71468   0.01267  Uiso   1.00
O221   O     0.28211   0.60099   0.59250   0.01267  Uiso   1.00
O222   O     0.15628   0.41845   0.47967   0.01267  Uiso   1.00
O223   O     0.10662   0.51190   0.47368   0.01267  Uiso   1.00
O224   O     0.27535   0.37417   0.59568   0.01267  Uiso   1.00
O225   O     0.25570   0.39380   0.64520   0.01267  Uiso   1.00
O226   O     0.98993   0.25280   0.40907   0.01267  Uiso   1.00
O227   O     0.11700   0.49293   0.52247   0.01267  Uiso   1.00
O228   O     0.35510   0.55010   0.59380   0.01267  Uiso   1.00
C229   C     0.69471   0.47427   0.45829   0.00000  Uiso   1.00
H230   H     0.67198   0.42298   0.44292   0.00000  Uiso   1.00
C231   C     0.71729   0.51984   0.51283   0.00000  Uiso   1.00
H232   H     0.74603   0.50501   0.47261   0.00000  Uiso   1.00
O233   O     0.67918   0.48711   0.51149   0.00000  Uiso   1.00
H234   H     0.71246   0.55329   0.51127   0.00000  Uiso   1.00
H235   H     0.78280   0.56468   0.57026   0.00000  Uiso   1.00
C236   C     0.71445   0.49817   0.55800   0.00000  Uiso   1.00
H237   H     0.67728   0.43837   0.52969   0.00000  Uiso   1.00
H238   H     0.73002   0.53828   0.60833   0.00000  Uiso   1.00
H239   H     0.77226   0.52921   0.58372   0.00000  Uiso   1.00
C240   C     0.81274   0.53511   0.36169   0.00000  Uiso   1.00
H241   H     0.79713   0.48647   0.34778   0.00000  Uiso   1.00
H242   H     0.85125   0.58746   0.42554   0.00000  Uiso   1.00
C243   C     0.84760   0.55739   0.35620   0.00000  Uiso   1.00
H244   H     0.86048   0.60376   0.36703   0.00000  Uiso   1.00
O245   O     0.81034   0.50447   0.29328   0.00000  Uiso   1.00
H246   H     0.90683   0.58621   0.40280   0.00000  Uiso   1.00
C247   C     0.85114   0.51670   0.29572   0.00000  Uiso   1.00
H248   H     0.88489   0.56948   0.31236   0.00000  Uiso   1.00
H249   H     0.81428   0.46106   0.23436   0.00000  Uiso   1.00
H250   H     0.89614   0.53213   0.34293   0.00000  Uiso   1.00
C251   C     0.43605   0.01716   0.55223   0.00000  Uiso   1.00
H252   H     0.39165   0.95691   0.52262   0.00000  Uiso   1.00
C253   C     0.43659   0.05399   0.58523   0.00000  Uiso   1.00
H254   H     0.49887   0.05142   0.59694   0.00000  Uiso   1.00
H255   H     0.37215   0.01369   0.54558   0.00000  Uiso   1.00
H256   H     0.46635   0.10526   0.59943   0.00000  Uiso   1.00
O257   O     0.47180   0.07985   0.64367   0.00000  Uiso   1.00
C258   C     0.53377   0.11697   0.68113   0.00000  Uiso   1.00
H259   H     0.57063   0.17697   0.70991   0.00000  Uiso   1.00
H260   H     0.53121   0.08383   0.64169   0.00000  Uiso   1.00
H261   H     0.56312   0.12821   0.73026   0.00000  Uiso   1.00
Zn262  Zn    0.33350   0.00716   0.00867   0.01267  Uiso   1.00
Zn263  Zn    0.58766   0.23719   0.29728   0.01267  Uiso   1.00
H264   H     0.75030   0.32700   0.40600   0.01267  Uiso   1.00
H265   H     0.82360   0.32600   0.40330   0.01267  Uiso   1.00
H266   H     0.55290   0.13180   0.17130   0.01267  Uiso   1.00
H267   H     0.62010   0.12770   0.16100   0.01267  Uiso   1.00
H268   H     0.17370   0.90140   0.03810   0.01267  Uiso   1.00
H269   H     0.21310   0.81150   0.91610   0.01267  Uiso   1.00
O270   O     0.31950   0.04680   0.16240   0.01267  Uiso   1.00
H271   H     0.58460   0.08710   0.01870   0.01267  Uiso   1.00
H272   H     0.33250   0.13790   0.96290   0.01267  Uiso   1.00
H273   H     0.29000   0.03810   0.93090   0.01267  Uiso   1.00
H274   H     0.47550   0.27940   0.18720   0.01267  Uiso   1.00
H275   H     0.43850   0.17690   0.15330   0.01267  Uiso   1.00
C276   C     0.16034   0.84826   0.87060   0.01267  Uiso   1.00
C277   C     0.72380   0.28613   0.35547   0.01267  Uiso   1.00
C278   C     0.72782   0.22378   0.27970   0.01267  Uiso   1.00
C279   C     0.41313   0.07696   0.15411   0.01267  Uiso   1.00
C280   C     0.41650   0.07867   0.20393   0.01267  Uiso   1.00
C281   C     0.17346   0.84937   0.92297   0.01267  Uiso   1.00
C282   C     0.40119   0.21733   0.07668   0.01267  Uiso   1.00
C283   C     0.76805   0.28567   0.35458   0.01267  Uiso   1.00
C284   C     0.60908   0.17307   0.21905   0.01267  Uiso   1.00
C285   C     0.64862   0.16919   0.21279   0.01267  Uiso   1.00
C286   C     0.41210   0.00480   0.99870   0.01267  Uiso   1.00
C287   C     0.20920   0.86240   0.03230   0.01267  Uiso   1.00
C288   C     0.18100   0.88140   0.01300   0.01267  Uiso   1.00
C289   C     0.16190   0.87260   0.95810   0.01267  Uiso   1.00
C290   C     0.20290   0.82830   0.93890   0.01267  Uiso   1.00
C291   C     0.22630   0.87470   0.09650   0.01267  Uiso   1.00
C292   C     0.21590   0.83440   0.99150   0.01267  Uiso   1.00
C293   C     0.37050   0.07480   0.20490   0.01267  Uiso   1.00
C294   C     0.46650   0.08740   0.25230   0.01267  Uiso   1.00
C295   C     0.45160   0.99440   0.99630   0.01267  Uiso   1.00
C296   C     0.49420   0.04060   0.00230   0.01267  Uiso   1.00
C297   C     0.55030   0.05040   0.00990   0.01267  Uiso   1.00
C298   C     0.35190   0.14610   0.00310   0.01267  Uiso   1.00
C299   C     0.33030   0.08870   0.98550   0.01267  Uiso   1.00
C300   C     0.43570   0.22870   0.13280   0.01267  Uiso   1.00
C301   C     0.41410   0.16770   0.11250   0.01267  Uiso   1.00
N302   N     0.64639   0.23187   0.28884   0.01267  Uiso   1.00
N303   N     0.35902   0.09482   0.03616   0.01267  Uiso   1.00
O304   O     0.25650   0.81840   0.00980   0.01267  Uiso   1.00
O305   O     0.49340   0.08240   0.99460   0.01267  Uiso   1.00
O306   O     0.47678   0.13024   0.18388   0.01267  Uiso   1.00
O307   O     0.09143   0.78532   0.79665   0.01267  Uiso   1.00
O308   O     0.21789   0.90750   0.89901   0.01267  Uiso   1.00
O309   O     0.34372   0.02033   0.08155   0.01267  Uiso   1.00
O310   O     0.39338   0.02632   0.98810   0.01267  Uiso   1.00
O311   O     0.22465   0.90432   0.12583   0.01267  Uiso   1.00
O312   O     0.24430   0.85480   0.10620   0.01267  Uiso   1.00
H313   H     0.51007   0.09093   0.24720   0.01267  Uiso   1.00
O314   O     0.38300   0.97753   0.00707   0.01267  Uiso   1.00
O315   O     0.14490   0.90620   0.94990   0.01267  Uiso   1.00
C316   C     0.80529   0.04171   0.02573   0.00000  Uiso   1.00
H317   H     0.82802   0.05708   0.07702   0.00000  Uiso   1.00
C318   C     0.78271   0.98717   0.98016   0.00000  Uiso   1.00
H319   H     0.75397   0.02739   0.99499   0.00000  Uiso   1.00
O320   O     0.82082   0.98851   0.01289   0.00000  Uiso   1.00
H321   H     0.78754   0.98873   0.94671   0.00000  Uiso   1.00
H322   H     0.71720   0.92974   0.93532   0.00000  Uiso   1.00
C323   C     0.78555   0.94200   0.00183   0.00000  Uiso   1.00
H324   H     0.82272   0.97031   0.06163   0.00000  Uiso   1.00
H325   H     0.76998   0.89167   0.96172   0.00000  Uiso   1.00
H326   H     0.72774   0.91628   0.97079   0.00000  Uiso   1.00
C327   C     0.68726   0.13831   0.96489   0.00000  Uiso   1.00
H328   H     0.70287   0.15222   0.01353   0.00000  Uiso   1.00
H329   H     0.64875   0.07446   0.91254   0.00000  Uiso   1.00
C330   C     0.65240   0.14380   0.94261   0.00000  Uiso   1.00
H331   H     0.63952   0.13297   0.89624   0.00000  Uiso   1.00
O332   O     0.68966   0.20672   0.99553   0.00000  Uiso   1.00
H333   H     0.59317   0.09720   0.91379   0.00000  Uiso   1.00
C334   C     0.64886   0.20428   0.98330   0.00000  Uiso   1.00
H335   H     0.61511   0.18764   0.93052   0.00000  Uiso   1.00
H336   H     0.68572   0.26564   0.03894   0.00000  Uiso   1.00
H337   H     0.60386   0.15707   0.96787   0.00000  Uiso   1.00
C338   C     0.06395   0.94777   0.48284   0.00000  Uiso   1.00
H339   H     0.10835   0.97738   0.54309   0.00000  Uiso   1.00
C340   C     0.06341   0.91477   0.44601   0.00000  Uiso   1.00
H341   H     0.00113   0.90306   0.44858   0.00000  Uiso   1.00
H342   H     0.12785   0.95442   0.48631   0.00000  Uiso   1.00
H343   H     0.03365   0.90057   0.39474   0.00000  Uiso   1.00
O344   O     0.02820   0.85633   0.42015   0.00000  Uiso   1.00
C345   C     0.96623   0.81887   0.38303   0.00000  Uiso   1.00
H346   H     0.92937   0.79009   0.32303   0.00000  Uiso   1.00
H347   H     0.93688   0.76974   0.37179   0.00000  Uiso   1.00
Zn348  Zn    0.00716   0.00867   0.33350   0.01267  Uiso   1.00
Zn349  Zn    0.23719   0.29728   0.58766   0.01267  Uiso   1.00
H350   H     0.32700   0.40600   0.75030   0.01267  Uiso   1.00
H351   H     0.32600   0.40330   0.82360   0.01267  Uiso   1.00
H352   H     0.13180   0.17130   0.55290   0.01267  Uiso   1.00
H353   H     0.12770   0.16100   0.62010   0.01267  Uiso   1.00
H354   H     0.90140   0.03810   0.17370   0.01267  Uiso   1.00
H355   H     0.81150   0.91610   0.21310   0.01267  Uiso   1.00
O356   O     0.04680   0.16240   0.31950   0.01267  Uiso   1.00
H357   H     0.08710   0.01870   0.58460   0.01267  Uiso   1.00
H358   H     0.13790   0.96290   0.33250   0.01267  Uiso   1.00
H359   H     0.03810   0.93090   0.29000   0.01267  Uiso   1.00
H360   H     0.27940   0.18720   0.47550   0.01267  Uiso   1.00
H361   H     0.17690   0.15330   0.43850   0.01267  Uiso   1.00
C362   C     0.84826   0.87060   0.16034   0.01267  Uiso   1.00
C363   C     0.28613   0.35547   0.72380   0.01267  Uiso   1.00
C364   C     0.22378   0.27970   0.72782   0.01267  Uiso   1.00
C365   C     0.07696   0.15411   0.41313   0.01267  Uiso   1.00
C366   C     0.07867   0.20393   0.41650   0.01267  Uiso   1.00
C367   C     0.84937   0.92297   0.17346   0.01267  Uiso   1.00
C368   C     0.21733   0.07668   0.40119   0.01267  Uiso   1.00
C369   C     0.28567   0.35458   0.76805   0.01267  Uiso   1.00
C370   C     0.17307   0.21905   0.60908   0.01267  Uiso   1.00
C371   C     0.16919   0.21279   0.64862   0.01267  Uiso   1.00
C372   C     0.00480   0.99870   0.41210   0.01267  Uiso   1.00
C373   C     0.86240   0.03230   0.20920   0.01267  Uiso   1.00
C374   C     0.88140   0.01300   0.18100   0.01267  Uiso   1.00
C375   C     0.87260   0.95810   0.16190   0.01267  Uiso   1.00
C376   C     0.82830   0.93890   0.20290   0.01267  Uiso   1.00
C377   C     0.87470   0.09650   0.22630   0.01267  Uiso   1.00
C378   C     0.83440   0.99150   0.21590   0.01267  Uiso   1.00
C379   C     0.07480   0.20490   0.37050   0.01267  Uiso   1.00
C380   C     0.08740   0.25230   0.46650   0.01267  Uiso   1.00
C381   C     0.99440   0.99630   0.45160   0.01267  Uiso   1.00
C382   C     0.04060   0.00230   0.49420   0.01267  Uiso   1.00
C383   C     0.05040   0.00990   0.55030   0.01267  Uiso   1.00
C384   C     0.14610   0.00310   0.35190   0.01267  Uiso   1.00
C385   C     0.08870   0.98550   0.33030   0.01267  Uiso   1.00
C386   C     0.22870   0.13280   0.43570   0.01267  Uiso   1.00
C387   C     0.16770   0.11250   0.41410   0.01267  Uiso   1.00
N388   N     0.23187   0.28884   0.64639   0.01267  Uiso   1.00
N389   N     0.09482   0.03616   0.35902   0.01267  Uiso   1.00
O390   O     0.81840   0.00980   0.25650   0.01267  Uiso   1.00
O391   O     0.08240   0.99460   0.49340   0.01267  Uiso   1.00
O392   O     0.13024   0.18388   0.47678   0.01267  Uiso   1.00
O393   O     0.78532   0.79665   0.09143   0.01267  Uiso   1.00
O394   O     0.90750   0.89901   0.21789   0.01267  Uiso   1.00
O395   O     0.02033   0.08155   0.34372   0.01267  Uiso   1.00
O396   O     0.02632   0.98810   0.39338   0.01267  Uiso   1.00
O397   O     0.90432   0.12583   0.22465   0.01267  Uiso   1.00
O398   O     0.85480   0.10620   0.24430   0.01267  Uiso   1.00
H399   H     0.09093   0.24720   0.51007   0.01267  Uiso   1.00
O400   O     0.97753   0.00707   0.38300   0.01267  Uiso   1.00
O401   O     0.90620   0.94990   0.14490   0.01267  Uiso   1.00
C402   C     0.04171   0.02573   0.80529   0.00000  Uiso   1.00
H403   H     0.05708   0.07702   0.82802   0.00000  Uiso   1.00
C404   C     0.98717   0.98016   0.78271   0.00000  Uiso   1.00
H405   H     0.02739   0.99499   0.75397   0.00000  Uiso   1.00
O406   O     0.98851   0.01289   0.82082   0.00000  Uiso   1.00
H407   H     0.98873   0.94671   0.78754   0.00000  Uiso   1.00
H408   H     0.92974   0.93532   0.71720   0.00000  Uiso   1.00
C409   C     0.94200   0.00183   0.78555   0.00000  Uiso   1.00
H410   H     0.97031   0.06163   0.82272   0.00000  Uiso   1.00
H411   H     0.89167   0.96172   0.76998   0.00000  Uiso   1.00
H412   H     0.91628   0.97079   0.72774   0.00000  Uiso   1.00
C413   C     0.13831   0.96489   0.68726   0.00000  Uiso   1.00
H414   H     0.15222   0.01353   0.70287   0.00000  Uiso   1.00
H415   H     0.07446   0.91254   0.64875   0.00000  Uiso   1.00
C416   C     0.14380   0.94261   0.65240   0.00000  Uiso   1.00
H417   H     0.13297   0.89624   0.63952   0.00000  Uiso   1.00
O418   O     0.20672   0.99553   0.68966   0.00000  Uiso   1.00
H419   H     0.09720   0.91379   0.59317   0.00000  Uiso   1.00
C420   C     0.20428   0.98330   0.64886   0.00000  Uiso   1.00
H421   H     0.18764   0.93052   0.61511   0.00000  Uiso   1.00
H422   H     0.26564   0.03894   0.68572   0.00000  Uiso   1.00
H423   H     0.15707   0.96787   0.60386   0.00000  Uiso   1.00
C424   C     0.94777   0.48284   0.06395   0.00000  Uiso   1.00
H425   H     0.97738   0.54309   0.10835   0.00000  Uiso   1.00
C426   C     0.91477   0.44601   0.06341   0.00000  Uiso   1.00
H427   H     0.90306   0.44858   0.00113   0.00000  Uiso   1.00
H428   H     0.95442   0.48631   0.12785   0.00000  Uiso   1.00
H429   H     0.90057   0.39474   0.03365   0.00000  Uiso   1.00
O430   O     0.85633   0.42015   0.02820   0.00000  Uiso   1.00
C431   C     0.81887   0.38303   0.96623   0.00000  Uiso   1.00
H432   H     0.79009   0.32303   0.92937   0.00000  Uiso   1.00
H433   H     0.76974   0.37179   0.93688   0.00000  Uiso   1.00
Zn434  Zn    0.00867   0.33350   0.00716   0.01267  Uiso   1.00
Zn435  Zn    0.29728   0.58766   0.23719   0.01267  Uiso   1.00
H436   H     0.40600   0.75030   0.32700   0.01267  Uiso   1.00
H437   H     0.40330   0.82360   0.32600   0.01267  Uiso   1.00
H438   H     0.17130   0.55290   0.13180   0.01267  Uiso   1.00
H439   H     0.16100   0.62010   0.12770   0.01267  Uiso   1.00
H440   H     0.03810   0.17370   0.90140   0.01267  Uiso   1.00
H441   H     0.91610   0.21310   0.81150   0.01267  Uiso   1.00
O442   O     0.16240   0.31950   0.04680   0.01267  Uiso   1.00
H443   H     0.01870   0.58460   0.08710   0.01267  Uiso   1.00
H444   H     0.96290   0.33250   0.13790   0.01267  Uiso   1.00
H445   H     0.93090   0.29000   0.03810   0.01267  Uiso   1.00
H446   H     0.18720   0.47550   0.27940   0.01267  Uiso   1.00
H447   H     0.15330   0.43850   0.17690   0.01267  Uiso   1.00
C448   C     0.87060   0.16034   0.84826   0.01267  Uiso   1.00
C449   C     0.35547   0.72380   0.28613   0.01267  Uiso   1.00
C450   C     0.27970   0.72782   0.22378   0.01267  Uiso   1.00
C451   C     0.15411   0.41313   0.07696   0.01267  Uiso   1.00
C452   C     0.20393   0.41650   0.07867   0.01267  Uiso   1.00
C453   C     0.92297   0.17346   0.84937   0.01267  Uiso   1.00
C454   C     0.07668   0.40119   0.21733   0.01267  Uiso   1.00
C455   C     0.35458   0.76805   0.28567   0.01267  Uiso   1.00
C456   C     0.21905   0.60908   0.17307   0.01267  Uiso   1.00
C457   C     0.21279   0.64862   0.16919   0.01267  Uiso   1.00
C458   C     0.99870   0.41210   0.00480   0.01267  Uiso   1.00
C459   C     0.03230   0.20920   0.86240   0.01267  Uiso   1.00
C460   C     0.01300   0.18100   0.88140   0.01267  Uiso   1.00
C461   C     0.95810   0.16190   0.87260   0.01267  Uiso   1.00
C462   C     0.93890   0.20290   0.82830   0.01267  Uiso   1.00
C463   C     0.09650   0.22630   0.87470   0.01267  Uiso   1.00
C464   C     0.99150   0.21590   0.83440   0.01267  Uiso   1.00
C465   C     0.20490   0.37050   0.07480   0.01267  Uiso   1.00
C466   C     0.25230   0.46650   0.08740   0.01267  Uiso   1.00
C467   C     0.99630   0.45160   0.99440   0.01267  Uiso   1.00
C468   C     0.00230   0.49420   0.04060   0.01267  Uiso   1.00
C469   C     0.00990   0.55030   0.05040   0.01267  Uiso   1.00
C470   C     0.00310   0.35190   0.14610   0.01267  Uiso   1.00
C471   C     0.98550   0.33030   0.08870   0.01267  Uiso   1.00
C472   C     0.13280   0.43570   0.22870   0.01267  Uiso   1.00
C473   C     0.11250   0.41410   0.16770   0.01267  Uiso   1.00
N474   N     0.28884   0.64639   0.23187   0.01267  Uiso   1.00
N475   N     0.03616   0.35902   0.09482   0.01267  Uiso   1.00
O476   O     0.00980   0.25650   0.81840   0.01267  Uiso   1.00
O477   O     0.99460   0.49340   0.08240   0.01267  Uiso   1.00
O478   O     0.18388   0.47678   0.13024   0.01267  Uiso   1.00
O479   O     0.79665   0.09143   0.78532   0.01267  Uiso   1.00
O480   O     0.89901   0.21789   0.90750   0.01267  Uiso   1.00
O481   O     0.08155   0.34372   0.02033   0.01267  Uiso   1.00
O482   O     0.98810   0.39338   0.02632   0.01267  Uiso   1.00
O483   O     0.12583   0.22465   0.90432   0.01267  Uiso   1.00
O484   O     0.10620   0.24430   0.85480   0.01267  Uiso   1.00
H485   H     0.24720   0.51007   0.09093   0.01267  Uiso   1.00
O486   O     0.00707   0.38300   0.97753   0.01267  Uiso   1.00
O487   O     0.94990   0.14490   0.90620   0.01267  Uiso   1.00
C488   C     0.02573   0.80529   0.04171   0.00000  Uiso   1.00
H489   H     0.07702   0.82802   0.05708   0.00000  Uiso   1.00
C490   C     0.98016   0.78271   0.98717   0.00000  Uiso   1.00
H491   H     0.99499   0.75397   0.02739   0.00000  Uiso   1.00
O492   O     0.01289   0.82082   0.98851   0.00000  Uiso   1.00
H493   H     0.94671   0.78754   0.98873   0.00000  Uiso   1.00
H494   H     0.93532   0.71720   0.92974   0.00000  Uiso   1.00
C495   C     0.00183   0.78555   0.94200   0.00000  Uiso   1.00
H496   H     0.06163   0.82272   0.97031   0.00000  Uiso   1.00
H497   H     0.96172   0.76998   0.89167   0.00000  Uiso   1.00
H498   H     0.97079   0.72774   0.91628   0.00000  Uiso   1.00
C499   C     0.96489   0.68726   0.13831   0.00000  Uiso   1.00
H500   H     0.01353   0.70287   0.15222   0.00000  Uiso   1.00
H501   H     0.91254   0.64875   0.07446   0.00000  Uiso   1.00
C502   C     0.94261   0.65240   0.14380   0.00000  Uiso   1.00
H503   H     0.89624   0.63952   0.13297   0.00000  Uiso   1.00
O504   O     0.99553   0.68966   0.20672   0.00000  Uiso   1.00
H505   H     0.91379   0.59317   0.09720   0.00000  Uiso   1.00
C506   C     0.98330   0.64886   0.20428   0.00000  Uiso   1.00
H507   H     0.93052   0.61511   0.18764   0.00000  Uiso   1.00
H508   H     0.03894   0.68572   0.26564   0.00000  Uiso   1.00
H509   H     0.96787   0.60386   0.15707   0.00000  Uiso   1.00
C510   C     0.48284   0.06395   0.94777   0.00000  Uiso   1.00
H511   H     0.54309   0.10835   0.97738   0.00000  Uiso   1.00
C512   C     0.44601   0.06341   0.91477   0.00000  Uiso   1.00
H513   H     0.44858   0.00113   0.90306   0.00000  Uiso   1.00
H514   H     0.48631   0.12785   0.95442   0.00000  Uiso   1.00
H515   H     0.39474   0.03365   0.90057   0.00000  Uiso   1.00
O516   O     0.42015   0.02820   0.85633   0.00000  Uiso   1.00
C517   C     0.38303   0.96623   0.81887   0.00000  Uiso   1.00
H518   H     0.32303   0.92937   0.79009   0.00000  Uiso   1.00
H519   H     0.37179   0.93688   0.76974   0.00000  Uiso   1.00
Zn520  Zn    0.50716   0.83350   0.50867   0.01267  Uiso   1.00
Zn521  Zn    0.73719   0.08766   0.79728   0.01267  Uiso   1.00
H522   H     0.82700   0.25030   0.90600   0.01267  Uiso   1.00
H523   H     0.82600   0.32360   0.90330   0.01267  Uiso   1.00
H524   H     0.63180   0.05290   0.67130   0.01267  Uiso   1.00
H525   H     0.62770   0.12010   0.66100   0.01267  Uiso   1.00
H526   H     0.40140   0.67370   0.53810   0.01267  Uiso   1.00
H527   H     0.31150   0.71310   0.41610   0.01267  Uiso   1.00
H528   H     0.54680   0.81950   0.66240   0.01267  Uiso   1.00
H529   H     0.58710   0.08460   0.51870   0.01267  Uiso   1.00
H530   H     0.63790   0.83250   0.46290   0.01267  Uiso   1.00
H531   H     0.53810   0.79000   0.43090   0.01267  Uiso   1.00
H532   H     0.77940   0.97550   0.68720   0.01267  Uiso   1.00
H533   H     0.67690   0.93850   0.65330   0.01267  Uiso   1.00
C534   C     0.34826   0.66034   0.37060   0.01267  Uiso   1.00
C535   C     0.78613   0.22380   0.85547   0.01267  Uiso   1.00
C536   C     0.72378   0.22782   0.77970   0.01267  Uiso   1.00
C537   C     0.57696   0.91313   0.65411   0.01267  Uiso   1.00
C538   C     0.57867   0.91650   0.70393   0.01267  Uiso   1.00
C539   C     0.34937   0.67346   0.42297   0.01267  Uiso   1.00
C540   C     0.71733   0.90119   0.57668   0.01267  Uiso   1.00
C541   C     0.78567   0.26805   0.85458   0.01267  Uiso   1.00
C542   C     0.67307   0.10908   0.71905   0.01267  Uiso   1.00
C543   C     0.66919   0.14862   0.71279   0.01267  Uiso   1.00
C544   C     0.50480   0.91210   0.49870   0.01267  Uiso   1.00
C545   C     0.36240   0.70920   0.53230   0.01267  Uiso   1.00
C546   C     0.38140   0.68100   0.51300   0.01267  Uiso   1.00
C547   C     0.37260   0.66190   0.45810   0.01267  Uiso   1.00
C548   C     0.32830   0.70290   0.43890   0.01267  Uiso   1.00
C549   C     0.37470   0.72630   0.59650   0.01267  Uiso   1.00
C550   C     0.33440   0.71590   0.49150   0.01267  Uiso   1.00
C551   C     0.57480   0.87050   0.70490   0.01267  Uiso   1.00
C552   C     0.58740   0.96650   0.75230   0.01267  Uiso   1.00
C553   C     0.49440   0.95160   0.49630   0.01267  Uiso   1.00
C554   C     0.54060   0.99420   0.50230   0.01267  Uiso   1.00
C555   C     0.55040   0.05030   0.50990   0.01267  Uiso   1.00
C556   C     0.64610   0.85190   0.50310   0.01267  Uiso   1.00
C557   C     0.58870   0.83030   0.48550   0.01267  Uiso   1.00
C558   C     0.72870   0.93570   0.63280   0.01267  Uiso   1.00
C559   C     0.66770   0.91410   0.61250   0.01267  Uiso   1.00
N560   N     0.73187   0.14639   0.78884   0.01267  Uiso   1.00
N561   N     0.59482   0.85902   0.53616   0.01267  Uiso   1.00
O562   O     0.31840   0.75650   0.50980   0.01267  Uiso   1.00
O563   O     0.58240   0.99340   0.49460   0.01267  Uiso   1.00
O564   O     0.63024   0.97678   0.68388   0.01267  Uiso   1.00
O565   O     0.28532   0.59143   0.29665   0.01267  Uiso   1.00
O566   O     0.40750   0.71789   0.39901   0.01267  Uiso   1.00
O567   O     0.52033   0.84372   0.58155   0.01267  Uiso   1.00
O568   O     0.52632   0.89338   0.48810   0.01267  Uiso   1.00
O569   O     0.40432   0.72465   0.62583   0.01267  Uiso   1.00
O570   O     0.35480   0.74430   0.60620   0.01267  Uiso   1.00
H571   H     0.59093   0.01007   0.74720   0.01267  Uiso   1.00
O572   O     0.47753   0.88300   0.50707   0.01267  Uiso   1.00
O573   O     0.40620   0.64490   0.44990   0.01267  Uiso   1.00
C574   C     0.54171   0.30529   0.52573   0.00000  Uiso   1.00
H575   H     0.55708   0.32802   0.57702   0.00000  Uiso   1.00
C576   C     0.48717   0.28271   0.48016   0.00000  Uiso   1.00
H577   H     0.52739   0.25397   0.49499   0.00000  Uiso   1.00
O578   O     0.48851   0.32082   0.51289   0.00000  Uiso   1.00
H579   H     0.48873   0.28754   0.44671   0.00000  Uiso   1.00
H580   H     0.42974   0.21720   0.43532   0.00000  Uiso   1.00
C581   C     0.44200   0.28555   0.50183   0.00000  Uiso   1.00
H582   H     0.47031   0.32272   0.56163   0.00000  Uiso   1.00
H583   H     0.39167   0.26998   0.46172   0.00000  Uiso   1.00
H584   H     0.41628   0.22774   0.47079   0.00000  Uiso   1.00
C585   C     0.63831   0.18726   0.46489   0.00000  Uiso   1.00
H586   H     0.65222   0.20287   0.51353   0.00000  Uiso   1.00
H587   H     0.57446   0.14875   0.41254   0.00000  Uiso   1.00
C588   C     0.64380   0.15240   0.44261   0.00000  Uiso   1.00
H589   H     0.63297   0.13952   0.39624   0.00000  Uiso   1.00
O590   O     0.70672   0.18966   0.49553   0.00000  Uiso   1.00
H591   H     0.59720   0.09317   0.41379   0.00000  Uiso   1.00
C592   C     0.70428   0.14886   0.48330   0.00000  Uiso   1.00
H593   H     0.68764   0.11511   0.43052   0.00000  Uiso   1.00
H594   H     0.76564   0.18572   0.53894   0.00000  Uiso   1.00
H595   H     0.65707   0.10386   0.46787   0.00000  Uiso   1.00
C596   C     0.44777   0.56395   0.98284   0.00000  Uiso   1.00
H597   H     0.47738   0.60835   0.04309   0.00000  Uiso   1.00
C598   C     0.41477   0.56341   0.94601   0.00000  Uiso   1.00
H599   H     0.40306   0.50113   0.94858   0.00000  Uiso   1.00
H600   H     0.45442   0.62785   0.98631   0.00000  Uiso   1.00
H601   H     0.40057   0.53365   0.89474   0.00000  Uiso   1.00
O602   O     0.35633   0.52820   0.92015   0.00000  Uiso   1.00
C603   C     0.31887   0.46623   0.88303   0.00000  Uiso   1.00
H604   H     0.29009   0.42937   0.82303   0.00000  Uiso   1.00
H605   H     0.35831   0.46879   0.91617   0.00000  Uiso   1.00
H606   H     0.26974   0.43688   0.87179   0.00000  Uiso   1.00
Zn607  Zn    0.50867   0.50716   0.83350   0.01267  Uiso   1.00
Zn608  Zn    0.79728   0.73719   0.08766   0.01267  Uiso   1.00
H609   H     0.90600   0.82700   0.25030   0.01267  Uiso   1.00
H610   H     0.90330   0.82600   0.32360   0.01267  Uiso   1.00
H611   H     0.67130   0.63180   0.05290   0.01267  Uiso   1.00
H612   H     0.66100   0.62770   0.12010   0.01267  Uiso   1.00
H613   H     0.53810   0.40140   0.67370   0.01267  Uiso   1.00
H614   H     0.41610   0.31150   0.71310   0.01267  Uiso   1.00
H615   H     0.66240   0.54680   0.81950   0.01267  Uiso   1.00
H616   H     0.51870   0.58710   0.08460   0.01267  Uiso   1.00
H617   H     0.46290   0.63790   0.83250   0.01267  Uiso   1.00
H618   H     0.43090   0.53810   0.79000   0.01267  Uiso   1.00
H619   H     0.68720   0.77940   0.97550   0.01267  Uiso   1.00
H620   H     0.65330   0.67690   0.93850   0.01267  Uiso   1.00
C621   C     0.37060   0.34826   0.66034   0.01267  Uiso   1.00
C622   C     0.85547   0.78613   0.22380   0.01267  Uiso   1.00
C623   C     0.77970   0.72378   0.22782   0.01267  Uiso   1.00
C624   C     0.65411   0.57696   0.91313   0.01267  Uiso   1.00
C625   C     0.70393   0.57867   0.91650   0.01267  Uiso   1.00
C626   C     0.42297   0.34937   0.67346   0.01267  Uiso   1.00
C627   C     0.57668   0.71733   0.90119   0.01267  Uiso   1.00
C628   C     0.85458   0.78567   0.26805   0.01267  Uiso   1.00
C629   C     0.71905   0.67307   0.10908   0.01267  Uiso   1.00
C630   C     0.71279   0.66919   0.14862   0.01267  Uiso   1.00
C631   C     0.49870   0.50480   0.91210   0.01267  Uiso   1.00
C632   C     0.53230   0.36240   0.70920   0.01267  Uiso   1.00
C633   C     0.51300   0.38140   0.68100   0.01267  Uiso   1.00
C634   C     0.45810   0.37260   0.66190   0.01267  Uiso   1.00
C635   C     0.43890   0.32830   0.70290   0.01267  Uiso   1.00
C636   C     0.59650   0.37470   0.72630   0.01267  Uiso   1.00
C637   C     0.49150   0.33440   0.71590   0.01267  Uiso   1.00
C638   C     0.70490   0.57480   0.87050   0.01267  Uiso   1.00
C639   C     0.75230   0.58740   0.96650   0.01267  Uiso   1.00
C640   C     0.49630   0.49440   0.95160   0.01267  Uiso   1.00
C641   C     0.50230   0.54060   0.99420   0.01267  Uiso   1.00
C642   C     0.50990   0.55040   0.05030   0.01267  Uiso   1.00
C643   C     0.50310   0.64610   0.85190   0.01267  Uiso   1.00
C644   C     0.48550   0.58870   0.83030   0.01267  Uiso   1.00
C645   C     0.63280   0.72870   0.93570   0.01267  Uiso   1.00
C646   C     0.61250   0.66770   0.91410   0.01267  Uiso   1.00
N647   N     0.78884   0.73187   0.14639   0.01267  Uiso   1.00
N648   N     0.53616   0.59482   0.85902   0.01267  Uiso   1.00
O649   O     0.50980   0.31840   0.75650   0.01267  Uiso   1.00
O650   O     0.49460   0.58240   0.99340   0.01267  Uiso   1.00
O651   O     0.68388   0.63024   0.97678   0.01267  Uiso   1.00
O652   O     0.29665   0.28532   0.59143   0.01267  Uiso   1.00
O653   O     0.39901   0.40750   0.71789   0.01267  Uiso   1.00
O654   O     0.58155   0.52033   0.84372   0.01267  Uiso   1.00
O655   O     0.48810   0.52632   0.89338   0.01267  Uiso   1.00
O656   O     0.62583   0.40432   0.72465   0.01267  Uiso   1.00
O657   O     0.60620   0.35480   0.74430   0.01267  Uiso   1.00
H658   H     0.74720   0.59093   0.01007   0.01267  Uiso   1.00
O659   O     0.50707   0.47753   0.88300   0.01267  Uiso   1.00
O660   O     0.44990   0.40620   0.64490   0.01267  Uiso   1.00
C661   C     0.52573   0.54171   0.30529   0.00000  Uiso   1.00
H662   H     0.57702   0.55708   0.32802   0.00000  Uiso   1.00
C663   C     0.48016   0.48717   0.28271   0.00000  Uiso   1.00
H664   H     0.49499   0.52739   0.25397   0.00000  Uiso   1.00
O665   O     0.51289   0.48851   0.32082   0.00000  Uiso   1.00
H666   H     0.44671   0.48873   0.28754   0.00000  Uiso   1.00
H667   H     0.43532   0.42974   0.21720   0.00000  Uiso   1.00
C668   C     0.50183   0.44200   0.28555   0.00000  Uiso   1.00
H669   H     0.56163   0.47031   0.32272   0.00000  Uiso   1.00
H670   H     0.46172   0.39167   0.26998   0.00000  Uiso   1.00
H671   H     0.47079   0.41628   0.22774   0.00000  Uiso   1.00
C672   C     0.46489   0.63831   0.18726   0.00000  Uiso   1.00
H673   H     0.51353   0.65222   0.20287   0.00000  Uiso   1.00
H674   H     0.41254   0.57446   0.14875   0.00000  Uiso   1.00
C675   C     0.44261   0.64380   0.15240   0.00000  Uiso   1.00
H676   H     0.39624   0.63297   0.13952   0.00000  Uiso   1.00
O677   O     0.49553   0.70672   0.18966   0.00000  Uiso   1.00
H678   H     0.41379   0.59720   0.09317   0.00000  Uiso   1.00
C679   C     0.48330   0.70428   0.14886   0.00000  Uiso   1.00
H680   H     0.43052   0.68764   0.11511   0.00000  Uiso   1.00
H681   H     0.53894   0.76564   0.18572   0.00000  Uiso   1.00
H682   H     0.46787   0.65707   0.10386   0.00000  Uiso   1.00
C683   C     0.98284   0.44777   0.56395   0.00000  Uiso   1.00
H684   H     0.04309   0.47738   0.60835   0.00000  Uiso   1.00
C685   C     0.94601   0.41477   0.56341   0.00000  Uiso   1.00
H686   H     0.94858   0.40306   0.50113   0.00000  Uiso   1.00
H687   H     0.98631   0.45442   0.62785   0.00000  Uiso   1.00
H688   H     0.89474   0.40057   0.53365   0.00000  Uiso   1.00
O689   O     0.92015   0.35633   0.52820   0.00000  Uiso   1.00
C690   C     0.88303   0.31887   0.46623   0.00000  Uiso   1.00
H691   H     0.82303   0.29009   0.42937   0.00000  Uiso   1.00
H692   H     0.91617   0.35831   0.46879   0.00000  Uiso   1.00
H693   H     0.87179   0.26974   0.43688   0.00000  Uiso   1.00
Zn694  Zn    0.83350   0.50867   0.50716   0.01267  Uiso   1.00
Zn695  Zn    0.08766   0.79728   0.73719   0.01267  Uiso   1.00
H696   H     0.25030   0.90600   0.82700   0.01267  Uiso   1.00
H697   H     0.32360   0.90330   0.82600   0.01267  Uiso   1.00
H698   H     0.05290   0.67130   0.63180   0.01267  Uiso   1.00
H699   H     0.12010   0.66100   0.62770   0.01267  Uiso   1.00
H700   H     0.67370   0.53810   0.40140   0.01267  Uiso   1.00
H701   H     0.71310   0.41610   0.31150   0.01267  Uiso   1.00
O702   O     0.81950   0.66240   0.54680   0.01267  Uiso   1.00
H703   H     0.08460   0.51870   0.58710   0.01267  Uiso   1.00
H704   H     0.83250   0.46290   0.63790   0.01267  Uiso   1.00
H705   H     0.79000   0.43090   0.53810   0.01267  Uiso   1.00
H706   H     0.97550   0.68720   0.77940   0.01267  Uiso   1.00
H707   H     0.93850   0.65330   0.67690   0.01267  Uiso   1.00
C708   C     0.66034   0.37060   0.34826   0.01267  Uiso   1.00
C709   C     0.22380   0.85547   0.78613   0.01267  Uiso   1.00
C710   C     0.22782   0.77970   0.72378   0.01267  Uiso   1.00
C711   C     0.91313   0.65411   0.57696   0.01267  Uiso   1.00
C712   C     0.91650   0.70393   0.57867   0.01267  Uiso   1.00
C713   C     0.67346   0.42297   0.34937   0.01267  Uiso   1.00
C714   C     0.90119   0.57668   0.71733   0.01267  Uiso   1.00
C715   C     0.26805   0.85458   0.78567   0.01267  Uiso   1.00
C716   C     0.10908   0.71905   0.67307   0.01267  Uiso   1.00
C717   C     0.14862   0.71279   0.66919   0.01267  Uiso   1.00
C718   C     0.91210   0.49870   0.50480   0.01267  Uiso   1.00
C719   C     0.70920   0.53230   0.36240   0.01267  Uiso   1.00
C720   C     0.68100   0.51300   0.38140   0.01267  Uiso   1.00
C721   C     0.66190   0.45810   0.37260   0.01267  Uiso   1.00
C722   C     0.70290   0.43890   0.32830   0.01267  Uiso   1.00
C723   C     0.72630   0.59650   0.37470   0.01267  Uiso   1.00
C724   C     0.71590   0.49150   0.33440   0.01267  Uiso   1.00
C725   C     0.87050   0.70490   0.57480   0.01267  Uiso   1.00
C726   C     0.96650   0.75230   0.58740   0.01267  Uiso   1.00
C727   C     0.95160   0.49630   0.49440   0.01267  Uiso   1.00
C728   C     0.99420   0.50230   0.54060   0.01267  Uiso   1.00
C729   C     0.05030   0.50990   0.55040   0.01267  Uiso   1.00
C730   C     0.85190   0.50310   0.64610   0.01267  Uiso   1.00
C731   C     0.83030   0.48550   0.58870   0.01267  Uiso   1.00
C732   C     0.93570   0.63280   0.72870   0.01267  Uiso   1.00
C733   C     0.91410   0.61250   0.66770   0.01267  Uiso   1.00
N734   N     0.14639   0.78884   0.73187   0.01267  Uiso   1.00
N735   N     0.85902   0.53616   0.59482   0.01267  Uiso   1.00
O736   O     0.75650   0.50980   0.31840   0.01267  Uiso   1.00
O737   O     0.99340   0.49460   0.58240   0.01267  Uiso   1.00
O738   O     0.97678   0.68388   0.63024   0.01267  Uiso   1.00
O739   O     0.59143   0.29665   0.28532   0.01267  Uiso   1.00
O740   O     0.71789   0.39901   0.40750   0.01267  Uiso   1.00
O741   O     0.84372   0.58155   0.52033   0.01267  Uiso   1.00
O742   O     0.89338   0.48810   0.52632   0.01267  Uiso   1.00
O743   O     0.72465   0.62583   0.40432   0.01267  Uiso   1.00
O744   O     0.74430   0.60620   0.35480   0.01267  Uiso   1.00
H745   H     0.01007   0.74720   0.59093   0.01267  Uiso   1.00
O746   O     0.88300   0.50707   0.47753   0.01267  Uiso   1.00
O747   O     0.64490   0.44990   0.40620   0.01267  Uiso   1.00
C748   C     0.30529   0.52573   0.54171   0.00000  Uiso   1.00
H749   H     0.32802   0.57702   0.55708   0.00000  Uiso   1.00
C750   C     0.28271   0.48016   0.48717   0.00000  Uiso   1.00
H751   H     0.25397   0.49499   0.52739   0.00000  Uiso   1.00
O752   O     0.32082   0.51289   0.48851   0.00000  Uiso   1.00
H753   H     0.28754   0.44671   0.48873   0.00000  Uiso   1.00
H754   H     0.21720   0.43532   0.42974   0.00000  Uiso   1.00
C755   C     0.28555   0.50183   0.44200   0.00000  Uiso   1.00
H756   H     0.32272   0.56163   0.47031   0.00000  Uiso   1.00
H757   H     0.26998   0.46172   0.39167   0.00000  Uiso   1.00
H758   H     0.22774   0.47079   0.41628   0.00000  Uiso   1.00
C759   C     0.18726   0.46489   0.63831   0.00000  Uiso   1.00
H760   H     0.20287   0.51353   0.65222   0.00000  Uiso   1.00
H761   H     0.14875   0.41254   0.57446   0.00000  Uiso   1.00
C762   C     0.15240   0.44261   0.64380   0.00000  Uiso   1.00
H763   H     0.13952   0.39624   0.63297   0.00000  Uiso   1.00
O764   O     0.18966   0.49553   0.70672   0.00000  Uiso   1.00
H765   H     0.09317   0.41379   0.59720   0.00000  Uiso   1.00
C766   C     0.14886   0.48330   0.70428   0.00000  Uiso   1.00
H767   H     0.11511   0.43052   0.68764   0.00000  Uiso   1.00
H768   H     0.18572   0.53894   0.76564   0.00000  Uiso   1.00
H769   H     0.10386   0.46787   0.65707   0.00000  Uiso   1.00
C770   C     0.56395   0.98284   0.44777   0.00000  Uiso   1.00
H771   H     0.60835   0.04309   0.47738   0.00000  Uiso   1.00
C772   C     0.56341   0.94601   0.41477   0.00000  Uiso   1.00
H773   H     0.50113   0.94858   0.40306   0.00000  Uiso   1.00
H774   H     0.62785   0.98631   0.45442   0.00000  Uiso   1.00
H775   H     0.53365   0.89474   0.40057   0.00000  Uiso   1.00
O776   O     0.52820   0.92015   0.35633   0.00000  Uiso   1.00
C777   C     0.46623   0.88303   0.31887   0.00000  Uiso   1.00
H778   H     0.42937   0.82303   0.29009   0.00000  Uiso   1.00
H779   H     0.46879   0.91617   0.35831   0.00000  Uiso   1.00
H780   H     0.43688   0.87179   0.26974   0.00000  Uiso   1.00
Zn781  Zn    0.66650   0.99284   0.99133   0.01267  Uiso   1.00
Zn782  Zn    0.41234   0.76281   0.70272   0.01267  Uiso   1.00
H783   H     0.24970   0.67300   0.59400   0.01267  Uiso   1.00
H784   H     0.17640   0.67400   0.59670   0.01267  Uiso   1.00
H785   H     0.44710   0.86820   0.82870   0.01267  Uiso   1.00
H786   H     0.37990   0.87230   0.83900   0.01267  Uiso   1.00
H787   H     0.82630   0.09860   0.96190   0.01267  Uiso   1.00
H788   H     0.78690   0.18850   0.08390   0.01267  Uiso   1.00
O789   O     0.68050   0.95320   0.83760   0.01267  Uiso   1.00
H790   H     0.41540   0.91290   0.98130   0.01267  Uiso   1.00
H791   H     0.66750   0.86210   0.03710   0.01267  Uiso   1.00
H792   H     0.71000   0.96190   0.06910   0.01267  Uiso   1.00
H793   H     0.52450   0.72060   0.81280   0.01267  Uiso   1.00
H794   H     0.56150   0.82310   0.84670   0.01267  Uiso   1.00
C795   C     0.83966   0.15174   0.12940   0.01267  Uiso   1.00
C796   C     0.27620   0.71387   0.64453   0.01267  Uiso   1.00
C797   C     0.27218   0.77622   0.72030   0.01267  Uiso   1.00
C798   C     0.58687   0.92304   0.84589   0.01267  Uiso   1.00
C799   C     0.58350   0.92133   0.79607   0.01267  Uiso   1.00
C800   C     0.82654   0.15063   0.07703   0.01267  Uiso   1.00
C801   C     0.59881   0.78267   0.92332   0.01267  Uiso   1.00
C802   C     0.23195   0.71433   0.64542   0.01267  Uiso   1.00
C803   C     0.39092   0.82693   0.78095   0.01267  Uiso   1.00
C804   C     0.35138   0.83081   0.78721   0.01267  Uiso   1.00
C805   C     0.58790   0.99520   0.00130   0.01267  Uiso   1.00
C806   C     0.79080   0.13760   0.96770   0.01267  Uiso   1.00
C807   C     0.81900   0.11860   0.98700   0.01267  Uiso   1.00
C808   C     0.83810   0.12740   0.04190   0.01267  Uiso   1.00
C809   C     0.79710   0.17170   0.06110   0.01267  Uiso   1.00
C810   C     0.77370   0.12530   0.90350   0.01267  Uiso   1.00
C811   C     0.78410   0.16560   0.00850   0.01267  Uiso   1.00
C812   C     0.62950   0.92520   0.79510   0.01267  Uiso   1.00
C813   C     0.53350   0.91260   0.74770   0.01267  Uiso   1.00
C814   C     0.54840   0.00560   0.00370   0.01267  Uiso   1.00
C815   C     0.50580   0.95940   0.99770   0.01267  Uiso   1.00
C816   C     0.44970   0.94960   0.99010   0.01267  Uiso   1.00
C817   C     0.64810   0.85390   0.99690   0.01267  Uiso   1.00
C818   C     0.66970   0.91130   0.01450   0.01267  Uiso   1.00
C819   C     0.56430   0.77130   0.86720   0.01267  Uiso   1.00
C820   C     0.58590   0.83230   0.88750   0.01267  Uiso   1.00
N821   N     0.35361   0.76813   0.71116   0.01267  Uiso   1.00
N822   N     0.64098   0.90518   0.96384   0.01267  Uiso   1.00
O823   O     0.74350   0.18160   0.99020   0.01267  Uiso   1.00
O824   O     0.50660   0.91760   0.00540   0.01267  Uiso   1.00
O825   O     0.52322   0.86976   0.81612   0.01267  Uiso   1.00
O826   O     0.90857   0.21468   0.20335   0.01267  Uiso   1.00
O827   O     0.78211   0.09250   0.10099   0.01267  Uiso   1.00
O828   O     0.65628   0.97967   0.91845   0.01267  Uiso   1.00
O829   O     0.60662   0.97368   0.01190   0.01267  Uiso   1.00
O830   O     0.77535   0.09568   0.87417   0.01267  Uiso   1.00
O831   O     0.75570   0.14520   0.89380   0.01267  Uiso   1.00
H832   H     0.48993   0.90907   0.75280   0.01267  Uiso   1.00
O833   O     0.61700   0.02247   0.99293   0.01267  Uiso   1.00
O834   O     0.85510   0.09380   0.05010   0.01267  Uiso   1.00
C835   C     0.19471   0.95829   0.97427   0.00000  Uiso   1.00
H836   H     0.17198   0.94292   0.92298   0.00000  Uiso   1.00
C837   C     0.21729   0.01283   0.01984   0.00000  Uiso   1.00
H838   H     0.24603   0.97261   0.00501   0.00000  Uiso   1.00
O839   O     0.17918   0.01149   0.98711   0.00000  Uiso   1.00
H840   H     0.21246   0.01127   0.05329   0.00000  Uiso   1.00
H841   H     0.28280   0.07026   0.06468   0.00000  Uiso   1.00
C842   C     0.21445   0.05800   0.99817   0.00000  Uiso   1.00
H843   H     0.17728   0.02969   0.93837   0.00000  Uiso   1.00
H844   H     0.23002   0.10833   0.03828   0.00000  Uiso   1.00
H845   H     0.27226   0.08372   0.02921   0.00000  Uiso   1.00
C846   C     0.31274   0.86169   0.03511   0.00000  Uiso   1.00
H847   H     0.29713   0.84778   0.98647   0.00000  Uiso   1.00
H848   H     0.35125   0.92554   0.08746   0.00000  Uiso   1.00
C849   C     0.34760   0.85620   0.05739   0.00000  Uiso   1.00
H850   H     0.36048   0.86703   0.10376   0.00000  Uiso   1.00
O851   O     0.31034   0.79328   0.00447   0.00000  Uiso   1.00
H852   H     0.40683   0.90280   0.08621   0.00000  Uiso   1.00
C853   C     0.35114   0.79572   0.01670   0.00000  Uiso   1.00
H854   H     0.38489   0.81236   0.06948   0.00000  Uiso   1.00
H855   H     0.31428   0.73436   0.96106   0.00000  Uiso   1.00
H856   H     0.39614   0.84293   0.03213   0.00000  Uiso   1.00
C857   C     0.93605   0.05223   0.51716   0.00000  Uiso   1.00
H858   H     0.89165   0.02262   0.45691   0.00000  Uiso   1.00
C859   C     0.93659   0.08523   0.55399   0.00000  Uiso   1.00
H860   H     0.99887   0.09694   0.55142   0.00000  Uiso   1.00
H861   H     0.87215   0.04558   0.51369   0.00000  Uiso   1.00
H862   H     0.96635   0.09943   0.60526   0.00000  Uiso   1.00
O863   O     0.97180   0.14367   0.57985   0.00000  Uiso   1.00
C864   C     0.03377   0.18113   0.61697   0.00000  Uiso   1.00
H865   H     0.07063   0.20991   0.67697   0.00000  Uiso   1.00
H866   H     0.06312   0.23026   0.62821   0.00000  Uiso   1.00
Zn867  Zn    0.99284   0.99133   0.66650   0.01267  Uiso   1.00
Zn868  Zn    0.76281   0.70272   0.41234   0.01267  Uiso   1.00
H869   H     0.67300   0.59400   0.24970   0.01267  Uiso   1.00
H870   H     0.67400   0.59670   0.17640   0.01267  Uiso   1.00
H871   H     0.86820   0.82870   0.44710   0.01267  Uiso   1.00
H872   H     0.87230   0.83900   0.37990   0.01267  Uiso   1.00
H873   H     0.09860   0.96190   0.82630   0.01267  Uiso   1.00
H874   H     0.18850   0.08390   0.78690   0.01267  Uiso   1.00
H875   H     0.95320   0.83760   0.68050   0.01267  Uiso   1.00
H876   H     0.91290   0.98130   0.41540   0.01267  Uiso   1.00
H877   H     0.86210   0.03710   0.66750   0.01267  Uiso   1.00
H878   H     0.96190   0.06910   0.71000   0.01267  Uiso   1.00
H879   H     0.72060   0.81280   0.52450   0.01267  Uiso   1.00
H880   H     0.82310   0.84670   0.56150   0.01267  Uiso   1.00
C881   C     0.15174   0.12940   0.83966   0.01267  Uiso   1.00
C882   C     0.71387   0.64453   0.27620   0.01267  Uiso   1.00
C883   C     0.77622   0.72030   0.27218   0.01267  Uiso   1.00
C884   C     0.92304   0.84589   0.58687   0.01267  Uiso   1.00
C885   C     0.92133   0.79607   0.58350   0.01267  Uiso   1.00
C886   C     0.15063   0.07703   0.82654   0.01267  Uiso   1.00
C887   C     0.78267   0.92332   0.59881   0.01267  Uiso   1.00
C888   C     0.71433   0.64542   0.23195   0.01267  Uiso   1.00
C889   C     0.82693   0.78095   0.39092   0.01267  Uiso   1.00
C890   C     0.83081   0.78721   0.35138   0.01267  Uiso   1.00
C891   C     0.99520   0.00130   0.58790   0.01267  Uiso   1.00
C892   C     0.13760   0.96770   0.79080   0.01267  Uiso   1.00
C893   C     0.11860   0.98700   0.81900   0.01267  Uiso   1.00
C894   C     0.12740   0.04190   0.83810   0.01267  Uiso   1.00
C895   C     0.17170   0.06110   0.79710   0.01267  Uiso   1.00
C896   C     0.12530   0.90350   0.77370   0.01267  Uiso   1.00
C897   C     0.16560   0.00850   0.78410   0.01267  Uiso   1.00
C898   C     0.92520   0.79510   0.62950   0.01267  Uiso   1.00
C899   C     0.91260   0.74770   0.53350   0.01267  Uiso   1.00
C900   C     0.00560   0.00370   0.54840   0.01267  Uiso   1.00
C901   C     0.95940   0.99770   0.50580   0.01267  Uiso   1.00
C902   C     0.94960   0.99010   0.44970   0.01267  Uiso   1.00
C903   C     0.85390   0.99690   0.64810   0.01267  Uiso   1.00
C904   C     0.91130   0.01450   0.66970   0.01267  Uiso   1.00
C905   C     0.77130   0.86720   0.56430   0.01267  Uiso   1.00
C906   C     0.83230   0.88750   0.58590   0.01267  Uiso   1.00
N907   N     0.76813   0.71116   0.35361   0.01267  Uiso   1.00
N908   N     0.90518   0.96384   0.64098   0.01267  Uiso   1.00
O909   O     0.18160   0.99020   0.74350   0.01267  Uiso   1.00
O910   O     0.91760   0.00540   0.50660   0.01267  Uiso   1.00
O911   O     0.86976   0.81612   0.52322   0.01267  Uiso   1.00
O912   O     0.21468   0.20335   0.90857   0.01267  Uiso   1.00
O913   O     0.09250   0.10099   0.78211   0.01267  Uiso   1.00
O914   O     0.97967   0.91845   0.65628   0.01267  Uiso   1.00
O915   O     0.97368   0.01190   0.60662   0.01267  Uiso   1.00
O916   O     0.09568   0.87417   0.77535   0.01267  Uiso   1.00
O917   O     0.14520   0.89380   0.75570   0.01267  Uiso   1.00
O918   O     0.90907   0.75280   0.48993   0.01267  Uiso   1.00
O919   O     0.02247   0.99293   0.61700   0.01267  Uiso   1.00
O920   O     0.09380   0.05010   0.85510   0.01267  Uiso   1.00
C921   C     0.95829   0.97427   0.19471   0.00000  Uiso   1.00
H922   H     0.94292   0.92298   0.17198   0.00000  Uiso   1.00
C923   C     0.01283   0.01984   0.21729   0.00000  Uiso   1.00
H924   H     0.97261   0.00501   0.24603   0.00000  Uiso   1.00
O925   O     0.01149   0.98711   0.17918   0.00000  Uiso   1.00
H926   H     0.01127   0.05329   0.21246   0.00000  Uiso   1.00
H927   H     0.07026   0.06468   0.28280   0.00000  Uiso   1.00
C928   C     0.05800   0.99817   0.21445   0.00000  Uiso   1.00
H929   H     0.02969   0.93837   0.17728   0.00000  Uiso   1.00
H930   H     0.10833   0.03828   0.23002   0.00000  Uiso   1.00
H931   H     0.08372   0.02921   0.27226   0.00000  Uiso   1.00
C932   C     0.86169   0.03511   0.31274   0.00000  Uiso   1.00
H933   H     0.84778   0.98647   0.29713   0.00000  Uiso   1.00
H934   H     0.92554   0.08746   0.35125   0.00000  Uiso   1.00
C935   C     0.85620   0.05739   0.34760   0.00000  Uiso   1.00
H936   H     0.86703   0.10376   0.36048   0.00000  Uiso   1.00
O937   O     0.79328   0.00447   0.31034   0.00000  Uiso   1.00
H938   H     0.90280   0.08621   0.40683   0.00000  Uiso   1.00
C939   C     0.79572   0.01670   0.35114   0.00000  Uiso   1.00
H940   H     0.81236   0.06948   0.38489   0.00000  Uiso   1.00
H941   H     0.73436   0.96106   0.31428   0.00000  Uiso   1.00
H942   H     0.84293   0.03213   0.39614   0.00000  Uiso   1.00
C943   C     0.05223   0.51716   0.93605   0.00000  Uiso   1.00
H944   H     0.02262   0.45691   0.89165   0.00000  Uiso   1.00
C945   C     0.08523   0.55399   0.93659   0.00000  Uiso   1.00
H946   H     0.09694   0.55142   0.99887   0.00000  Uiso   1.00
H947   H     0.04558   0.51369   0.87215   0.00000  Uiso   1.00
H948   H     0.09943   0.60526   0.96635   0.00000  Uiso   1.00
O949   O     0.14367   0.57985   0.97180   0.00000  Uiso   1.00
C950   C     0.18113   0.61697   0.03377   0.00000  Uiso   1.00
H951   H     0.20991   0.67697   0.07063   0.00000  Uiso   1.00
H952   H     0.23026   0.62821   0.06312   0.00000  Uiso   1.00
Zn953  Zn    0.99133   0.66650   0.99284   0.01267  Uiso   1.00
Zn954  Zn    0.70272   0.41234   0.76281   0.01267  Uiso   1.00
H955   H     0.59400   0.24970   0.67300   0.01267  Uiso   1.00
H956   H     0.59670   0.17640   0.67400   0.01267  Uiso   1.00
H957   H     0.82870   0.44710   0.86820   0.01267  Uiso   1.00
H958   H     0.83900   0.37990   0.87230   0.01267  Uiso   1.00
H959   H     0.96190   0.82630   0.09860   0.01267  Uiso   1.00
H960   H     0.08390   0.78690   0.18850   0.01267  Uiso   1.00
O961   O     0.83760   0.68050   0.95320   0.01267  Uiso   1.00
H962   H     0.98130   0.41540   0.91290   0.01267  Uiso   1.00
H963   H     0.03710   0.66750   0.86210   0.01267  Uiso   1.00
H964   H     0.06910   0.71000   0.96190   0.01267  Uiso   1.00
H965   H     0.81280   0.52450   0.72060   0.01267  Uiso   1.00
H966   H     0.84670   0.56150   0.82310   0.01267  Uiso   1.00
C967   C     0.12940   0.83966   0.15174   0.01267  Uiso   1.00
C968   C     0.64453   0.27620   0.71387   0.01267  Uiso   1.00
C969   C     0.72030   0.27218   0.77622   0.01267  Uiso   1.00
C970   C     0.84589   0.58687   0.92304   0.01267  Uiso   1.00
C971   C     0.79607   0.58350   0.92133   0.01267  Uiso   1.00
C972   C     0.07703   0.82654   0.15063   0.01267  Uiso   1.00
C973   C     0.92332   0.59881   0.78267   0.01267  Uiso   1.00
C974   C     0.64542   0.23195   0.71433   0.01267  Uiso   1.00
C975   C     0.78095   0.39092   0.82693   0.01267  Uiso   1.00
C976   C     0.78721   0.35138   0.83081   0.01267  Uiso   1.00
C977   C     0.00130   0.58790   0.99520   0.01267  Uiso   1.00
C978   C     0.96770   0.79080   0.13760   0.01267  Uiso   1.00
C979   C     0.98700   0.81900   0.11860   0.01267  Uiso   1.00
C980   C     0.04190   0.83810   0.12740   0.01267  Uiso   1.00
C981   C     0.06110   0.79710   0.17170   0.01267  Uiso   1.00
C982   C     0.90350   0.77370   0.12530   0.01267  Uiso   1.00
C983   C     0.00850   0.78410   0.16560   0.01267  Uiso   1.00
C984   C     0.79510   0.62950   0.92520   0.01267  Uiso   1.00
C985   C     0.74770   0.53350   0.91260   0.01267  Uiso   1.00
C986   C     0.00370   0.54840   0.00560   0.01267  Uiso   1.00
C987   C     0.99770   0.50580   0.95940   0.01267  Uiso   1.00
C988   C     0.99010   0.44970   0.94960   0.01267  Uiso   1.00
C989   C     0.99690   0.64810   0.85390   0.01267  Uiso   1.00
C990   C     0.01450   0.66970   0.91130   0.01267  Uiso   1.00
C991   C     0.86720   0.56430   0.77130   0.01267  Uiso   1.00
C992   C     0.88750   0.58590   0.83230   0.01267  Uiso   1.00
N993   N     0.71116   0.35361   0.76813   0.01267  Uiso   1.00
N994   N     0.96384   0.64098   0.90518   0.01267  Uiso   1.00
O995   O     0.99020   0.74350   0.18160   0.01267  Uiso   1.00
O996   O     0.00540   0.50660   0.91760   0.01267  Uiso   1.00
O997   O     0.81612   0.52322   0.86976   0.01267  Uiso   1.00
O998   O     0.20335   0.90857   0.21468   0.01267  Uiso   1.00
O999   O     0.10099   0.78211   0.09250   0.01267  Uiso   1.00
O1000  O     0.91845   0.65628   0.97967   0.01267  Uiso   1.00
O1001  O     0.01190   0.60662   0.97368   0.01267  Uiso   1.00
O1002  O     0.87417   0.77535   0.09568   0.01267  Uiso   1.00
O1003  O     0.89380   0.75570   0.14520   0.01267  Uiso   1.00
H1004  H     0.75280   0.48993   0.90907   0.01267  Uiso   1.00
O1005  O     0.99293   0.61700   0.02247   0.01267  Uiso   1.00
O1006  O     0.05010   0.85510   0.09380   0.01267  Uiso   1.00
C1007  C     0.97427   0.19471   0.95829   0.00000  Uiso   1.00
H1008  H     0.92298   0.17198   0.94292   0.00000  Uiso   1.00
C1009  C     0.01984   0.21729   0.01283   0.00000  Uiso   1.00
H1010  H     0.00501   0.24603   0.97261   0.00000  Uiso   1.00
O1011  O     0.98711   0.17918   0.01149   0.00000  Uiso   1.00
H1012  H     0.05329   0.21246   0.01127   0.00000  Uiso   1.00
H1013  H     0.06468   0.28280   0.07026   0.00000  Uiso   1.00
C1014  C     0.99817   0.21445   0.05800   0.00000  Uiso   1.00
H1015  H     0.93837   0.17728   0.02969   0.00000  Uiso   1.00
H1016  H     0.03828   0.23002   0.10833   0.00000  Uiso   1.00
H1017  H     0.02921   0.27226   0.08372   0.00000  Uiso   1.00
C1018  C     0.03511   0.31274   0.86169   0.00000  Uiso   1.00
H1019  H     0.98647   0.29713   0.84778   0.00000  Uiso   1.00
H1020  H     0.08746   0.35125   0.92554   0.00000  Uiso   1.00
C1021  C     0.05739   0.34760   0.85620   0.00000  Uiso   1.00
H1022  H     0.10376   0.36048   0.86703   0.00000  Uiso   1.00
O1023  O     0.00447   0.31034   0.79328   0.00000  Uiso   1.00
H1024  H     0.08621   0.40683   0.90280   0.00000  Uiso   1.00
C1025  C     0.01670   0.35114   0.79572   0.00000  Uiso   1.00
H1026  H     0.06948   0.38489   0.81236   0.00000  Uiso   1.00
H1027  H     0.96106   0.31428   0.73436   0.00000  Uiso   1.00
H1028  H     0.03213   0.39614   0.84293   0.00000  Uiso   1.00
C1029  C     0.51716   0.93605   0.05223   0.00000  Uiso   1.00
H1030  H     0.45691   0.89165   0.02262   0.00000  Uiso   1.00
C1031  C     0.55399   0.93659   0.08523   0.00000  Uiso   1.00
H1032  H     0.55142   0.99887   0.09694   0.00000  Uiso   1.00
H1033  H     0.51369   0.87215   0.04558   0.00000  Uiso   1.00
H1034  H     0.60526   0.96635   0.09943   0.00000  Uiso   1.00
O1035  O     0.57985   0.97180   0.14367   0.00000  Uiso   1.00
C1036  C     0.61697   0.03377   0.18113   0.00000  Uiso   1.00
H1037  H     0.67697   0.07063   0.20991   0.00000  Uiso   1.00
H1038  H     0.62821   0.06312   0.23026   0.00000  Uiso   1.00
C1039  C     0.91105   0.79140   0.49531   0.00000  Uiso   1.00
H1040  H     0.93040   0.83250   0.54874   0.00000  Uiso   1.00
H1041  H     0.84878   0.75183   0.43785   0.00000  Uiso   1.00
C1042  C     0.95602   0.82949   0.50487   0.00000  Uiso   1.00
H1043  H     0.92625   0.79222   0.44437   0.00000  Uiso   1.00
O1044  O     0.97640   0.88445   0.53390   0.00000  Uiso   1.00
C1045  C     0.79202   0.67323   0.55266   0.00000  Uiso   1.00
C1046  C     0.79513   0.67466   0.59108   0.00000  Uiso   1.00
H1047  H     0.72645   0.62283   0.49042   0.00000  Uiso   1.00
H1048  H     0.82625   0.73333   0.58251   0.00000  Uiso   1.00
H1049  H     0.84400   0.68786   0.62914   0.00000  Uiso   1.00
H1050  H     0.73461   0.61385   0.55032   0.00000  Uiso   1.00
O1051  O     0.80988   0.72368   0.63222   0.00000  Uiso   1.00
C1052  C     0.86192   0.78040   0.66285   0.00000  Uiso   1.00
H1053  H     0.85278   0.76693   0.61706   0.00000  Uiso   1.00
H1054  H     0.91947   0.80811   0.71167   0.00000  Uiso   1.00
H1055  H     0.86695   0.82439   0.69128   0.00000  Uiso   1.00
C1056  C     0.84536   0.72563   0.98241   0.00000  Uiso   1.00
H1057  H     0.78716   0.69823   0.93588   0.00000  Uiso   1.00
H1058  H     0.88222   0.76157   0.95894   0.00000  Uiso   1.00
H1059  H     0.75313   0.99471   0.83956   0.00000  Uiso   1.00
C1060  C     0.12052   0.30505   0.04330   0.00000  Uiso   1.00
H1061  H     0.12710   0.29586   0.07602   0.00000  Uiso   1.00
H1062  H     0.13544   0.35681   0.07277   0.00000  Uiso   1.00
C1063  C     0.07389   0.17567   0.30597   0.00000  Uiso   1.00
C1064  C     0.02489   0.12339   0.23803   0.00000  Uiso   1.00
H1065  H     0.12097   0.18429   0.33490   0.00000  Uiso   1.00
H1066  H     0.10365   0.23298   0.33110   0.00000  Uiso   1.00
O1067  O     0.05365   0.13304   0.22435   0.00000  Uiso   1.00
C1068  C     0.08769   0.18992   0.24953   0.00000  Uiso   1.00
H1069  H     0.12369   0.23898   0.31275   0.00000  Uiso   1.00
H1070  H     0.04382   0.18020   0.20947   0.00000  Uiso   1.00
H1071  H     0.13052   0.20902   0.25221   0.00000  Uiso   1.00
C1072  C     0.31477   0.08077   0.16496   0.00000  Uiso   1.00
H1073  H     0.32866   0.11654   0.21521   0.00000  Uiso   1.00
C1074  C     0.25115   0.03685   0.10501   0.00000  Uiso   1.00
H1075  H     0.35964   0.12381   0.17729   0.00000  Uiso   1.00
H1076  H     0.24312   0.01377   0.05814   0.00000  Uiso   1.00
O1077  O     0.24097   0.06886   0.11263   0.00000  Uiso   1.00
C1078  C     0.28492   0.12006   0.13239   0.00000  Uiso   1.00
H1079  H     0.26552   0.09629   0.07896   0.00000  Uiso   1.00
H1080  H     0.34703   0.15413   0.18134   0.00000  Uiso   1.00
H1081  H     0.28733   0.16233   0.15718   0.00000  Uiso   1.00
C1082  C     0.27529   0.45600   0.99965   0.00000  Uiso   1.00
H1083  H     0.22208   0.43309   0.95117   0.00000  Uiso   1.00
C1084  C     0.31328   0.47031   0.99633   0.00000  Uiso   1.00
H1085  H     0.27206   0.42121   0.93064   0.00000  Uiso   1.00
H1086  H     0.35770   0.50101   0.96464   0.00000  Uiso   1.00
H1087  H     0.95767   0.28475   0.38726   0.00000  Uiso   1.00
H1088  H     0.98893   0.33174   0.47865   0.00000  Uiso   1.00
C1089  C     0.44218   0.98374   0.25553   0.00000  Uiso   1.00
H1090  H     0.40101   0.92652   0.19202   0.00000  Uiso   1.00
H1091  H     0.46246   0.98029   0.29302   0.00000  Uiso   1.00
H1092  H     0.01073   0.90847   0.10978   0.00000  Uiso   1.00
H1093  H     0.86059   0.74433   0.03261   0.00000  Uiso   1.00
C1094  C     0.89630   0.78067   0.00873   0.00000  Uiso   1.00
H1095  H     0.95499   0.80950   0.05702   0.00000  Uiso   1.00
O1096  O     0.90265   0.82597   0.03656   0.00000  Uiso   1.00
C1097  C     0.95172   0.87921   0.06149   0.00000  Uiso   1.00
H1098  H     0.93695   0.85946   0.01120   0.00000  Uiso   1.00
H1099  H     0.95789   0.92439   0.08907   0.00000  Uiso   1.00
H1100  H     0.31363   0.51279   0.06143   0.00000  Uiso   1.00
H1101  H     0.35330   0.47326   0.02929   0.00000  Uiso   1.00
O1102  O     0.35245   0.53075   0.02574   0.00000  Uiso   1.00
C1103  C     0.39405   0.54776   0.02835   0.00000  Uiso   1.00
H1104  H     0.43246   0.55051   0.06335   0.00000  Uiso   1.00
C1105  C     0.73534   0.01988   0.88980   0.00000  Uiso   1.00
H1106  H     0.75935   0.04620   0.94581   0.00000  Uiso   1.00
H1107  H     0.71982   0.04281   0.87713   0.00000  Uiso   1.00
C1108  C     0.78318   0.03910   0.90008   0.00000  Uiso   1.00
H1109  H     0.81691   0.03998   0.93683   0.00000  Uiso   1.00
O1110  O     0.82732   0.10184   0.93413   0.00000  Uiso   1.00
C1111  C     0.86898   0.11728   0.93706   0.00000  Uiso   1.00
H1112  H     0.83277   0.07003   0.87347   0.00000  Uiso   1.00
H1113  H     0.90562   0.11879   0.97205   0.00000  Uiso   1.00
H1114  H     0.91134   0.17886   0.96868   0.00000  Uiso   1.00
C1115  C     0.49709   0.03806   0.28435   0.00000  Uiso   1.00
O1116  O     0.48544   0.01969   0.23595   0.00000  Uiso   1.00
H1117  H     0.55173   0.06122   0.33084   0.00000  Uiso   1.00
H1118  H     0.50902   0.08759   0.31507   0.00000  Uiso   1.00
C1119  C     0.51327   0.06981   0.25008   0.00000  Uiso   1.00
H1120  H     0.55320   0.12609   0.31327   0.00000  Uiso   1.00
H1121  H     0.55120   0.08238   0.24682   0.00000  Uiso   1.00
H1122  H     0.01037   0.84992   0.54590   0.00000  Uiso   1.00
C1123  C     0.02568   0.92536   0.55019   0.00000  Uiso   1.00
H1124  H     0.00237   0.89322   0.49334   0.00000  Uiso   1.00
H1125  H     0.07746   0.94337   0.59239   0.00000  Uiso   1.00
H1126  H     0.04783   0.98153   0.58158   0.00000  Uiso   1.00
C1127  C     0.01064   0.30586   0.43316   0.00000  Uiso   1.00
C1128  C     0.03633   0.34507   0.49155   0.00000  Uiso   1.00
H1129  H     0.05921   0.34226   0.44541   0.00000  Uiso   1.00
O1130  O     0.05415   0.33146   0.51818   0.00000  Uiso   1.00
H1131  H     0.09159   0.41123   0.53619   0.00000  Uiso   1.00
C1132  C     0.09994   0.34397   0.53027   0.00000  Uiso   1.00
H1133  H     0.07050   0.29666   0.47080   0.00000  Uiso   1.00
H1134  H     0.12641   0.34192   0.56750   0.00000  Uiso   1.00
H1135  H     0.98246   0.12009   0.21001   0.00000  Uiso   1.00
H1136  H     0.20574   0.98402   0.08431   0.00000  Uiso   1.00
C1137  C     0.05601   0.24766   0.97753   0.00000  Uiso   1.00
O1138  O     0.03098   0.19314   0.95638   0.00000  Uiso   1.00
H1139  H     0.05511   0.24432   0.93927   0.00000  Uiso   1.00
C1140  C     0.05870   0.18425   0.94856   0.00000  Uiso   1.00
H1141  H     0.08275   0.17766   0.98137   0.00000  Uiso   1.00
H1142  H     0.11029   0.23842   0.97453   0.00000  Uiso   1.00
