data_image0
_cell_length_a       38.741
_cell_length_b       38.741
_cell_length_c       38.741
_cell_angle_alpha    90
_cell_angle_beta     90
_cell_angle_gamma    90

_symmetry_space_group_name_H-M    "P 1"
_symmetry_int_tables_number       1

loop_
  _symmetry_equiv_pos_as_xyz
  'x, y, z'

loop_
  _atom_site_label
  _atom_site_occupancy
  _atom_site_fract_x
  _atom_site_fract_y
  _atom_site_fract_z
  _atom_site_thermal_displace_type
  _atom_site_B_iso_or_equiv
  _atom_site_type_symbol
  Cl1      1.0000 0.71050  0.92030  0.29160  Biso   1.000  Cl
  N1       1.0000 0.72570  0.98850  0.22770  Biso   1.000  N
  C1       1.0000 0.72600  0.90960  0.22430  Biso   1.000  C
  C2       1.0000 0.73530  0.02130  0.23870  Biso   1.000  C
  C3       1.0000 0.70040  0.98470  0.20270  Biso   1.000  C
  O1       1.0000 0.71310  0.88610  0.21030  Biso   1.000  O
  C4       1.0000 0.71950  0.05030  0.22470  Biso   1.000  C
  C5       1.0000 0.68460  0.01370  0.18860  Biso   1.000  C
  C6       1.0000 0.69410  0.04650  0.19960  Biso   1.000  C
  C7       1.0000 0.65750  0.01300  0.16070  Biso   1.000  C
  C8       1.0000 0.66740  0.01180  0.12630  Biso   1.000  C
  C9       1.0000 0.62260  0.01330  0.16940  Biso   1.000  C
  C10      1.0000 0.64250  0.01110  0.10040  Biso   1.000  C
  C11      1.0000 0.59770  0.01250  0.14350  Biso   1.000  C
  C12      1.0000 0.60770  0.01140  0.10910  Biso   1.000  C
  C13      1.0000 0.58090  0.00500  0.08070  Biso   1.000  C
  O2       1.0000 0.59350  0.00360  0.04760  Biso   1.000  O
  O3       1.0000 0.54830  0.00250  0.09370  Biso   1.000  O
  Re1      1.0000 0.79270  0.02160  0.20750  Biso   1.000  Re
  C14      1.0000 0.79460  0.07010  0.19870  Biso   1.000  C
  O4       1.0000 0.79600  0.10020  0.20200  Biso   1.000  O
  C15      1.0000 0.79020  0.02010  0.15820  Biso   1.000  C
  O5       1.0000 0.78800  0.02700  0.12880  Biso   1.000  O
  C16      1.0000 0.84080  0.02520  0.19790  Biso   1.000  C
  O6       1.0000 0.87020  0.02750  0.19200  Biso   1.000  O
  C17      1.0000 0.68320  0.01500  0.18770  Biso   1.000  C
  C18      1.0000 0.71760  0.01650  0.17760  Biso   1.000  C
  C19      1.0000 0.74350  0.01780  0.20230  Biso   1.000  C
  C20      1.0000 0.73510  0.01760  0.23720  Biso   1.000  C
  C21      1.0000 0.70070  0.01620  0.24730  Biso   1.000  C
  C22      1.0000 0.67470  0.01490  0.22260  Biso   1.000  C
  C23      1.0000 0.71290  0.93590  0.28170  Biso   1.000  C
  O7       1.0000 0.69100  0.93200  0.30120  Biso   1.000  O
  Cl2      1.0000 0.71420  0.96250  0.28710  Biso   1.000  Cl
  Cl3      1.0000 0.71050  0.42030  0.79160  Biso   1.000  Cl
  N2       1.0000 0.72570  0.48850  0.72770  Biso   1.000  N
  C24      1.0000 0.72600  0.40960  0.72430  Biso   1.000  C
  C25      1.0000 0.73530  0.52130  0.73870  Biso   1.000  C
  C26      1.0000 0.70040  0.48470  0.70270  Biso   1.000  C
  O8       1.0000 0.71310  0.38610  0.71030  Biso   1.000  O
  C27      1.0000 0.71950  0.55030  0.72470  Biso   1.000  C
  C28      1.0000 0.68460  0.51370  0.68860  Biso   1.000  C
  C29      1.0000 0.69410  0.54650  0.69960  Biso   1.000  C
  C30      1.0000 0.65750  0.51300  0.66070  Biso   1.000  C
  C31      1.0000 0.66740  0.51180  0.62630  Biso   1.000  C
  C32      1.0000 0.62260  0.51330  0.66940  Biso   1.000  C
  C33      1.0000 0.64250  0.51110  0.60040  Biso   1.000  C
  C34      1.0000 0.59770  0.51250  0.64350  Biso   1.000  C
  C35      1.0000 0.60770  0.51140  0.60910  Biso   1.000  C
  C36      1.0000 0.58090  0.50500  0.58070  Biso   1.000  C
  O9       1.0000 0.59350  0.50360  0.54760  Biso   1.000  O
  O10      1.0000 0.54830  0.50250  0.59370  Biso   1.000  O
  Re2      1.0000 0.79270  0.52160  0.70750  Biso   1.000  Re
  C37      1.0000 0.79460  0.57010  0.69870  Biso   1.000  C
  O11      1.0000 0.79600  0.60020  0.70200  Biso   1.000  O
  C38      1.0000 0.79020  0.52010  0.65820  Biso   1.000  C
  O12      1.0000 0.78800  0.52700  0.62880  Biso   1.000  O
  C39      1.0000 0.84080  0.52520  0.69790  Biso   1.000  C
  O13      1.0000 0.87020  0.52750  0.69200  Biso   1.000  O
  C40      1.0000 0.68320  0.51500  0.68770  Biso   1.000  C
  C41      1.0000 0.71760  0.51650  0.67760  Biso   1.000  C
  C42      1.0000 0.74350  0.51780  0.70230  Biso   1.000  C
  C43      1.0000 0.73510  0.51760  0.73720  Biso   1.000  C
  C44      1.0000 0.70070  0.51620  0.74730  Biso   1.000  C
  C45      1.0000 0.67470  0.51490  0.72260  Biso   1.000  C
  C46      1.0000 0.71290  0.43590  0.78170  Biso   1.000  C
  O14      1.0000 0.69100  0.43200  0.80120  Biso   1.000  O
  Cl4      1.0000 0.71420  0.46250  0.78710  Biso   1.000  Cl
  Cl5      1.0000 0.21050  0.92030  0.79160  Biso   1.000  Cl
  N3       1.0000 0.22570  0.98850  0.72770  Biso   1.000  N
  C47      1.0000 0.22600  0.90960  0.72430  Biso   1.000  C
  C48      1.0000 0.23530  0.02130  0.73870  Biso   1.000  C
  C49      1.0000 0.20040  0.98470  0.70270  Biso   1.000  C
  O15      1.0000 0.21310  0.88610  0.71030  Biso   1.000  O
  C50      1.0000 0.21950  0.05030  0.72470  Biso   1.000  C
  C51      1.0000 0.18460  0.01370  0.68860  Biso   1.000  C
  C52      1.0000 0.19410  0.04650  0.69960  Biso   1.000  C
  C53      1.0000 0.15750  0.01300  0.66070  Biso   1.000  C
  C54      1.0000 0.16740  0.01180  0.62630  Biso   1.000  C
  C55      1.0000 0.12260  0.01330  0.66940  Biso   1.000  C
  C56      1.0000 0.14250  0.01110  0.60040  Biso   1.000  C
  C57      1.0000 0.09770  0.01250  0.64350  Biso   1.000  C
  C58      1.0000 0.10770  0.01140  0.60910  Biso   1.000  C
  C59      1.0000 0.08090  0.00500  0.58070  Biso   1.000  C
  O16      1.0000 0.09350  0.00360  0.54760  Biso   1.000  O
  O17      1.0000 0.04830  0.00250  0.59370  Biso   1.000  O
  Re3      1.0000 0.29270  0.02160  0.70750  Biso   1.000  Re
  C60      1.0000 0.29460  0.07010  0.69870  Biso   1.000  C
  O18      1.0000 0.29600  0.10020  0.70200  Biso   1.000  O
  C61      1.0000 0.29020  0.02010  0.65820  Biso   1.000  C
  O19      1.0000 0.28800  0.02700  0.62880  Biso   1.000  O
  C62      1.0000 0.34080  0.02520  0.69790  Biso   1.000  C
  O20      1.0000 0.37020  0.02750  0.69200  Biso   1.000  O
  C63      1.0000 0.18320  0.01500  0.68770  Biso   1.000  C
  C64      1.0000 0.21760  0.01650  0.67760  Biso   1.000  C
  C65      1.0000 0.24350  0.01780  0.70230  Biso   1.000  C
  C66      1.0000 0.23510  0.01760  0.73720  Biso   1.000  C
  C67      1.0000 0.20070  0.01620  0.74730  Biso   1.000  C
  C68      1.0000 0.17470  0.01490  0.72260  Biso   1.000  C
  C69      1.0000 0.21290  0.93590  0.78170  Biso   1.000  C
  O21      1.0000 0.19100  0.93200  0.80120  Biso   1.000  O
  Cl6      1.0000 0.21420  0.96250  0.78710  Biso   1.000  Cl
  Cl7      1.0000 0.21050  0.42030  0.29160  Biso   1.000  Cl
  N4       1.0000 0.22570  0.48850  0.22770  Biso   1.000  N
  C70      1.0000 0.22600  0.40960  0.22430  Biso   1.000  C
  C71      1.0000 0.23530  0.52130  0.23870  Biso   1.000  C
  C72      1.0000 0.20040  0.48470  0.20270  Biso   1.000  C
  O22      1.0000 0.21310  0.38610  0.21030  Biso   1.000  O
  C73      1.0000 0.21950  0.55030  0.22470  Biso   1.000  C
  C74      1.0000 0.18460  0.51370  0.18860  Biso   1.000  C
  C75      1.0000 0.19410  0.54650  0.19960  Biso   1.000  C
  C76      1.0000 0.15750  0.51300  0.16070  Biso   1.000  C
  C77      1.0000 0.16740  0.51180  0.12630  Biso   1.000  C
  C78      1.0000 0.12260  0.51330  0.16940  Biso   1.000  C
  C79      1.0000 0.14250  0.51110  0.10040  Biso   1.000  C
  C80      1.0000 0.09770  0.51250  0.14350  Biso   1.000  C
  C81      1.0000 0.10770  0.51140  0.10910  Biso   1.000  C
  C82      1.0000 0.08090  0.50500  0.08070  Biso   1.000  C
  O23      1.0000 0.09350  0.50360  0.04760  Biso   1.000  O
  O24      1.0000 0.04830  0.50250  0.09370  Biso   1.000  O
  Re4      1.0000 0.29270  0.52160  0.20750  Biso   1.000  Re
  C83      1.0000 0.29460  0.57010  0.19870  Biso   1.000  C
  O25      1.0000 0.29600  0.60020  0.20200  Biso   1.000  O
  C84      1.0000 0.29020  0.52010  0.15820  Biso   1.000  C
  O26      1.0000 0.28800  0.52700  0.12880  Biso   1.000  O
  C85      1.0000 0.34080  0.52520  0.19790  Biso   1.000  C
  O27      1.0000 0.37020  0.52750  0.19200  Biso   1.000  O
  C86      1.0000 0.18320  0.51500  0.18770  Biso   1.000  C
  C87      1.0000 0.21760  0.51650  0.17760  Biso   1.000  C
  C88      1.0000 0.24350  0.51780  0.20230  Biso   1.000  C
  C89      1.0000 0.23510  0.51760  0.23720  Biso   1.000  C
  C90      1.0000 0.20070  0.51620  0.24730  Biso   1.000  C
  C91      1.0000 0.17470  0.51490  0.22260  Biso   1.000  C
  C92      1.0000 0.21290  0.43590  0.28170  Biso   1.000  C
  O28      1.0000 0.19100  0.43200  0.30120  Biso   1.000  O
  Cl8      1.0000 0.21420  0.46250  0.28710  Biso   1.000  Cl
  Cl9      1.0000 0.28950  0.07970  0.29160  Biso   1.000  Cl
  N5       1.0000 0.27430  0.01150  0.22770  Biso   1.000  N
  C93      1.0000 0.27400  0.09040  0.22430  Biso   1.000  C
  C94      1.0000 0.26470  0.97870  0.23870  Biso   1.000  C
  C95      1.0000 0.29960  0.01530  0.20270  Biso   1.000  C
  O29      1.0000 0.28690  0.11390  0.21030  Biso   1.000  O
  C96      1.0000 0.28050  0.94970  0.22470  Biso   1.000  C
  C97      1.0000 0.31540  0.98630  0.18860  Biso   1.000  C
  C98      1.0000 0.30590  0.95350  0.19960  Biso   1.000  C
  C99      1.0000 0.34250  0.98700  0.16070  Biso   1.000  C
  C100     1.0000 0.33260  0.98820  0.12630  Biso   1.000  C
  C101     1.0000 0.37740  0.98670  0.16940  Biso   1.000  C
  C102     1.0000 0.35750  0.98890  0.10040  Biso   1.000  C
  C103     1.0000 0.40230  0.98750  0.14350  Biso   1.000  C
  C104     1.0000 0.39230  0.98860  0.10910  Biso   1.000  C
  C105     1.0000 0.41910  0.99500  0.08070  Biso   1.000  C
  O30      1.0000 0.40650  0.99640  0.04760  Biso   1.000  O
  O31      1.0000 0.45170  0.99750  0.09370  Biso   1.000  O
  Re5      1.0000 0.20730  0.97840  0.20750  Biso   1.000  Re
  C106     1.0000 0.20540  0.92990  0.19870  Biso   1.000  C
  O32      1.0000 0.20400  0.89980  0.20200  Biso   1.000  O
  C107     1.0000 0.20980  0.97990  0.15820  Biso   1.000  C
  O33      1.0000 0.21200  0.97300  0.12880  Biso   1.000  O
  C108     1.0000 0.15920  0.97480  0.19790  Biso   1.000  C
  O34      1.0000 0.12980  0.97250  0.19200  Biso   1.000  O
  C109     1.0000 0.31680  0.98500  0.18770  Biso   1.000  C
  C110     1.0000 0.28240  0.98350  0.17760  Biso   1.000  C
  C111     1.0000 0.25650  0.98220  0.20230  Biso   1.000  C
  C112     1.0000 0.26490  0.98240  0.23720  Biso   1.000  C
  C113     1.0000 0.29930  0.98380  0.24730  Biso   1.000  C
  C114     1.0000 0.32530  0.98510  0.22260  Biso   1.000  C
  C115     1.0000 0.28710  0.06410  0.28170  Biso   1.000  C
  O35      1.0000 0.30900  0.06800  0.30120  Biso   1.000  O
  Cl10     1.0000 0.28580  0.03750  0.28710  Biso   1.000  Cl
  Cl11     1.0000 0.28950  0.57970  0.79160  Biso   1.000  Cl
  N6       1.0000 0.27430  0.51150  0.72770  Biso   1.000  N
  C116     1.0000 0.27400  0.59040  0.72430  Biso   1.000  C
  C117     1.0000 0.26470  0.47870  0.73870  Biso   1.000  C
  C118     1.0000 0.29960  0.51530  0.70270  Biso   1.000  C
  O36      1.0000 0.28690  0.61390  0.71030  Biso   1.000  O
  C119     1.0000 0.28050  0.44970  0.72470  Biso   1.000  C
  C120     1.0000 0.31540  0.48630  0.68860  Biso   1.000  C
  C121     1.0000 0.30590  0.45350  0.69960  Biso   1.000  C
  C122     1.0000 0.34250  0.48700  0.66070  Biso   1.000  C
  C123     1.0000 0.33260  0.48820  0.62630  Biso   1.000  C
  C124     1.0000 0.37740  0.48670  0.66940  Biso   1.000  C
  C125     1.0000 0.35750  0.48890  0.60040  Biso   1.000  C
  C126     1.0000 0.40230  0.48750  0.64350  Biso   1.000  C
  C127     1.0000 0.39230  0.48860  0.60910  Biso   1.000  C
  C128     1.0000 0.41910  0.49500  0.58070  Biso   1.000  C
  O37      1.0000 0.40650  0.49640  0.54760  Biso   1.000  O
  O38      1.0000 0.45170  0.49750  0.59370  Biso   1.000  O
  Re6      1.0000 0.20730  0.47840  0.70750  Biso   1.000  Re
  C129     1.0000 0.20540  0.42990  0.69870  Biso   1.000  C
  O39      1.0000 0.20400  0.39980  0.70200  Biso   1.000  O
  C130     1.0000 0.20980  0.47990  0.65820  Biso   1.000  C
  O40      1.0000 0.21200  0.47300  0.62880  Biso   1.000  O
  C131     1.0000 0.15920  0.47480  0.69790  Biso   1.000  C
  O41      1.0000 0.12980  0.47250  0.69200  Biso   1.000  O
  C132     1.0000 0.31680  0.48500  0.68770  Biso   1.000  C
  C133     1.0000 0.28240  0.48350  0.67760  Biso   1.000  C
  C134     1.0000 0.25650  0.48220  0.70230  Biso   1.000  C
  C135     1.0000 0.26490  0.48240  0.73720  Biso   1.000  C
  C136     1.0000 0.29930  0.48380  0.74730  Biso   1.000  C
  C137     1.0000 0.32530  0.48510  0.72260  Biso   1.000  C
  C138     1.0000 0.28710  0.56410  0.78170  Biso   1.000  C
  O42      1.0000 0.30900  0.56800  0.80120  Biso   1.000  O
  Cl12     1.0000 0.28580  0.53750  0.78710  Biso   1.000  Cl
  Cl13     1.0000 0.78950  0.07970  0.79160  Biso   1.000  Cl
  N7       1.0000 0.77430  0.01150  0.72770  Biso   1.000  N
  C139     1.0000 0.77400  0.09040  0.72430  Biso   1.000  C
  C140     1.0000 0.76470  0.97870  0.73870  Biso   1.000  C
  C141     1.0000 0.79960  0.01530  0.70270  Biso   1.000  C
  O43      1.0000 0.78690  0.11390  0.71030  Biso   1.000  O
  C142     1.0000 0.78050  0.94970  0.72470  Biso   1.000  C
  C143     1.0000 0.81540  0.98630  0.68860  Biso   1.000  C
  C144     1.0000 0.80590  0.95350  0.69960  Biso   1.000  C
  C145     1.0000 0.84250  0.98700  0.66070  Biso   1.000  C
  C146     1.0000 0.83260  0.98820  0.62630  Biso   1.000  C
  C147     1.0000 0.87740  0.98670  0.66940  Biso   1.000  C
  C148     1.0000 0.85750  0.98890  0.60040  Biso   1.000  C
  C149     1.0000 0.90230  0.98750  0.64350  Biso   1.000  C
  C150     1.0000 0.89230  0.98860  0.60910  Biso   1.000  C
  C151     1.0000 0.91910  0.99500  0.58070  Biso   1.000  C
  O44      1.0000 0.90650  0.99640  0.54760  Biso   1.000  O
  O45      1.0000 0.95170  0.99750  0.59370  Biso   1.000  O
  Re7      1.0000 0.70730  0.97840  0.70750  Biso   1.000  Re
  C152     1.0000 0.70540  0.92990  0.69870  Biso   1.000  C
  O46      1.0000 0.70400  0.89980  0.70200  Biso   1.000  O
  C153     1.0000 0.70980  0.97990  0.65820  Biso   1.000  C
  O47      1.0000 0.71200  0.97300  0.62880  Biso   1.000  O
  C154     1.0000 0.65920  0.97480  0.69790  Biso   1.000  C
  O48      1.0000 0.62980  0.97250  0.69200  Biso   1.000  O
  C155     1.0000 0.81680  0.98500  0.68770  Biso   1.000  C
  C156     1.0000 0.78240  0.98350  0.67760  Biso   1.000  C
  C157     1.0000 0.75650  0.98220  0.70230  Biso   1.000  C
  C158     1.0000 0.76490  0.98240  0.73720  Biso   1.000  C
  C159     1.0000 0.79930  0.98380  0.74730  Biso   1.000  C
  C160     1.0000 0.82530  0.98510  0.72260  Biso   1.000  C
  C161     1.0000 0.78710  0.06410  0.78170  Biso   1.000  C
  O49      1.0000 0.80900  0.06800  0.80120  Biso   1.000  O
  Cl14     1.0000 0.78580  0.03750  0.78710  Biso   1.000  Cl
  Cl15     1.0000 0.78950  0.57970  0.29160  Biso   1.000  Cl
  N8       1.0000 0.77430  0.51150  0.22770  Biso   1.000  N
  C162     1.0000 0.77400  0.59040  0.22430  Biso   1.000  C
  C163     1.0000 0.76470  0.47870  0.23870  Biso   1.000  C
  C164     1.0000 0.79960  0.51530  0.20270  Biso   1.000  C
  O50      1.0000 0.78690  0.61390  0.21030  Biso   1.000  O
  C165     1.0000 0.78050  0.44970  0.22470  Biso   1.000  C
  C166     1.0000 0.81540  0.48630  0.18860  Biso   1.000  C
  C167     1.0000 0.80590  0.45350  0.19960  Biso   1.000  C
  C168     1.0000 0.84250  0.48700  0.16070  Biso   1.000  C
  C169     1.0000 0.83260  0.48820  0.12630  Biso   1.000  C
  C170     1.0000 0.87740  0.48670  0.16940  Biso   1.000  C
  C171     1.0000 0.85750  0.48890  0.10040  Biso   1.000  C
  C172     1.0000 0.90230  0.48750  0.14350  Biso   1.000  C
  C173     1.0000 0.89230  0.48860  0.10910  Biso   1.000  C
  C174     1.0000 0.91910  0.49500  0.08070  Biso   1.000  C
  O51      1.0000 0.90650  0.49640  0.04760  Biso   1.000  O
  O52      1.0000 0.95170  0.49750  0.09370  Biso   1.000  O
  Re8      1.0000 0.70730  0.47840  0.20750  Biso   1.000  Re
  C175     1.0000 0.70540  0.42990  0.19870  Biso   1.000  C
  O53      1.0000 0.70400  0.39980  0.20200  Biso   1.000  O
  C176     1.0000 0.70980  0.47990  0.15820  Biso   1.000  C
  O54      1.0000 0.71200  0.47300  0.12880  Biso   1.000  O
  C177     1.0000 0.65920  0.47480  0.19790  Biso   1.000  C
  O55      1.0000 0.62980  0.47250  0.19200  Biso   1.000  O
  C178     1.0000 0.81680  0.48500  0.18770  Biso   1.000  C
  C179     1.0000 0.78240  0.48350  0.17760  Biso   1.000  C
  C180     1.0000 0.75650  0.48220  0.20230  Biso   1.000  C
  C181     1.0000 0.76490  0.48240  0.23720  Biso   1.000  C
  C182     1.0000 0.79930  0.48380  0.24730  Biso   1.000  C
  C183     1.0000 0.82530  0.48510  0.22260  Biso   1.000  C
  C184     1.0000 0.78710  0.56410  0.28170  Biso   1.000  C
  O56      1.0000 0.80900  0.56800  0.30120  Biso   1.000  O
  Cl16     1.0000 0.78580  0.53750  0.28710  Biso   1.000  Cl
  Cl17     1.0000 0.28950  0.92030  0.70840  Biso   1.000  Cl
  N9       1.0000 0.27430  0.98850  0.77230  Biso   1.000  N
  C185     1.0000 0.27400  0.90960  0.77570  Biso   1.000  C
  C186     1.0000 0.26470  0.02130  0.76130  Biso   1.000  C
  C187     1.0000 0.29960  0.98470  0.79730  Biso   1.000  C
  O57      1.0000 0.28690  0.88610  0.78970  Biso   1.000  O
  C188     1.0000 0.28050  0.05030  0.77530  Biso   1.000  C
  C189     1.0000 0.31540  0.01370  0.81140  Biso   1.000  C
  C190     1.0000 0.30590  0.04650  0.80040  Biso   1.000  C
  C191     1.0000 0.34250  0.01300  0.83930  Biso   1.000  C
  C192     1.0000 0.33260  0.01180  0.87370  Biso   1.000  C
  C193     1.0000 0.37740  0.01330  0.83060  Biso   1.000  C
  C194     1.0000 0.35750  0.01110  0.89960  Biso   1.000  C
  C195     1.0000 0.40230  0.01250  0.85650  Biso   1.000  C
  C196     1.0000 0.39230  0.01140  0.89090  Biso   1.000  C
  C197     1.0000 0.41910  0.00500  0.91930  Biso   1.000  C
  O58      1.0000 0.40650  0.00360  0.95240  Biso   1.000  O
  O59      1.0000 0.45170  0.00250  0.90630  Biso   1.000  O
  Re9      1.0000 0.20730  0.02160  0.79250  Biso   1.000  Re
  C198     1.0000 0.20540  0.07010  0.80130  Biso   1.000  C
  O60      1.0000 0.20400  0.10020  0.79800  Biso   1.000  O
  C199     1.0000 0.20980  0.02010  0.84180  Biso   1.000  C
  O61      1.0000 0.21200  0.02700  0.87120  Biso   1.000  O
  C200     1.0000 0.15920  0.02520  0.80210  Biso   1.000  C
  O62      1.0000 0.12980  0.02750  0.80800  Biso   1.000  O
  C201     1.0000 0.31680  0.01500  0.81230  Biso   1.000  C
  C202     1.0000 0.28240  0.01650  0.82240  Biso   1.000  C
  C203     1.0000 0.25650  0.01780  0.79770  Biso   1.000  C
  C204     1.0000 0.26490  0.01760  0.76280  Biso   1.000  C
  C205     1.0000 0.29930  0.01620  0.75270  Biso   1.000  C
  C206     1.0000 0.32530  0.01490  0.77740  Biso   1.000  C
  C207     1.0000 0.28710  0.93590  0.71830  Biso   1.000  C
  O63      1.0000 0.30900  0.93200  0.69880  Biso   1.000  O
  Cl18     1.0000 0.28580  0.96250  0.71290  Biso   1.000  Cl
  Cl19     1.0000 0.28950  0.42030  0.20840  Biso   1.000  Cl
  N10      1.0000 0.27430  0.48850  0.27230  Biso   1.000  N
  C208     1.0000 0.27400  0.40960  0.27570  Biso   1.000  C
  C209     1.0000 0.26470  0.52130  0.26130  Biso   1.000  C
  C210     1.0000 0.29960  0.48470  0.29730  Biso   1.000  C
  O64      1.0000 0.28690  0.38610  0.28970  Biso   1.000  O
  C211     1.0000 0.28050  0.55030  0.27530  Biso   1.000  C
  C212     1.0000 0.31540  0.51370  0.31140  Biso   1.000  C
  C213     1.0000 0.30590  0.54650  0.30040  Biso   1.000  C
  C214     1.0000 0.34250  0.51300  0.33930  Biso   1.000  C
  C215     1.0000 0.33260  0.51180  0.37370  Biso   1.000  C
  C216     1.0000 0.37740  0.51330  0.33060  Biso   1.000  C
  C217     1.0000 0.35750  0.51110  0.39960  Biso   1.000  C
  C218     1.0000 0.40230  0.51250  0.35650  Biso   1.000  C
  C219     1.0000 0.39230  0.51140  0.39090  Biso   1.000  C
  C220     1.0000 0.41910  0.50500  0.41930  Biso   1.000  C
  O65      1.0000 0.40650  0.50360  0.45240  Biso   1.000  O
  O66      1.0000 0.45170  0.50250  0.40630  Biso   1.000  O
  Re10     1.0000 0.20730  0.52160  0.29250  Biso   1.000  Re
  C221     1.0000 0.20540  0.57010  0.30130  Biso   1.000  C
  O67      1.0000 0.20400  0.60020  0.29800  Biso   1.000  O
  C222     1.0000 0.20980  0.52010  0.34180  Biso   1.000  C
  O68      1.0000 0.21200  0.52700  0.37120  Biso   1.000  O
  C223     1.0000 0.15920  0.52520  0.30210  Biso   1.000  C
  O69      1.0000 0.12980  0.52750  0.30800  Biso   1.000  O
  C224     1.0000 0.31680  0.51500  0.31230  Biso   1.000  C
  C225     1.0000 0.28240  0.51650  0.32240  Biso   1.000  C
  C226     1.0000 0.25650  0.51780  0.29770  Biso   1.000  C
  C227     1.0000 0.26490  0.51760  0.26280  Biso   1.000  C
  C228     1.0000 0.29930  0.51620  0.25270  Biso   1.000  C
  C229     1.0000 0.32530  0.51490  0.27740  Biso   1.000  C
  C230     1.0000 0.28710  0.43590  0.21830  Biso   1.000  C
  O70      1.0000 0.30900  0.43200  0.19880  Biso   1.000  O
  Cl20     1.0000 0.28580  0.46250  0.21290  Biso   1.000  Cl
  Cl21     1.0000 0.78950  0.92030  0.20840  Biso   1.000  Cl
  N11      1.0000 0.77430  0.98850  0.27230  Biso   1.000  N
  C231     1.0000 0.77400  0.90960  0.27570  Biso   1.000  C
  C232     1.0000 0.76470  0.02130  0.26130  Biso   1.000  C
  C233     1.0000 0.79960  0.98470  0.29730  Biso   1.000  C
  O71      1.0000 0.78690  0.88610  0.28970  Biso   1.000  O
  C234     1.0000 0.78050  0.05030  0.27530  Biso   1.000  C
  C235     1.0000 0.81540  0.01370  0.31140  Biso   1.000  C
  C236     1.0000 0.80590  0.04650  0.30040  Biso   1.000  C
  C237     1.0000 0.84250  0.01300  0.33930  Biso   1.000  C
  C238     1.0000 0.83260  0.01180  0.37370  Biso   1.000  C
  C239     1.0000 0.87740  0.01330  0.33060  Biso   1.000  C
  C240     1.0000 0.85750  0.01110  0.39960  Biso   1.000  C
  C241     1.0000 0.90230  0.01250  0.35650  Biso   1.000  C
  C242     1.0000 0.89230  0.01140  0.39090  Biso   1.000  C
  C243     1.0000 0.91910  0.00500  0.41930  Biso   1.000  C
  O72      1.0000 0.90650  0.00360  0.45240  Biso   1.000  O
  O73      1.0000 0.95170  0.00250  0.40630  Biso   1.000  O
  Re11     1.0000 0.70730  0.02160  0.29250  Biso   1.000  Re
  C244     1.0000 0.70540  0.07010  0.30130  Biso   1.000  C
  O74      1.0000 0.70400  0.10020  0.29800  Biso   1.000  O
  C245     1.0000 0.70980  0.02010  0.34180  Biso   1.000  C
  O75      1.0000 0.71200  0.02700  0.37120  Biso   1.000  O
  C246     1.0000 0.65920  0.02520  0.30210  Biso   1.000  C
  O76      1.0000 0.62980  0.02750  0.30800  Biso   1.000  O
  C247     1.0000 0.81680  0.01500  0.31230  Biso   1.000  C
  C248     1.0000 0.78240  0.01650  0.32240  Biso   1.000  C
  C249     1.0000 0.75650  0.01780  0.29770  Biso   1.000  C
  C250     1.0000 0.76490  0.01760  0.26280  Biso   1.000  C
  C251     1.0000 0.79930  0.01620  0.25270  Biso   1.000  C
  C252     1.0000 0.82530  0.01490  0.27740  Biso   1.000  C
  C253     1.0000 0.78710  0.93590  0.21830  Biso   1.000  C
  O77      1.0000 0.80900  0.93200  0.19880  Biso   1.000  O
  Cl22     1.0000 0.78580  0.96250  0.21290  Biso   1.000  Cl
  Cl23     1.0000 0.78950  0.42030  0.70840  Biso   1.000  Cl
  N12      1.0000 0.77430  0.48850  0.77230  Biso   1.000  N
  C254     1.0000 0.77400  0.40960  0.77570  Biso   1.000  C
  C255     1.0000 0.76470  0.52130  0.76130  Biso   1.000  C
  C256     1.0000 0.79960  0.48470  0.79730  Biso   1.000  C
  O78      1.0000 0.78690  0.38610  0.78970  Biso   1.000  O
  C257     1.0000 0.78050  0.55030  0.77530  Biso   1.000  C
  C258     1.0000 0.81540  0.51370  0.81140  Biso   1.000  C
  C259     1.0000 0.80590  0.54650  0.80040  Biso   1.000  C
  C260     1.0000 0.84250  0.51300  0.83930  Biso   1.000  C
  C261     1.0000 0.83260  0.51180  0.87370  Biso   1.000  C
  C262     1.0000 0.87740  0.51330  0.83060  Biso   1.000  C
  C263     1.0000 0.85750  0.51110  0.89960  Biso   1.000  C
  C264     1.0000 0.90230  0.51250  0.85650  Biso   1.000  C
  C265     1.0000 0.89230  0.51140  0.89090  Biso   1.000  C
  C266     1.0000 0.91910  0.50500  0.91930  Biso   1.000  C
  O79      1.0000 0.90650  0.50360  0.95240  Biso   1.000  O
  O80      1.0000 0.95170  0.50250  0.90630  Biso   1.000  O
  Re12     1.0000 0.70730  0.52160  0.79250  Biso   1.000  Re
  C267     1.0000 0.70540  0.57010  0.80130  Biso   1.000  C
  O81      1.0000 0.70400  0.60020  0.79800  Biso   1.000  O
  C268     1.0000 0.70980  0.52010  0.84180  Biso   1.000  C
  O82      1.0000 0.71200  0.52700  0.87120  Biso   1.000  O
  C269     1.0000 0.65920  0.52520  0.80210  Biso   1.000  C
  O83      1.0000 0.62980  0.52750  0.80800  Biso   1.000  O
  C270     1.0000 0.81680  0.51500  0.81230  Biso   1.000  C
  C271     1.0000 0.78240  0.51650  0.82240  Biso   1.000  C
  C272     1.0000 0.75650  0.51780  0.79770  Biso   1.000  C
  C273     1.0000 0.76490  0.51760  0.76280  Biso   1.000  C
  C274     1.0000 0.79930  0.51620  0.75270  Biso   1.000  C
  C275     1.0000 0.82530  0.51490  0.77740  Biso   1.000  C
  C276     1.0000 0.78710  0.43590  0.71830  Biso   1.000  C
  O84      1.0000 0.80900  0.43200  0.69880  Biso   1.000  O
  Cl24     1.0000 0.78580  0.46250  0.71290  Biso   1.000  Cl
  Cl25     1.0000 0.71050  0.07970  0.70840  Biso   1.000  Cl
  N13      1.0000 0.72570  0.01150  0.77230  Biso   1.000  N
  C277     1.0000 0.72600  0.09040  0.77570  Biso   1.000  C
  C278     1.0000 0.73530  0.97870  0.76130  Biso   1.000  C
  C279     1.0000 0.70040  0.01530  0.79730  Biso   1.000  C
  O85      1.0000 0.71310  0.11390  0.78970  Biso   1.000  O
  C280     1.0000 0.71950  0.94970  0.77530  Biso   1.000  C
  C281     1.0000 0.68460  0.98630  0.81140  Biso   1.000  C
  C282     1.0000 0.69410  0.95350  0.80040  Biso   1.000  C
  C283     1.0000 0.65750  0.98700  0.83930  Biso   1.000  C
  C284     1.0000 0.66740  0.98820  0.87370  Biso   1.000  C
  C285     1.0000 0.62260  0.98670  0.83060  Biso   1.000  C
  C286     1.0000 0.64250  0.98890  0.89960  Biso   1.000  C
  C287     1.0000 0.59770  0.98750  0.85650  Biso   1.000  C
  C288     1.0000 0.60770  0.98860  0.89090  Biso   1.000  C
  C289     1.0000 0.58090  0.99500  0.91930  Biso   1.000  C
  O86      1.0000 0.59350  0.99640  0.95240  Biso   1.000  O
  O87      1.0000 0.54830  0.99750  0.90630  Biso   1.000  O
  Re13     1.0000 0.79270  0.97840  0.79250  Biso   1.000  Re
  C290     1.0000 0.79460  0.92990  0.80130  Biso   1.000  C
  O88      1.0000 0.79600  0.89980  0.79800  Biso   1.000  O
  C291     1.0000 0.79020  0.97990  0.84180  Biso   1.000  C
  O89      1.0000 0.78800  0.97300  0.87120  Biso   1.000  O
  C292     1.0000 0.84080  0.97480  0.80210  Biso   1.000  C
  O90      1.0000 0.87020  0.97250  0.80800  Biso   1.000  O
  C293     1.0000 0.68320  0.98500  0.81230  Biso   1.000  C
  C294     1.0000 0.71760  0.98350  0.82240  Biso   1.000  C
  C295     1.0000 0.74350  0.98220  0.79770  Biso   1.000  C
  C296     1.0000 0.73510  0.98240  0.76280  Biso   1.000  C
  C297     1.0000 0.70070  0.98380  0.75270  Biso   1.000  C
  C298     1.0000 0.67470  0.98510  0.77740  Biso   1.000  C
  C299     1.0000 0.71290  0.06410  0.71830  Biso   1.000  C
  O91      1.0000 0.69100  0.06800  0.69880  Biso   1.000  O
  Cl26     1.0000 0.71420  0.03750  0.71290  Biso   1.000  Cl
  Cl27     1.0000 0.71050  0.57970  0.20840  Biso   1.000  Cl
  N14      1.0000 0.72570  0.51150  0.27230  Biso   1.000  N
  C300     1.0000 0.72600  0.59040  0.27570  Biso   1.000  C
  C301     1.0000 0.73530  0.47870  0.26130  Biso   1.000  C
  C302     1.0000 0.70040  0.51530  0.29730  Biso   1.000  C
  O92      1.0000 0.71310  0.61390  0.28970  Biso   1.000  O
  C303     1.0000 0.71950  0.44970  0.27530  Biso   1.000  C
  C304     1.0000 0.68460  0.48630  0.31140  Biso   1.000  C
  C305     1.0000 0.69410  0.45350  0.30040  Biso   1.000  C
  C306     1.0000 0.65750  0.48700  0.33930  Biso   1.000  C
  C307     1.0000 0.66740  0.48820  0.37370  Biso   1.000  C
  C308     1.0000 0.62260  0.48670  0.33060  Biso   1.000  C
  C309     1.0000 0.64250  0.48890  0.39960  Biso   1.000  C
  C310     1.0000 0.59770  0.48750  0.35650  Biso   1.000  C
  C311     1.0000 0.60770  0.48860  0.39090  Biso   1.000  C
  C312     1.0000 0.58090  0.49500  0.41930  Biso   1.000  C
  O93      1.0000 0.59350  0.49640  0.45240  Biso   1.000  O
  O94      1.0000 0.54830  0.49750  0.40630  Biso   1.000  O
  Re14     1.0000 0.79270  0.47840  0.29250  Biso   1.000  Re
  C313     1.0000 0.79460  0.42990  0.30130  Biso   1.000  C
  O95      1.0000 0.79600  0.39980  0.29800  Biso   1.000  O
  C314     1.0000 0.79020  0.47990  0.34180  Biso   1.000  C
  O96      1.0000 0.78800  0.47300  0.37120  Biso   1.000  O
  C315     1.0000 0.84080  0.47480  0.30210  Biso   1.000  C
  O97      1.0000 0.87020  0.47250  0.30800  Biso   1.000  O
  C316     1.0000 0.68320  0.48500  0.31230  Biso   1.000  C
  C317     1.0000 0.71760  0.48350  0.32240  Biso   1.000  C
  C318     1.0000 0.74350  0.48220  0.29770  Biso   1.000  C
  C319     1.0000 0.73510  0.48240  0.26280  Biso   1.000  C
  C320     1.0000 0.70070  0.48380  0.25270  Biso   1.000  C
  C321     1.0000 0.67470  0.48510  0.27740  Biso   1.000  C
  C322     1.0000 0.71290  0.56410  0.21830  Biso   1.000  C
  O98      1.0000 0.69100  0.56800  0.19880  Biso   1.000  O
  Cl28     1.0000 0.71420  0.53750  0.21290  Biso   1.000  Cl
  Cl29     1.0000 0.21050  0.07970  0.20840  Biso   1.000  Cl
  N15      1.0000 0.22570  0.01150  0.27230  Biso   1.000  N
  C323     1.0000 0.22600  0.09040  0.27570  Biso   1.000  C
  C324     1.0000 0.23530  0.97870  0.26130  Biso   1.000  C
  C325     1.0000 0.20040  0.01530  0.29730  Biso   1.000  C
  O99      1.0000 0.21310  0.11390  0.28970  Biso   1.000  O
  C326     1.0000 0.21950  0.94970  0.27530  Biso   1.000  C
  C327     1.0000 0.18460  0.98630  0.31140  Biso   1.000  C
  C328     1.0000 0.19410  0.95350  0.30040  Biso   1.000  C
  C329     1.0000 0.15750  0.98700  0.33930  Biso   1.000  C
  C330     1.0000 0.16740  0.98820  0.37370  Biso   1.000  C
  C331     1.0000 0.12260  0.98670  0.33060  Biso   1.000  C
  C332     1.0000 0.14250  0.98890  0.39960  Biso   1.000  C
  C333     1.0000 0.09770  0.98750  0.35650  Biso   1.000  C
  C334     1.0000 0.10770  0.98860  0.39090  Biso   1.000  C
  C335     1.0000 0.08090  0.99500  0.41930  Biso   1.000  C
  O100     1.0000 0.09350  0.99640  0.45240  Biso   1.000  O
  O101     1.0000 0.04830  0.99750  0.40630  Biso   1.000  O
  Re15     1.0000 0.29270  0.97840  0.29250  Biso   1.000  Re
  C336     1.0000 0.29460  0.92990  0.30130  Biso   1.000  C
  O102     1.0000 0.29600  0.89980  0.29800  Biso   1.000  O
  C337     1.0000 0.29020  0.97990  0.34180  Biso   1.000  C
  O103     1.0000 0.28800  0.97300  0.37120  Biso   1.000  O
  C338     1.0000 0.34080  0.97480  0.30210  Biso   1.000  C
  O104     1.0000 0.37020  0.97250  0.30800  Biso   1.000  O
  C339     1.0000 0.18320  0.98500  0.31230  Biso   1.000  C
  C340     1.0000 0.21760  0.98350  0.32240  Biso   1.000  C
  C341     1.0000 0.24350  0.98220  0.29770  Biso   1.000  C
  C342     1.0000 0.23510  0.98240  0.26280  Biso   1.000  C
  C343     1.0000 0.20070  0.98380  0.25270  Biso   1.000  C
  C344     1.0000 0.17470  0.98510  0.27740  Biso   1.000  C
  C345     1.0000 0.21290  0.06410  0.21830  Biso   1.000  C
  O105     1.0000 0.19100  0.06800  0.19880  Biso   1.000  O
  Cl30     1.0000 0.21420  0.03750  0.21290  Biso   1.000  Cl
  Cl31     1.0000 0.21050  0.57970  0.70840  Biso   1.000  Cl
  N16      1.0000 0.22570  0.51150  0.77230  Biso   1.000  N
  C346     1.0000 0.22600  0.59040  0.77570  Biso   1.000  C
  C347     1.0000 0.23530  0.47870  0.76130  Biso   1.000  C
  C348     1.0000 0.20040  0.51530  0.79730  Biso   1.000  C
  O106     1.0000 0.21310  0.61390  0.78970  Biso   1.000  O
  C349     1.0000 0.21950  0.44970  0.77530  Biso   1.000  C
  C350     1.0000 0.18460  0.48630  0.81140  Biso   1.000  C
  C351     1.0000 0.19410  0.45350  0.80040  Biso   1.000  C
  C352     1.0000 0.15750  0.48700  0.83930  Biso   1.000  C
  C353     1.0000 0.16740  0.48820  0.87370  Biso   1.000  C
  C354     1.0000 0.12260  0.48670  0.83060  Biso   1.000  C
  C355     1.0000 0.14250  0.48890  0.89960  Biso   1.000  C
  C356     1.0000 0.09770  0.48750  0.85650  Biso   1.000  C
  C357     1.0000 0.10770  0.48860  0.89090  Biso   1.000  C
  C358     1.0000 0.08090  0.49500  0.91930  Biso   1.000  C
  O107     1.0000 0.09350  0.49640  0.95240  Biso   1.000  O
  O108     1.0000 0.04830  0.49750  0.90630  Biso   1.000  O
  Re16     1.0000 0.29270  0.47840  0.79250  Biso   1.000  Re
  C359     1.0000 0.29460  0.42990  0.80130  Biso   1.000  C
  O109     1.0000 0.29600  0.39980  0.79800  Biso   1.000  O
  C360     1.0000 0.29020  0.47990  0.84180  Biso   1.000  C
  O110     1.0000 0.28800  0.47300  0.87120  Biso   1.000  O
  C361     1.0000 0.34080  0.47480  0.80210  Biso   1.000  C
  O111     1.0000 0.37020  0.47250  0.80800  Biso   1.000  O
  C362     1.0000 0.18320  0.48500  0.81230  Biso   1.000  C
  C363     1.0000 0.21760  0.48350  0.82240  Biso   1.000  C
  C364     1.0000 0.24350  0.48220  0.79770  Biso   1.000  C
  C365     1.0000 0.23510  0.48240  0.76280  Biso   1.000  C
  C366     1.0000 0.20070  0.48380  0.75270  Biso   1.000  C
  C367     1.0000 0.17470  0.48510  0.77740  Biso   1.000  C
  C368     1.0000 0.21290  0.56410  0.71830  Biso   1.000  C
  O112     1.0000 0.19100  0.56800  0.69880  Biso   1.000  O
  Cl32     1.0000 0.21420  0.53750  0.71290  Biso   1.000  Cl
  Cl33     1.0000 0.29160  0.71050  0.92030  Biso   1.000  Cl
  N17      1.0000 0.22770  0.72570  0.98850  Biso   1.000  N
  C369     1.0000 0.22430  0.72600  0.90960  Biso   1.000  C
  C370     1.0000 0.23870  0.73530  0.02130  Biso   1.000  C
  C371     1.0000 0.20270  0.70040  0.98470  Biso   1.000  C
  O113     1.0000 0.21030  0.71310  0.88610  Biso   1.000  O
  C372     1.0000 0.22470  0.71950  0.05030  Biso   1.000  C
  C373     1.0000 0.18860  0.68460  0.01370  Biso   1.000  C
  C374     1.0000 0.19960  0.69410  0.04650  Biso   1.000  C
  C375     1.0000 0.16070  0.65750  0.01300  Biso   1.000  C
  C376     1.0000 0.12630  0.66740  0.01180  Biso   1.000  C
  C377     1.0000 0.16940  0.62260  0.01330  Biso   1.000  C
  C378     1.0000 0.10040  0.64250  0.01110  Biso   1.000  C
  C379     1.0000 0.14350  0.59770  0.01250  Biso   1.000  C
  C380     1.0000 0.10910  0.60770  0.01140  Biso   1.000  C
  C381     1.0000 0.08070  0.58090  0.00500  Biso   1.000  C
  O114     1.0000 0.04760  0.59350  0.00360  Biso   1.000  O
  O115     1.0000 0.09370  0.54830  0.00250  Biso   1.000  O
  Re17     1.0000 0.20750  0.79270  0.02160  Biso   1.000  Re
  C382     1.0000 0.19870  0.79460  0.07010  Biso   1.000  C
  O116     1.0000 0.20200  0.79600  0.10020  Biso   1.000  O
  C383     1.0000 0.15820  0.79020  0.02010  Biso   1.000  C
  O117     1.0000 0.12880  0.78800  0.02700  Biso   1.000  O
  C384     1.0000 0.19790  0.84080  0.02520  Biso   1.000  C
  O118     1.0000 0.19200  0.87020  0.02750  Biso   1.000  O
  C385     1.0000 0.18770  0.68320  0.01500  Biso   1.000  C
  C386     1.0000 0.17760  0.71760  0.01650  Biso   1.000  C
  C387     1.0000 0.20230  0.74350  0.01780  Biso   1.000  C
  C388     1.0000 0.23720  0.73510  0.01760  Biso   1.000  C
  C389     1.0000 0.24730  0.70070  0.01620  Biso   1.000  C
  C390     1.0000 0.22260  0.67470  0.01490  Biso   1.000  C
  C391     1.0000 0.28170  0.71290  0.93590  Biso   1.000  C
  O119     1.0000 0.30120  0.69100  0.93200  Biso   1.000  O
  Cl34     1.0000 0.28710  0.71420  0.96250  Biso   1.000  Cl
  Cl35     1.0000 0.29160  0.21050  0.42030  Biso   1.000  Cl
  N18      1.0000 0.22770  0.22570  0.48850  Biso   1.000  N
  C392     1.0000 0.22430  0.22600  0.40960  Biso   1.000  C
  C393     1.0000 0.23870  0.23530  0.52130  Biso   1.000  C
  C394     1.0000 0.20270  0.20040  0.48470  Biso   1.000  C
  O120     1.0000 0.21030  0.21310  0.38610  Biso   1.000  O
  C395     1.0000 0.22470  0.21950  0.55030  Biso   1.000  C
  C396     1.0000 0.18860  0.18460  0.51370  Biso   1.000  C
  C397     1.0000 0.19960  0.19410  0.54650  Biso   1.000  C
  C398     1.0000 0.16070  0.15750  0.51300  Biso   1.000  C
  C399     1.0000 0.12630  0.16740  0.51180  Biso   1.000  C
  C400     1.0000 0.16940  0.12260  0.51330  Biso   1.000  C
  C401     1.0000 0.10040  0.14250  0.51110  Biso   1.000  C
  C402     1.0000 0.14350  0.09770  0.51250  Biso   1.000  C
  C403     1.0000 0.10910  0.10770  0.51140  Biso   1.000  C
  C404     1.0000 0.08070  0.08090  0.50500  Biso   1.000  C
  O121     1.0000 0.04760  0.09350  0.50360  Biso   1.000  O
  O122     1.0000 0.09370  0.04830  0.50250  Biso   1.000  O
  Re18     1.0000 0.20750  0.29270  0.52160  Biso   1.000  Re
  C405     1.0000 0.19870  0.29460  0.57010  Biso   1.000  C
  O123     1.0000 0.20200  0.29600  0.60020  Biso   1.000  O
  C406     1.0000 0.15820  0.29020  0.52010  Biso   1.000  C
  O124     1.0000 0.12880  0.28800  0.52700  Biso   1.000  O
  C407     1.0000 0.19790  0.34080  0.52520  Biso   1.000  C
  O125     1.0000 0.19200  0.37020  0.52750  Biso   1.000  O
  C408     1.0000 0.18770  0.18320  0.51500  Biso   1.000  C
  C409     1.0000 0.17760  0.21760  0.51650  Biso   1.000  C
  C410     1.0000 0.20230  0.24350  0.51780  Biso   1.000  C
  C411     1.0000 0.23720  0.23510  0.51760  Biso   1.000  C
  C412     1.0000 0.24730  0.20070  0.51620  Biso   1.000  C
  C413     1.0000 0.22260  0.17470  0.51490  Biso   1.000  C
  C414     1.0000 0.28170  0.21290  0.43590  Biso   1.000  C
  O126     1.0000 0.30120  0.19100  0.43200  Biso   1.000  O
  Cl36     1.0000 0.28710  0.21420  0.46250  Biso   1.000  Cl
  Cl37     1.0000 0.79160  0.71050  0.42030  Biso   1.000  Cl
  N19      1.0000 0.72770  0.72570  0.48850  Biso   1.000  N
  C415     1.0000 0.72430  0.72600  0.40960  Biso   1.000  C
  C416     1.0000 0.73870  0.73530  0.52130  Biso   1.000  C
  C417     1.0000 0.70270  0.70040  0.48470  Biso   1.000  C
  O127     1.0000 0.71030  0.71310  0.38610  Biso   1.000  O
  C418     1.0000 0.72470  0.71950  0.55030  Biso   1.000  C
  C419     1.0000 0.68860  0.68460  0.51370  Biso   1.000  C
  C420     1.0000 0.69960  0.69410  0.54650  Biso   1.000  C
  C421     1.0000 0.66070  0.65750  0.51300  Biso   1.000  C
  C422     1.0000 0.62630  0.66740  0.51180  Biso   1.000  C
  C423     1.0000 0.66940  0.62260  0.51330  Biso   1.000  C
  C424     1.0000 0.60040  0.64250  0.51110  Biso   1.000  C
  C425     1.0000 0.64350  0.59770  0.51250  Biso   1.000  C
  C426     1.0000 0.60910  0.60770  0.51140  Biso   1.000  C
  C427     1.0000 0.58070  0.58090  0.50500  Biso   1.000  C
  O128     1.0000 0.54760  0.59350  0.50360  Biso   1.000  O
  O129     1.0000 0.59370  0.54830  0.50250  Biso   1.000  O
  Re19     1.0000 0.70750  0.79270  0.52160  Biso   1.000  Re
  C428     1.0000 0.69870  0.79460  0.57010  Biso   1.000  C
  O130     1.0000 0.70200  0.79600  0.60020  Biso   1.000  O
  C429     1.0000 0.65820  0.79020  0.52010  Biso   1.000  C
  O131     1.0000 0.62880  0.78800  0.52700  Biso   1.000  O
  C430     1.0000 0.69790  0.84080  0.52520  Biso   1.000  C
  O132     1.0000 0.69200  0.87020  0.52750  Biso   1.000  O
  C431     1.0000 0.68770  0.68320  0.51500  Biso   1.000  C
  C432     1.0000 0.67760  0.71760  0.51650  Biso   1.000  C
  C433     1.0000 0.70230  0.74350  0.51780  Biso   1.000  C
  C434     1.0000 0.73720  0.73510  0.51760  Biso   1.000  C
  C435     1.0000 0.74730  0.70070  0.51620  Biso   1.000  C
  C436     1.0000 0.72260  0.67470  0.51490  Biso   1.000  C
  C437     1.0000 0.78170  0.71290  0.43590  Biso   1.000  C
  O133     1.0000 0.80120  0.69100  0.43200  Biso   1.000  O
  Cl38     1.0000 0.78710  0.71420  0.46250  Biso   1.000  Cl
  Cl39     1.0000 0.79160  0.21050  0.92030  Biso   1.000  Cl
  N20      1.0000 0.72770  0.22570  0.98850  Biso   1.000  N
  C438     1.0000 0.72430  0.22600  0.90960  Biso   1.000  C
  C439     1.0000 0.73870  0.23530  0.02130  Biso   1.000  C
  C440     1.0000 0.70270  0.20040  0.98470  Biso   1.000  C
  O134     1.0000 0.71030  0.21310  0.88610  Biso   1.000  O
  C441     1.0000 0.72470  0.21950  0.05030  Biso   1.000  C
  C442     1.0000 0.68860  0.18460  0.01370  Biso   1.000  C
  C443     1.0000 0.69960  0.19410  0.04650  Biso   1.000  C
  C444     1.0000 0.66070  0.15750  0.01300  Biso   1.000  C
  C445     1.0000 0.62630  0.16740  0.01180  Biso   1.000  C
  C446     1.0000 0.66940  0.12260  0.01330  Biso   1.000  C
  C447     1.0000 0.60040  0.14250  0.01110  Biso   1.000  C
  C448     1.0000 0.64350  0.09770  0.01250  Biso   1.000  C
  C449     1.0000 0.60910  0.10770  0.01140  Biso   1.000  C
  C450     1.0000 0.58070  0.08090  0.00500  Biso   1.000  C
  O135     1.0000 0.54760  0.09350  0.00360  Biso   1.000  O
  O136     1.0000 0.59370  0.04830  0.00250  Biso   1.000  O
  Re20     1.0000 0.70750  0.29270  0.02160  Biso   1.000  Re
  C451     1.0000 0.69870  0.29460  0.07010  Biso   1.000  C
  O137     1.0000 0.70200  0.29600  0.10020  Biso   1.000  O
  C452     1.0000 0.65820  0.29020  0.02010  Biso   1.000  C
  O138     1.0000 0.62880  0.28800  0.02700  Biso   1.000  O
  C453     1.0000 0.69790  0.34080  0.02520  Biso   1.000  C
  O139     1.0000 0.69200  0.37020  0.02750  Biso   1.000  O
  C454     1.0000 0.68770  0.18320  0.01500  Biso   1.000  C
  C455     1.0000 0.67760  0.21760  0.01650  Biso   1.000  C
  C456     1.0000 0.70230  0.24350  0.01780  Biso   1.000  C
  C457     1.0000 0.73720  0.23510  0.01760  Biso   1.000  C
  C458     1.0000 0.74730  0.20070  0.01620  Biso   1.000  C
  C459     1.0000 0.72260  0.17470  0.01490  Biso   1.000  C
  C460     1.0000 0.78170  0.21290  0.93590  Biso   1.000  C
  O140     1.0000 0.80120  0.19100  0.93200  Biso   1.000  O
  Cl40     1.0000 0.78710  0.21420  0.96250  Biso   1.000  Cl
  Cl41     1.0000 0.29160  0.28950  0.07970  Biso   1.000  Cl
  N21      1.0000 0.22770  0.27430  0.01150  Biso   1.000  N
  C461     1.0000 0.22430  0.27400  0.09040  Biso   1.000  C
  C462     1.0000 0.23870  0.26470  0.97870  Biso   1.000  C
  C463     1.0000 0.20270  0.29960  0.01530  Biso   1.000  C
  O141     1.0000 0.21030  0.28690  0.11390  Biso   1.000  O
  C464     1.0000 0.22470  0.28050  0.94970  Biso   1.000  C
  C465     1.0000 0.18860  0.31540  0.98630  Biso   1.000  C
  C466     1.0000 0.19960  0.30590  0.95350  Biso   1.000  C
  C467     1.0000 0.16070  0.34250  0.98700  Biso   1.000  C
  C468     1.0000 0.12630  0.33260  0.98820  Biso   1.000  C
  C469     1.0000 0.16940  0.37740  0.98670  Biso   1.000  C
  C470     1.0000 0.10040  0.35750  0.98890  Biso   1.000  C
  C471     1.0000 0.14350  0.40230  0.98750  Biso   1.000  C
  C472     1.0000 0.10910  0.39230  0.98860  Biso   1.000  C
  C473     1.0000 0.08070  0.41910  0.99500  Biso   1.000  C
  O142     1.0000 0.04760  0.40650  0.99640  Biso   1.000  O
  O143     1.0000 0.09370  0.45170  0.99750  Biso   1.000  O
  Re21     1.0000 0.20750  0.20730  0.97840  Biso   1.000  Re
  C474     1.0000 0.19870  0.20540  0.92990  Biso   1.000  C
  O144     1.0000 0.20200  0.20400  0.89980  Biso   1.000  O
  C475     1.0000 0.15820  0.20980  0.97990  Biso   1.000  C
  O145     1.0000 0.12880  0.21200  0.97300  Biso   1.000  O
  C476     1.0000 0.19790  0.15920  0.97480  Biso   1.000  C
  O146     1.0000 0.19200  0.12980  0.97250  Biso   1.000  O
  C477     1.0000 0.18770  0.31680  0.98500  Biso   1.000  C
  C478     1.0000 0.17760  0.28240  0.98350  Biso   1.000  C
  C479     1.0000 0.20230  0.25650  0.98220  Biso   1.000  C
  C480     1.0000 0.23720  0.26490  0.98240  Biso   1.000  C
  C481     1.0000 0.24730  0.29930  0.98380  Biso   1.000  C
  C482     1.0000 0.22260  0.32530  0.98510  Biso   1.000  C
  C483     1.0000 0.28170  0.28710  0.06410  Biso   1.000  C
  O147     1.0000 0.30120  0.30900  0.06800  Biso   1.000  O
  Cl42     1.0000 0.28710  0.28580  0.03750  Biso   1.000  Cl
  Cl43     1.0000 0.29160  0.78950  0.57970  Biso   1.000  Cl
  N22      1.0000 0.22770  0.77430  0.51150  Biso   1.000  N
  C484     1.0000 0.22430  0.77400  0.59040  Biso   1.000  C
  C485     1.0000 0.23870  0.76470  0.47870  Biso   1.000  C
  C486     1.0000 0.20270  0.79960  0.51530  Biso   1.000  C
  O148     1.0000 0.21030  0.78690  0.61390  Biso   1.000  O
  C487     1.0000 0.22470  0.78050  0.44970  Biso   1.000  C
  C488     1.0000 0.18860  0.81540  0.48630  Biso   1.000  C
  C489     1.0000 0.19960  0.80590  0.45350  Biso   1.000  C
  C490     1.0000 0.16070  0.84250  0.48700  Biso   1.000  C
  C491     1.0000 0.12630  0.83260  0.48820  Biso   1.000  C
  C492     1.0000 0.16940  0.87740  0.48670  Biso   1.000  C
  C493     1.0000 0.10040  0.85750  0.48890  Biso   1.000  C
  C494     1.0000 0.14350  0.90230  0.48750  Biso   1.000  C
  C495     1.0000 0.10910  0.89230  0.48860  Biso   1.000  C
  C496     1.0000 0.08070  0.91910  0.49500  Biso   1.000  C
  O149     1.0000 0.04760  0.90650  0.49640  Biso   1.000  O
  O150     1.0000 0.09370  0.95170  0.49750  Biso   1.000  O
  Re22     1.0000 0.20750  0.70730  0.47840  Biso   1.000  Re
  C497     1.0000 0.19870  0.70540  0.42990  Biso   1.000  C
  O151     1.0000 0.20200  0.70400  0.39980  Biso   1.000  O
  C498     1.0000 0.15820  0.70980  0.47990  Biso   1.000  C
  O152     1.0000 0.12880  0.71200  0.47300  Biso   1.000  O
  C499     1.0000 0.19790  0.65920  0.47480  Biso   1.000  C
  O153     1.0000 0.19200  0.62980  0.47250  Biso   1.000  O
  C500     1.0000 0.18770  0.81680  0.48500  Biso   1.000  C
  C501     1.0000 0.17760  0.78240  0.48350  Biso   1.000  C
  C502     1.0000 0.20230  0.75650  0.48220  Biso   1.000  C
  C503     1.0000 0.23720  0.76490  0.48240  Biso   1.000  C
  C504     1.0000 0.24730  0.79930  0.48380  Biso   1.000  C
  C505     1.0000 0.22260  0.82530  0.48510  Biso   1.000  C
  C506     1.0000 0.28170  0.78710  0.56410  Biso   1.000  C
  O154     1.0000 0.30120  0.80900  0.56800  Biso   1.000  O
  Cl44     1.0000 0.28710  0.78580  0.53750  Biso   1.000  Cl
  Cl45     1.0000 0.79160  0.28950  0.57970  Biso   1.000  Cl
  N23      1.0000 0.72770  0.27430  0.51150  Biso   1.000  N
  C507     1.0000 0.72430  0.27400  0.59040  Biso   1.000  C
  C508     1.0000 0.73870  0.26470  0.47870  Biso   1.000  C
  C509     1.0000 0.70270  0.29960  0.51530  Biso   1.000  C
  O155     1.0000 0.71030  0.28690  0.61390  Biso   1.000  O
  C510     1.0000 0.72470  0.28050  0.44970  Biso   1.000  C
  C511     1.0000 0.68860  0.31540  0.48630  Biso   1.000  C
  C512     1.0000 0.69960  0.30590  0.45350  Biso   1.000  C
  C513     1.0000 0.66070  0.34250  0.48700  Biso   1.000  C
  C514     1.0000 0.62630  0.33260  0.48820  Biso   1.000  C
  C515     1.0000 0.66940  0.37740  0.48670  Biso   1.000  C
  C516     1.0000 0.60040  0.35750  0.48890  Biso   1.000  C
  C517     1.0000 0.64350  0.40230  0.48750  Biso   1.000  C
  C518     1.0000 0.60910  0.39230  0.48860  Biso   1.000  C
  C519     1.0000 0.58070  0.41910  0.49500  Biso   1.000  C
  O156     1.0000 0.54760  0.40650  0.49640  Biso   1.000  O
  O157     1.0000 0.59370  0.45170  0.49750  Biso   1.000  O
  Re23     1.0000 0.70750  0.20730  0.47840  Biso   1.000  Re
  C520     1.0000 0.69870  0.20540  0.42990  Biso   1.000  C
  O158     1.0000 0.70200  0.20400  0.39980  Biso   1.000  O
  C521     1.0000 0.65820  0.20980  0.47990  Biso   1.000  C
  O159     1.0000 0.62880  0.21200  0.47300  Biso   1.000  O
  C522     1.0000 0.69790  0.15920  0.47480  Biso   1.000  C
  O160     1.0000 0.69200  0.12980  0.47250  Biso   1.000  O
  C523     1.0000 0.68770  0.31680  0.48500  Biso   1.000  C
  C524     1.0000 0.67760  0.28240  0.48350  Biso   1.000  C
  C525     1.0000 0.70230  0.25650  0.48220  Biso   1.000  C
  C526     1.0000 0.73720  0.26490  0.48240  Biso   1.000  C
  C527     1.0000 0.74730  0.29930  0.48380  Biso   1.000  C
  C528     1.0000 0.72260  0.32530  0.48510  Biso   1.000  C
  C529     1.0000 0.78170  0.28710  0.56410  Biso   1.000  C
  O161     1.0000 0.80120  0.30900  0.56800  Biso   1.000  O
  Cl46     1.0000 0.78710  0.28580  0.53750  Biso   1.000  Cl
  Cl47     1.0000 0.79160  0.78950  0.07970  Biso   1.000  Cl
  N24      1.0000 0.72770  0.77430  0.01150  Biso   1.000  N
  C530     1.0000 0.72430  0.77400  0.09040  Biso   1.000  C
  C531     1.0000 0.73870  0.76470  0.97870  Biso   1.000  C
  C532     1.0000 0.70270  0.79960  0.01530  Biso   1.000  C
  O162     1.0000 0.71030  0.78690  0.11390  Biso   1.000  O
  C533     1.0000 0.72470  0.78050  0.94970  Biso   1.000  C
  C534     1.0000 0.68860  0.81540  0.98630  Biso   1.000  C
  C535     1.0000 0.69960  0.80590  0.95350  Biso   1.000  C
  C536     1.0000 0.66070  0.84250  0.98700  Biso   1.000  C
  C537     1.0000 0.62630  0.83260  0.98820  Biso   1.000  C
  C538     1.0000 0.66940  0.87740  0.98670  Biso   1.000  C
  C539     1.0000 0.60040  0.85750  0.98890  Biso   1.000  C
  C540     1.0000 0.64350  0.90230  0.98750  Biso   1.000  C
  C541     1.0000 0.60910  0.89230  0.98860  Biso   1.000  C
  C542     1.0000 0.58070  0.91910  0.99500  Biso   1.000  C
  O163     1.0000 0.54760  0.90650  0.99640  Biso   1.000  O
  O164     1.0000 0.59370  0.95170  0.99750  Biso   1.000  O
  Re24     1.0000 0.70750  0.70730  0.97840  Biso   1.000  Re
  C543     1.0000 0.69870  0.70540  0.92990  Biso   1.000  C
  O165     1.0000 0.70200  0.70400  0.89980  Biso   1.000  O
  C544     1.0000 0.65820  0.70980  0.97990  Biso   1.000  C
  O166     1.0000 0.62880  0.71200  0.97300  Biso   1.000  O
  C545     1.0000 0.69790  0.65920  0.97480  Biso   1.000  C
  O167     1.0000 0.69200  0.62980  0.97250  Biso   1.000  O
  C546     1.0000 0.68770  0.81680  0.98500  Biso   1.000  C
  C547     1.0000 0.67760  0.78240  0.98350  Biso   1.000  C
  C548     1.0000 0.70230  0.75650  0.98220  Biso   1.000  C
  C549     1.0000 0.73720  0.76490  0.98240  Biso   1.000  C
  C550     1.0000 0.74730  0.79930  0.98380  Biso   1.000  C
  C551     1.0000 0.72260  0.82530  0.98510  Biso   1.000  C
  C552     1.0000 0.78170  0.78710  0.06410  Biso   1.000  C
  O168     1.0000 0.80120  0.80900  0.06800  Biso   1.000  O
  Cl48     1.0000 0.78710  0.78580  0.03750  Biso   1.000  Cl
  Cl49     1.0000 0.70840  0.28950  0.92030  Biso   1.000  Cl
  N25      1.0000 0.77230  0.27430  0.98850  Biso   1.000  N
  C553     1.0000 0.77570  0.27400  0.90960  Biso   1.000  C
  C554     1.0000 0.76130  0.26470  0.02130  Biso   1.000  C
  C555     1.0000 0.79730  0.29960  0.98470  Biso   1.000  C
  O169     1.0000 0.78970  0.28690  0.88610  Biso   1.000  O
  C556     1.0000 0.77530  0.28050  0.05030  Biso   1.000  C
  C557     1.0000 0.81140  0.31540  0.01370  Biso   1.000  C
  C558     1.0000 0.80040  0.30590  0.04650  Biso   1.000  C
  C559     1.0000 0.83930  0.34250  0.01300  Biso   1.000  C
  C560     1.0000 0.87370  0.33260  0.01180  Biso   1.000  C
  C561     1.0000 0.83060  0.37740  0.01330  Biso   1.000  C
  C562     1.0000 0.89960  0.35750  0.01110  Biso   1.000  C
  C563     1.0000 0.85650  0.40230  0.01250  Biso   1.000  C
  C564     1.0000 0.89090  0.39230  0.01140  Biso   1.000  C
  C565     1.0000 0.91930  0.41910  0.00500  Biso   1.000  C
  O170     1.0000 0.95240  0.40650  0.00360  Biso   1.000  O
  O171     1.0000 0.90630  0.45170  0.00250  Biso   1.000  O
  Re25     1.0000 0.79250  0.20730  0.02160  Biso   1.000  Re
  C566     1.0000 0.80130  0.20540  0.07010  Biso   1.000  C
  O172     1.0000 0.79800  0.20400  0.10020  Biso   1.000  O
  C567     1.0000 0.84180  0.20980  0.02010  Biso   1.000  C
  O173     1.0000 0.87120  0.21200  0.02700  Biso   1.000  O
  C568     1.0000 0.80210  0.15920  0.02520  Biso   1.000  C
  O174     1.0000 0.80800  0.12980  0.02750  Biso   1.000  O
  C569     1.0000 0.81230  0.31680  0.01500  Biso   1.000  C
  C570     1.0000 0.82240  0.28240  0.01650  Biso   1.000  C
  C571     1.0000 0.79770  0.25650  0.01780  Biso   1.000  C
  C572     1.0000 0.76280  0.26490  0.01760  Biso   1.000  C
  C573     1.0000 0.75270  0.29930  0.01620  Biso   1.000  C
  C574     1.0000 0.77740  0.32530  0.01490  Biso   1.000  C
  C575     1.0000 0.71830  0.28710  0.93590  Biso   1.000  C
  O175     1.0000 0.69880  0.30900  0.93200  Biso   1.000  O
  Cl50     1.0000 0.71290  0.28580  0.96250  Biso   1.000  Cl
  Cl51     1.0000 0.70840  0.78950  0.42030  Biso   1.000  Cl
  N26      1.0000 0.77230  0.77430  0.48850  Biso   1.000  N
  C576     1.0000 0.77570  0.77400  0.40960  Biso   1.000  C
  C577     1.0000 0.76130  0.76470  0.52130  Biso   1.000  C
  C578     1.0000 0.79730  0.79960  0.48470  Biso   1.000  C
  O176     1.0000 0.78970  0.78690  0.38610  Biso   1.000  O
  C579     1.0000 0.77530  0.78050  0.55030  Biso   1.000  C
  C580     1.0000 0.81140  0.81540  0.51370  Biso   1.000  C
  C581     1.0000 0.80040  0.80590  0.54650  Biso   1.000  C
  C582     1.0000 0.83930  0.84250  0.51300  Biso   1.000  C
  C583     1.0000 0.87370  0.83260  0.51180  Biso   1.000  C
  C584     1.0000 0.83060  0.87740  0.51330  Biso   1.000  C
  C585     1.0000 0.89960  0.85750  0.51110  Biso   1.000  C
  C586     1.0000 0.85650  0.90230  0.51250  Biso   1.000  C
  C587     1.0000 0.89090  0.89230  0.51140  Biso   1.000  C
  C588     1.0000 0.91930  0.91910  0.50500  Biso   1.000  C
  O177     1.0000 0.95240  0.90650  0.50360  Biso   1.000  O
  O178     1.0000 0.90630  0.95170  0.50250  Biso   1.000  O
  Re26     1.0000 0.79250  0.70730  0.52160  Biso   1.000  Re
  C589     1.0000 0.80130  0.70540  0.57010  Biso   1.000  C
  O179     1.0000 0.79800  0.70400  0.60020  Biso   1.000  O
  C590     1.0000 0.84180  0.70980  0.52010  Biso   1.000  C
  O180     1.0000 0.87120  0.71200  0.52700  Biso   1.000  O
  C591     1.0000 0.80210  0.65920  0.52520  Biso   1.000  C
  O181     1.0000 0.80800  0.62980  0.52750  Biso   1.000  O
  C592     1.0000 0.81230  0.81680  0.51500  Biso   1.000  C
  C593     1.0000 0.82240  0.78240  0.51650  Biso   1.000  C
  C594     1.0000 0.79770  0.75650  0.51780  Biso   1.000  C
  C595     1.0000 0.76280  0.76490  0.51760  Biso   1.000  C
  C596     1.0000 0.75270  0.79930  0.51620  Biso   1.000  C
  C597     1.0000 0.77740  0.82530  0.51490  Biso   1.000  C
  C598     1.0000 0.71830  0.78710  0.43590  Biso   1.000  C
  O182     1.0000 0.69880  0.80900  0.43200  Biso   1.000  O
  Cl52     1.0000 0.71290  0.78580  0.46250  Biso   1.000  Cl
  Cl53     1.0000 0.20840  0.28950  0.42030  Biso   1.000  Cl
  N27      1.0000 0.27230  0.27430  0.48850  Biso   1.000  N
  C599     1.0000 0.27570  0.27400  0.40960  Biso   1.000  C
  C600     1.0000 0.26130  0.26470  0.52130  Biso   1.000  C
  C601     1.0000 0.29730  0.29960  0.48470  Biso   1.000  C
  O183     1.0000 0.28970  0.28690  0.38610  Biso   1.000  O
  C602     1.0000 0.27530  0.28050  0.55030  Biso   1.000  C
  C603     1.0000 0.31140  0.31540  0.51370  Biso   1.000  C
  C604     1.0000 0.30040  0.30590  0.54650  Biso   1.000  C
  C605     1.0000 0.33930  0.34250  0.51300  Biso   1.000  C
  C606     1.0000 0.37370  0.33260  0.51180  Biso   1.000  C
  C607     1.0000 0.33060  0.37740  0.51330  Biso   1.000  C
  C608     1.0000 0.39960  0.35750  0.51110  Biso   1.000  C
  C609     1.0000 0.35650  0.40230  0.51250  Biso   1.000  C
  C610     1.0000 0.39090  0.39230  0.51140  Biso   1.000  C
  C611     1.0000 0.41930  0.41910  0.50500  Biso   1.000  C
  O184     1.0000 0.45240  0.40650  0.50360  Biso   1.000  O
  O185     1.0000 0.40630  0.45170  0.50250  Biso   1.000  O
  Re27     1.0000 0.29250  0.20730  0.52160  Biso   1.000  Re
  C612     1.0000 0.30130  0.20540  0.57010  Biso   1.000  C
  O186     1.0000 0.29800  0.20400  0.60020  Biso   1.000  O
  C613     1.0000 0.34180  0.20980  0.52010  Biso   1.000  C
  O187     1.0000 0.37120  0.21200  0.52700  Biso   1.000  O
  C614     1.0000 0.30210  0.15920  0.52520  Biso   1.000  C
  O188     1.0000 0.30800  0.12980  0.52750  Biso   1.000  O
  C615     1.0000 0.31230  0.31680  0.51500  Biso   1.000  C
  C616     1.0000 0.32240  0.28240  0.51650  Biso   1.000  C
  C617     1.0000 0.29770  0.25650  0.51780  Biso   1.000  C
  C618     1.0000 0.26280  0.26490  0.51760  Biso   1.000  C
  C619     1.0000 0.25270  0.29930  0.51620  Biso   1.000  C
  C620     1.0000 0.27740  0.32530  0.51490  Biso   1.000  C
  C621     1.0000 0.21830  0.28710  0.43590  Biso   1.000  C
  O189     1.0000 0.19880  0.30900  0.43200  Biso   1.000  O
  Cl54     1.0000 0.21290  0.28580  0.46250  Biso   1.000  Cl
  Cl55     1.0000 0.20840  0.78950  0.92030  Biso   1.000  Cl
  N28      1.0000 0.27230  0.77430  0.98850  Biso   1.000  N
  C622     1.0000 0.27570  0.77400  0.90960  Biso   1.000  C
  C623     1.0000 0.26130  0.76470  0.02130  Biso   1.000  C
  C624     1.0000 0.29730  0.79960  0.98470  Biso   1.000  C
  O190     1.0000 0.28970  0.78690  0.88610  Biso   1.000  O
  C625     1.0000 0.27530  0.78050  0.05030  Biso   1.000  C
  C626     1.0000 0.31140  0.81540  0.01370  Biso   1.000  C
  C627     1.0000 0.30040  0.80590  0.04650  Biso   1.000  C
  C628     1.0000 0.33930  0.84250  0.01300  Biso   1.000  C
  C629     1.0000 0.37370  0.83260  0.01180  Biso   1.000  C
  C630     1.0000 0.33060  0.87740  0.01330  Biso   1.000  C
  C631     1.0000 0.39960  0.85750  0.01110  Biso   1.000  C
  C632     1.0000 0.35650  0.90230  0.01250  Biso   1.000  C
  C633     1.0000 0.39090  0.89230  0.01140  Biso   1.000  C
  C634     1.0000 0.41930  0.91910  0.00500  Biso   1.000  C
  O191     1.0000 0.45240  0.90650  0.00360  Biso   1.000  O
  O192     1.0000 0.40630  0.95170  0.00250  Biso   1.000  O
  Re28     1.0000 0.29250  0.70730  0.02160  Biso   1.000  Re
  C635     1.0000 0.30130  0.70540  0.07010  Biso   1.000  C
  O193     1.0000 0.29800  0.70400  0.10020  Biso   1.000  O
  C636     1.0000 0.34180  0.70980  0.02010  Biso   1.000  C
  O194     1.0000 0.37120  0.71200  0.02700  Biso   1.000  O
  C637     1.0000 0.30210  0.65920  0.02520  Biso   1.000  C
  O195     1.0000 0.30800  0.62980  0.02750  Biso   1.000  O
  C638     1.0000 0.31230  0.81680  0.01500  Biso   1.000  C
  C639     1.0000 0.32240  0.78240  0.01650  Biso   1.000  C
  C640     1.0000 0.29770  0.75650  0.01780  Biso   1.000  C
  C641     1.0000 0.26280  0.76490  0.01760  Biso   1.000  C
  C642     1.0000 0.25270  0.79930  0.01620  Biso   1.000  C
  C643     1.0000 0.27740  0.82530  0.01490  Biso   1.000  C
  C644     1.0000 0.21830  0.78710  0.93590  Biso   1.000  C
  O196     1.0000 0.19880  0.80900  0.93200  Biso   1.000  O
  Cl56     1.0000 0.21290  0.78580  0.96250  Biso   1.000  Cl
  Cl57     1.0000 0.70840  0.71050  0.07970  Biso   1.000  Cl
  N29      1.0000 0.77230  0.72570  0.01150  Biso   1.000  N
  C645     1.0000 0.77570  0.72600  0.09040  Biso   1.000  C
  C646     1.0000 0.76130  0.73530  0.97870  Biso   1.000  C
  C647     1.0000 0.79730  0.70040  0.01530  Biso   1.000  C
  O197     1.0000 0.78970  0.71310  0.11390  Biso   1.000  O
  C648     1.0000 0.77530  0.71950  0.94970  Biso   1.000  C
  C649     1.0000 0.81140  0.68460  0.98630  Biso   1.000  C
  C650     1.0000 0.80040  0.69410  0.95350  Biso   1.000  C
  C651     1.0000 0.83930  0.65750  0.98700  Biso   1.000  C
  C652     1.0000 0.87370  0.66740  0.98820  Biso   1.000  C
  C653     1.0000 0.83060  0.62260  0.98670  Biso   1.000  C
  C654     1.0000 0.89960  0.64250  0.98890  Biso   1.000  C
  C655     1.0000 0.85650  0.59770  0.98750  Biso   1.000  C
  C656     1.0000 0.89090  0.60770  0.98860  Biso   1.000  C
  C657     1.0000 0.91930  0.58090  0.99500  Biso   1.000  C
  O198     1.0000 0.95240  0.59350  0.99640  Biso   1.000  O
  O199     1.0000 0.90630  0.54830  0.99750  Biso   1.000  O
  Re29     1.0000 0.79250  0.79270  0.97840  Biso   1.000  Re
  C658     1.0000 0.80130  0.79460  0.92990  Biso   1.000  C
  O200     1.0000 0.79800  0.79600  0.89980  Biso   1.000  O
  C659     1.0000 0.84180  0.79020  0.97990  Biso   1.000  C
  O201     1.0000 0.87120  0.78800  0.97300  Biso   1.000  O
  C660     1.0000 0.80210  0.84080  0.97480  Biso   1.000  C
  O202     1.0000 0.80800  0.87020  0.97250  Biso   1.000  O
  C661     1.0000 0.81230  0.68320  0.98500  Biso   1.000  C
  C662     1.0000 0.82240  0.71760  0.98350  Biso   1.000  C
  C663     1.0000 0.79770  0.74350  0.98220  Biso   1.000  C
  C664     1.0000 0.76280  0.73510  0.98240  Biso   1.000  C
  C665     1.0000 0.75270  0.70070  0.98380  Biso   1.000  C
  C666     1.0000 0.77740  0.67470  0.98510  Biso   1.000  C
  C667     1.0000 0.71830  0.71290  0.06410  Biso   1.000  C
  O203     1.0000 0.69880  0.69100  0.06800  Biso   1.000  O
  Cl58     1.0000 0.71290  0.71420  0.03750  Biso   1.000  Cl
  Cl59     1.0000 0.70840  0.21050  0.57970  Biso   1.000  Cl
  N30      1.0000 0.77230  0.22570  0.51150  Biso   1.000  N
  C668     1.0000 0.77570  0.22600  0.59040  Biso   1.000  C
  C669     1.0000 0.76130  0.23530  0.47870  Biso   1.000  C
  C670     1.0000 0.79730  0.20040  0.51530  Biso   1.000  C
  O204     1.0000 0.78970  0.21310  0.61390  Biso   1.000  O
  C671     1.0000 0.77530  0.21950  0.44970  Biso   1.000  C
  C672     1.0000 0.81140  0.18460  0.48630  Biso   1.000  C
  C673     1.0000 0.80040  0.19410  0.45350  Biso   1.000  C
  C674     1.0000 0.83930  0.15750  0.48700  Biso   1.000  C
  C675     1.0000 0.87370  0.16740  0.48820  Biso   1.000  C
  C676     1.0000 0.83060  0.12260  0.48670  Biso   1.000  C
  C677     1.0000 0.89960  0.14250  0.48890  Biso   1.000  C
  C678     1.0000 0.85650  0.09770  0.48750  Biso   1.000  C
  C679     1.0000 0.89090  0.10770  0.48860  Biso   1.000  C
  C680     1.0000 0.91930  0.08090  0.49500  Biso   1.000  C
  O205     1.0000 0.95240  0.09350  0.49640  Biso   1.000  O
  O206     1.0000 0.90630  0.04830  0.49750  Biso   1.000  O
  Re30     1.0000 0.79250  0.29270  0.47840  Biso   1.000  Re
  C681     1.0000 0.80130  0.29460  0.42990  Biso   1.000  C
  O207     1.0000 0.79800  0.29600  0.39980  Biso   1.000  O
  C682     1.0000 0.84180  0.29020  0.47990  Biso   1.000  C
  O208     1.0000 0.87120  0.28800  0.47300  Biso   1.000  O
  C683     1.0000 0.80210  0.34080  0.47480  Biso   1.000  C
  O209     1.0000 0.80800  0.37020  0.47250  Biso   1.000  O
  C684     1.0000 0.81230  0.18320  0.48500  Biso   1.000  C
  C685     1.0000 0.82240  0.21760  0.48350  Biso   1.000  C
  C686     1.0000 0.79770  0.24350  0.48220  Biso   1.000  C
  C687     1.0000 0.76280  0.23510  0.48240  Biso   1.000  C
  C688     1.0000 0.75270  0.20070  0.48380  Biso   1.000  C
  C689     1.0000 0.77740  0.17470  0.48510  Biso   1.000  C
  C690     1.0000 0.71830  0.21290  0.56410  Biso   1.000  C
  O210     1.0000 0.69880  0.19100  0.56800  Biso   1.000  O
  Cl60     1.0000 0.71290  0.21420  0.53750  Biso   1.000  Cl
  Cl61     1.0000 0.20840  0.71050  0.57970  Biso   1.000  Cl
  N31      1.0000 0.27230  0.72570  0.51150  Biso   1.000  N
  C691     1.0000 0.27570  0.72600  0.59040  Biso   1.000  C
  C692     1.0000 0.26130  0.73530  0.47870  Biso   1.000  C
  C693     1.0000 0.29730  0.70040  0.51530  Biso   1.000  C
  O211     1.0000 0.28970  0.71310  0.61390  Biso   1.000  O
  C694     1.0000 0.27530  0.71950  0.44970  Biso   1.000  C
  C695     1.0000 0.31140  0.68460  0.48630  Biso   1.000  C
  C696     1.0000 0.30040  0.69410  0.45350  Biso   1.000  C
  C697     1.0000 0.33930  0.65750  0.48700  Biso   1.000  C
  C698     1.0000 0.37370  0.66740  0.48820  Biso   1.000  C
  C699     1.0000 0.33060  0.62260  0.48670  Biso   1.000  C
  C700     1.0000 0.39960  0.64250  0.48890  Biso   1.000  C
  C701     1.0000 0.35650  0.59770  0.48750  Biso   1.000  C
  C702     1.0000 0.39090  0.60770  0.48860  Biso   1.000  C
  C703     1.0000 0.41930  0.58090  0.49500  Biso   1.000  C
  O212     1.0000 0.45240  0.59350  0.49640  Biso   1.000  O
  O213     1.0000 0.40630  0.54830  0.49750  Biso   1.000  O
  Re31     1.0000 0.29250  0.79270  0.47840  Biso   1.000  Re
  C704     1.0000 0.30130  0.79460  0.42990  Biso   1.000  C
  O214     1.0000 0.29800  0.79600  0.39980  Biso   1.000  O
  C705     1.0000 0.34180  0.79020  0.47990  Biso   1.000  C
  O215     1.0000 0.37120  0.78800  0.47300  Biso   1.000  O
  C706     1.0000 0.30210  0.84080  0.47480  Biso   1.000  C
  O216     1.0000 0.30800  0.87020  0.47250  Biso   1.000  O
  C707     1.0000 0.31230  0.68320  0.48500  Biso   1.000  C
  C708     1.0000 0.32240  0.71760  0.48350  Biso   1.000  C
  C709     1.0000 0.29770  0.74350  0.48220  Biso   1.000  C
  C710     1.0000 0.26280  0.73510  0.48240  Biso   1.000  C
  C711     1.0000 0.25270  0.70070  0.48380  Biso   1.000  C
  C712     1.0000 0.27740  0.67470  0.48510  Biso   1.000  C
  C713     1.0000 0.21830  0.71290  0.56410  Biso   1.000  C
  O217     1.0000 0.19880  0.69100  0.56800  Biso   1.000  O
  Cl62     1.0000 0.21290  0.71420  0.53750  Biso   1.000  Cl
  Cl63     1.0000 0.20840  0.21050  0.07970  Biso   1.000  Cl
  N32      1.0000 0.27230  0.22570  0.01150  Biso   1.000  N
  C714     1.0000 0.27570  0.22600  0.09040  Biso   1.000  C
  C715     1.0000 0.26130  0.23530  0.97870  Biso   1.000  C
  C716     1.0000 0.29730  0.20040  0.01530  Biso   1.000  C
  O218     1.0000 0.28970  0.21310  0.11390  Biso   1.000  O
  C717     1.0000 0.27530  0.21950  0.94970  Biso   1.000  C
  C718     1.0000 0.31140  0.18460  0.98630  Biso   1.000  C
  C719     1.0000 0.30040  0.19410  0.95350  Biso   1.000  C
  C720     1.0000 0.33930  0.15750  0.98700  Biso   1.000  C
  C721     1.0000 0.37370  0.16740  0.98820  Biso   1.000  C
  C722     1.0000 0.33060  0.12260  0.98670  Biso   1.000  C
  C723     1.0000 0.39960  0.14250  0.98890  Biso   1.000  C
  C724     1.0000 0.35650  0.09770  0.98750  Biso   1.000  C
  C725     1.0000 0.39090  0.10770  0.98860  Biso   1.000  C
  C726     1.0000 0.41930  0.08090  0.99500  Biso   1.000  C
  O219     1.0000 0.45240  0.09350  0.99640  Biso   1.000  O
  O220     1.0000 0.40630  0.04830  0.99750  Biso   1.000  O
  Re32     1.0000 0.29250  0.29270  0.97840  Biso   1.000  Re
  C727     1.0000 0.30130  0.29460  0.92990  Biso   1.000  C
  O221     1.0000 0.29800  0.29600  0.89980  Biso   1.000  O
  C728     1.0000 0.34180  0.29020  0.97990  Biso   1.000  C
  O222     1.0000 0.37120  0.28800  0.97300  Biso   1.000  O
  C729     1.0000 0.30210  0.34080  0.97480  Biso   1.000  C
  O223     1.0000 0.30800  0.37020  0.97250  Biso   1.000  O
  C730     1.0000 0.31230  0.18320  0.98500  Biso   1.000  C
  C731     1.0000 0.32240  0.21760  0.98350  Biso   1.000  C
  C732     1.0000 0.29770  0.24350  0.98220  Biso   1.000  C
  C733     1.0000 0.26280  0.23510  0.98240  Biso   1.000  C
  C734     1.0000 0.25270  0.20070  0.98380  Biso   1.000  C
  C735     1.0000 0.27740  0.17470  0.98510  Biso   1.000  C
  C736     1.0000 0.21830  0.21290  0.06410  Biso   1.000  C
  O224     1.0000 0.19880  0.19100  0.06800  Biso   1.000  O
  Cl64     1.0000 0.21290  0.21420  0.03750  Biso   1.000  Cl
  Cl65     1.0000 0.92030  0.29160  0.71050  Biso   1.000  Cl
  N33      1.0000 0.98850  0.22770  0.72570  Biso   1.000  N
  C737     1.0000 0.90960  0.22430  0.72600  Biso   1.000  C
  C738     1.0000 0.02130  0.23870  0.73530  Biso   1.000  C
  C739     1.0000 0.98470  0.20270  0.70040  Biso   1.000  C
  O225     1.0000 0.88610  0.21030  0.71310  Biso   1.000  O
  C740     1.0000 0.05030  0.22470  0.71950  Biso   1.000  C
  C741     1.0000 0.01370  0.18860  0.68460  Biso   1.000  C
  C742     1.0000 0.04650  0.19960  0.69410  Biso   1.000  C
  C743     1.0000 0.01300  0.16070  0.65750  Biso   1.000  C
  C744     1.0000 0.01180  0.12630  0.66740  Biso   1.000  C
  C745     1.0000 0.01330  0.16940  0.62260  Biso   1.000  C
  C746     1.0000 0.01110  0.10040  0.64250  Biso   1.000  C
  C747     1.0000 0.01250  0.14350  0.59770  Biso   1.000  C
  C748     1.0000 0.01140  0.10910  0.60770  Biso   1.000  C
  C749     1.0000 0.00500  0.08070  0.58090  Biso   1.000  C
  O226     1.0000 0.00360  0.04760  0.59350  Biso   1.000  O
  O227     1.0000 0.00250  0.09370  0.54830  Biso   1.000  O
  Re33     1.0000 0.02160  0.20750  0.79270  Biso   1.000  Re
  C750     1.0000 0.07010  0.19870  0.79460  Biso   1.000  C
  O228     1.0000 0.10020  0.20200  0.79600  Biso   1.000  O
  C751     1.0000 0.02010  0.15820  0.79020  Biso   1.000  C
  O229     1.0000 0.02700  0.12880  0.78800  Biso   1.000  O
  C752     1.0000 0.02520  0.19790  0.84080  Biso   1.000  C
  O230     1.0000 0.02750  0.19200  0.87020  Biso   1.000  O
  C753     1.0000 0.01500  0.18770  0.68320  Biso   1.000  C
  C754     1.0000 0.01650  0.17760  0.71760  Biso   1.000  C
  C755     1.0000 0.01780  0.20230  0.74350  Biso   1.000  C
  C756     1.0000 0.01760  0.23720  0.73510  Biso   1.000  C
  C757     1.0000 0.01620  0.24730  0.70070  Biso   1.000  C
  C758     1.0000 0.01490  0.22260  0.67470  Biso   1.000  C
  C759     1.0000 0.93590  0.28170  0.71290  Biso   1.000  C
  O231     1.0000 0.93200  0.30120  0.69100  Biso   1.000  O
  Cl66     1.0000 0.96250  0.28710  0.71420  Biso   1.000  Cl
  Cl67     1.0000 0.92030  0.79160  0.21050  Biso   1.000  Cl
  N34      1.0000 0.98850  0.72770  0.22570  Biso   1.000  N
  C760     1.0000 0.90960  0.72430  0.22600  Biso   1.000  C
  C761     1.0000 0.02130  0.73870  0.23530  Biso   1.000  C
  C762     1.0000 0.98470  0.70270  0.20040  Biso   1.000  C
  O232     1.0000 0.88610  0.71030  0.21310  Biso   1.000  O
  C763     1.0000 0.05030  0.72470  0.21950  Biso   1.000  C
  C764     1.0000 0.01370  0.68860  0.18460  Biso   1.000  C
  C765     1.0000 0.04650  0.69960  0.19410  Biso   1.000  C
  C766     1.0000 0.01300  0.66070  0.15750  Biso   1.000  C
  C767     1.0000 0.01180  0.62630  0.16740  Biso   1.000  C
  C768     1.0000 0.01330  0.66940  0.12260  Biso   1.000  C
  C769     1.0000 0.01110  0.60040  0.14250  Biso   1.000  C
  C770     1.0000 0.01250  0.64350  0.09770  Biso   1.000  C
  C771     1.0000 0.01140  0.60910  0.10770  Biso   1.000  C
  C772     1.0000 0.00500  0.58070  0.08090  Biso   1.000  C
  O233     1.0000 0.00360  0.54760  0.09350  Biso   1.000  O
  O234     1.0000 0.00250  0.59370  0.04830  Biso   1.000  O
  Re34     1.0000 0.02160  0.70750  0.29270  Biso   1.000  Re
  C773     1.0000 0.07010  0.69870  0.29460  Biso   1.000  C
  O235     1.0000 0.10020  0.70200  0.29600  Biso   1.000  O
  C774     1.0000 0.02010  0.65820  0.29020  Biso   1.000  C
  O236     1.0000 0.02700  0.62880  0.28800  Biso   1.000  O
  C775     1.0000 0.02520  0.69790  0.34080  Biso   1.000  C
  O237     1.0000 0.02750  0.69200  0.37020  Biso   1.000  O
  C776     1.0000 0.01500  0.68770  0.18320  Biso   1.000  C
  C777     1.0000 0.01650  0.67760  0.21760  Biso   1.000  C
  C778     1.0000 0.01780  0.70230  0.24350  Biso   1.000  C
  C779     1.0000 0.01760  0.73720  0.23510  Biso   1.000  C
  C780     1.0000 0.01620  0.74730  0.20070  Biso   1.000  C
  C781     1.0000 0.01490  0.72260  0.17470  Biso   1.000  C
  C782     1.0000 0.93590  0.78170  0.21290  Biso   1.000  C
  O238     1.0000 0.93200  0.80120  0.19100  Biso   1.000  O
  Cl68     1.0000 0.96250  0.78710  0.21420  Biso   1.000  Cl
  Cl69     1.0000 0.42030  0.29160  0.21050  Biso   1.000  Cl
  N35      1.0000 0.48850  0.22770  0.22570  Biso   1.000  N
  C783     1.0000 0.40960  0.22430  0.22600  Biso   1.000  C
  C784     1.0000 0.52130  0.23870  0.23530  Biso   1.000  C
  C785     1.0000 0.48470  0.20270  0.20040  Biso   1.000  C
  O239     1.0000 0.38610  0.21030  0.21310  Biso   1.000  O
  C786     1.0000 0.55030  0.22470  0.21950  Biso   1.000  C
  C787     1.0000 0.51370  0.18860  0.18460  Biso   1.000  C
  C788     1.0000 0.54650  0.19960  0.19410  Biso   1.000  C
  C789     1.0000 0.51300  0.16070  0.15750  Biso   1.000  C
  C790     1.0000 0.51180  0.12630  0.16740  Biso   1.000  C
  C791     1.0000 0.51330  0.16940  0.12260  Biso   1.000  C
  C792     1.0000 0.51110  0.10040  0.14250  Biso   1.000  C
  C793     1.0000 0.51250  0.14350  0.09770  Biso   1.000  C
  C794     1.0000 0.51140  0.10910  0.10770  Biso   1.000  C
  C795     1.0000 0.50500  0.08070  0.08090  Biso   1.000  C
  O240     1.0000 0.50360  0.04760  0.09350  Biso   1.000  O
  O241     1.0000 0.50250  0.09370  0.04830  Biso   1.000  O
  Re35     1.0000 0.52160  0.20750  0.29270  Biso   1.000  Re
  C796     1.0000 0.57010  0.19870  0.29460  Biso   1.000  C
  O242     1.0000 0.60020  0.20200  0.29600  Biso   1.000  O
  C797     1.0000 0.52010  0.15820  0.29020  Biso   1.000  C
  O243     1.0000 0.52700  0.12880  0.28800  Biso   1.000  O
  C798     1.0000 0.52520  0.19790  0.34080  Biso   1.000  C
  O244     1.0000 0.52750  0.19200  0.37020  Biso   1.000  O
  C799     1.0000 0.51500  0.18770  0.18320  Biso   1.000  C
  C800     1.0000 0.51650  0.17760  0.21760  Biso   1.000  C
  C801     1.0000 0.51780  0.20230  0.24350  Biso   1.000  C
  C802     1.0000 0.51760  0.23720  0.23510  Biso   1.000  C
  C803     1.0000 0.51620  0.24730  0.20070  Biso   1.000  C
  C804     1.0000 0.51490  0.22260  0.17470  Biso   1.000  C
  C805     1.0000 0.43590  0.28170  0.21290  Biso   1.000  C
  O245     1.0000 0.43200  0.30120  0.19100  Biso   1.000  O
  Cl70     1.0000 0.46250  0.28710  0.21420  Biso   1.000  Cl
  Cl71     1.0000 0.42030  0.79160  0.71050  Biso   1.000  Cl
  N36      1.0000 0.48850  0.72770  0.72570  Biso   1.000  N
  C806     1.0000 0.40960  0.72430  0.72600  Biso   1.000  C
  C807     1.0000 0.52130  0.73870  0.73530  Biso   1.000  C
  C808     1.0000 0.48470  0.70270  0.70040  Biso   1.000  C
  O246     1.0000 0.38610  0.71030  0.71310  Biso   1.000  O
  C809     1.0000 0.55030  0.72470  0.71950  Biso   1.000  C
  C810     1.0000 0.51370  0.68860  0.68460  Biso   1.000  C
  C811     1.0000 0.54650  0.69960  0.69410  Biso   1.000  C
  C812     1.0000 0.51300  0.66070  0.65750  Biso   1.000  C
  C813     1.0000 0.51180  0.62630  0.66740  Biso   1.000  C
  C814     1.0000 0.51330  0.66940  0.62260  Biso   1.000  C
  C815     1.0000 0.51110  0.60040  0.64250  Biso   1.000  C
  C816     1.0000 0.51250  0.64350  0.59770  Biso   1.000  C
  C817     1.0000 0.51140  0.60910  0.60770  Biso   1.000  C
  C818     1.0000 0.50500  0.58070  0.58090  Biso   1.000  C
  O247     1.0000 0.50360  0.54760  0.59350  Biso   1.000  O
  O248     1.0000 0.50250  0.59370  0.54830  Biso   1.000  O
  Re36     1.0000 0.52160  0.70750  0.79270  Biso   1.000  Re
  C819     1.0000 0.57010  0.69870  0.79460  Biso   1.000  C
  O249     1.0000 0.60020  0.70200  0.79600  Biso   1.000  O
  C820     1.0000 0.52010  0.65820  0.79020  Biso   1.000  C
  O250     1.0000 0.52700  0.62880  0.78800  Biso   1.000  O
  C821     1.0000 0.52520  0.69790  0.84080  Biso   1.000  C
  O251     1.0000 0.52750  0.69200  0.87020  Biso   1.000  O
  C822     1.0000 0.51500  0.68770  0.68320  Biso   1.000  C
  C823     1.0000 0.51650  0.67760  0.71760  Biso   1.000  C
  C824     1.0000 0.51780  0.70230  0.74350  Biso   1.000  C
  C825     1.0000 0.51760  0.73720  0.73510  Biso   1.000  C
  C826     1.0000 0.51620  0.74730  0.70070  Biso   1.000  C
  C827     1.0000 0.51490  0.72260  0.67470  Biso   1.000  C
  C828     1.0000 0.43590  0.78170  0.71290  Biso   1.000  C
  O252     1.0000 0.43200  0.80120  0.69100  Biso   1.000  O
  Cl72     1.0000 0.46250  0.78710  0.71420  Biso   1.000  Cl
  Cl73     1.0000 0.07970  0.29160  0.28950  Biso   1.000  Cl
  N37      1.0000 0.01150  0.22770  0.27430  Biso   1.000  N
  C829     1.0000 0.09040  0.22430  0.27400  Biso   1.000  C
  C830     1.0000 0.97870  0.23870  0.26470  Biso   1.000  C
  C831     1.0000 0.01530  0.20270  0.29960  Biso   1.000  C
  O253     1.0000 0.11390  0.21030  0.28690  Biso   1.000  O
  C832     1.0000 0.94970  0.22470  0.28050  Biso   1.000  C
  C833     1.0000 0.98630  0.18860  0.31540  Biso   1.000  C
  C834     1.0000 0.95350  0.19960  0.30590  Biso   1.000  C
  C835     1.0000 0.98700  0.16070  0.34250  Biso   1.000  C
  C836     1.0000 0.98820  0.12630  0.33260  Biso   1.000  C
  C837     1.0000 0.98670  0.16940  0.37740  Biso   1.000  C
  C838     1.0000 0.98890  0.10040  0.35750  Biso   1.000  C
  C839     1.0000 0.98750  0.14350  0.40230  Biso   1.000  C
  C840     1.0000 0.98860  0.10910  0.39230  Biso   1.000  C
  C841     1.0000 0.99500  0.08070  0.41910  Biso   1.000  C
  O254     1.0000 0.99640  0.04760  0.40650  Biso   1.000  O
  O255     1.0000 0.99750  0.09370  0.45170  Biso   1.000  O
  Re37     1.0000 0.97840  0.20750  0.20730  Biso   1.000  Re
  C842     1.0000 0.92990  0.19870  0.20540  Biso   1.000  C
  O256     1.0000 0.89980  0.20200  0.20400  Biso   1.000  O
  C843     1.0000 0.97990  0.15820  0.20980  Biso   1.000  C
  O257     1.0000 0.97300  0.12880  0.21200  Biso   1.000  O
  C844     1.0000 0.97480  0.19790  0.15920  Biso   1.000  C
  O258     1.0000 0.97250  0.19200  0.12980  Biso   1.000  O
  C845     1.0000 0.98500  0.18770  0.31680  Biso   1.000  C
  C846     1.0000 0.98350  0.17760  0.28240  Biso   1.000  C
  C847     1.0000 0.98220  0.20230  0.25650  Biso   1.000  C
  C848     1.0000 0.98240  0.23720  0.26490  Biso   1.000  C
  C849     1.0000 0.98380  0.24730  0.29930  Biso   1.000  C
  C850     1.0000 0.98510  0.22260  0.32530  Biso   1.000  C
  C851     1.0000 0.06410  0.28170  0.28710  Biso   1.000  C
  O259     1.0000 0.06800  0.30120  0.30900  Biso   1.000  O
  Cl74     1.0000 0.03750  0.28710  0.28580  Biso   1.000  Cl
  Cl75     1.0000 0.07970  0.79160  0.78950  Biso   1.000  Cl
  N38      1.0000 0.01150  0.72770  0.77430  Biso   1.000  N
  C852     1.0000 0.09040  0.72430  0.77400  Biso   1.000  C
  C853     1.0000 0.97870  0.73870  0.76470  Biso   1.000  C
  C854     1.0000 0.01530  0.70270  0.79960  Biso   1.000  C
  O260     1.0000 0.11390  0.71030  0.78690  Biso   1.000  O
  C855     1.0000 0.94970  0.72470  0.78050  Biso   1.000  C
  C856     1.0000 0.98630  0.68860  0.81540  Biso   1.000  C
  C857     1.0000 0.95350  0.69960  0.80590  Biso   1.000  C
  C858     1.0000 0.98700  0.66070  0.84250  Biso   1.000  C
  C859     1.0000 0.98820  0.62630  0.83260  Biso   1.000  C
  C860     1.0000 0.98670  0.66940  0.87740  Biso   1.000  C
  C861     1.0000 0.98890  0.60040  0.85750  Biso   1.000  C
  C862     1.0000 0.98750  0.64350  0.90230  Biso   1.000  C
  C863     1.0000 0.98860  0.60910  0.89230  Biso   1.000  C
  C864     1.0000 0.99500  0.58070  0.91910  Biso   1.000  C
  O261     1.0000 0.99640  0.54760  0.90650  Biso   1.000  O
  O262     1.0000 0.99750  0.59370  0.95170  Biso   1.000  O
  Re38     1.0000 0.97840  0.70750  0.70730  Biso   1.000  Re
  C865     1.0000 0.92990  0.69870  0.70540  Biso   1.000  C
  O263     1.0000 0.89980  0.70200  0.70400  Biso   1.000  O
  C866     1.0000 0.97990  0.65820  0.70980  Biso   1.000  C
  O264     1.0000 0.97300  0.62880  0.71200  Biso   1.000  O
  C867     1.0000 0.97480  0.69790  0.65920  Biso   1.000  C
  O265     1.0000 0.97250  0.69200  0.62980  Biso   1.000  O
  C868     1.0000 0.98500  0.68770  0.81680  Biso   1.000  C
  C869     1.0000 0.98350  0.67760  0.78240  Biso   1.000  C
  C870     1.0000 0.98220  0.70230  0.75650  Biso   1.000  C
  C871     1.0000 0.98240  0.73720  0.76490  Biso   1.000  C
  C872     1.0000 0.98380  0.74730  0.79930  Biso   1.000  C
  C873     1.0000 0.98510  0.72260  0.82530  Biso   1.000  C
  C874     1.0000 0.06410  0.78170  0.78710  Biso   1.000  C
  O266     1.0000 0.06800  0.80120  0.80900  Biso   1.000  O
  Cl76     1.0000 0.03750  0.78710  0.78580  Biso   1.000  Cl
  Cl77     1.0000 0.57970  0.29160  0.78950  Biso   1.000  Cl
  N39      1.0000 0.51150  0.22770  0.77430  Biso   1.000  N
  C875     1.0000 0.59040  0.22430  0.77400  Biso   1.000  C
  C876     1.0000 0.47870  0.23870  0.76470  Biso   1.000  C
  C877     1.0000 0.51530  0.20270  0.79960  Biso   1.000  C
  O267     1.0000 0.61390  0.21030  0.78690  Biso   1.000  O
  C878     1.0000 0.44970  0.22470  0.78050  Biso   1.000  C
  C879     1.0000 0.48630  0.18860  0.81540  Biso   1.000  C
  C880     1.0000 0.45350  0.19960  0.80590  Biso   1.000  C
  C881     1.0000 0.48700  0.16070  0.84250  Biso   1.000  C
  C882     1.0000 0.48820  0.12630  0.83260  Biso   1.000  C
  C883     1.0000 0.48670  0.16940  0.87740  Biso   1.000  C
  C884     1.0000 0.48890  0.10040  0.85750  Biso   1.000  C
  C885     1.0000 0.48750  0.14350  0.90230  Biso   1.000  C
  C886     1.0000 0.48860  0.10910  0.89230  Biso   1.000  C
  C887     1.0000 0.49500  0.08070  0.91910  Biso   1.000  C
  O268     1.0000 0.49640  0.04760  0.90650  Biso   1.000  O
  O269     1.0000 0.49750  0.09370  0.95170  Biso   1.000  O
  Re39     1.0000 0.47840  0.20750  0.70730  Biso   1.000  Re
  C888     1.0000 0.42990  0.19870  0.70540  Biso   1.000  C
  O270     1.0000 0.39980  0.20200  0.70400  Biso   1.000  O
  C889     1.0000 0.47990  0.15820  0.70980  Biso   1.000  C
  O271     1.0000 0.47300  0.12880  0.71200  Biso   1.000  O
  C890     1.0000 0.47480  0.19790  0.65920  Biso   1.000  C
  O272     1.0000 0.47250  0.19200  0.62980  Biso   1.000  O
  C891     1.0000 0.48500  0.18770  0.81680  Biso   1.000  C
  C892     1.0000 0.48350  0.17760  0.78240  Biso   1.000  C
  C893     1.0000 0.48220  0.20230  0.75650  Biso   1.000  C
  C894     1.0000 0.48240  0.23720  0.76490  Biso   1.000  C
  C895     1.0000 0.48380  0.24730  0.79930  Biso   1.000  C
  C896     1.0000 0.48510  0.22260  0.82530  Biso   1.000  C
  C897     1.0000 0.56410  0.28170  0.78710  Biso   1.000  C
  O273     1.0000 0.56800  0.30120  0.80900  Biso   1.000  O
  Cl78     1.0000 0.53750  0.28710  0.78580  Biso   1.000  Cl
  Cl79     1.0000 0.57970  0.79160  0.28950  Biso   1.000  Cl
  N40      1.0000 0.51150  0.72770  0.27430  Biso   1.000  N
  C898     1.0000 0.59040  0.72430  0.27400  Biso   1.000  C
  C899     1.0000 0.47870  0.73870  0.26470  Biso   1.000  C
  C900     1.0000 0.51530  0.70270  0.29960  Biso   1.000  C
  O274     1.0000 0.61390  0.71030  0.28690  Biso   1.000  O
  C901     1.0000 0.44970  0.72470  0.28050  Biso   1.000  C
  C902     1.0000 0.48630  0.68860  0.31540  Biso   1.000  C
  C903     1.0000 0.45350  0.69960  0.30590  Biso   1.000  C
  C904     1.0000 0.48700  0.66070  0.34250  Biso   1.000  C
  C905     1.0000 0.48820  0.62630  0.33260  Biso   1.000  C
  C906     1.0000 0.48670  0.66940  0.37740  Biso   1.000  C
  C907     1.0000 0.48890  0.60040  0.35750  Biso   1.000  C
  C908     1.0000 0.48750  0.64350  0.40230  Biso   1.000  C
  C909     1.0000 0.48860  0.60910  0.39230  Biso   1.000  C
  C910     1.0000 0.49500  0.58070  0.41910  Biso   1.000  C
  O275     1.0000 0.49640  0.54760  0.40650  Biso   1.000  O
  O276     1.0000 0.49750  0.59370  0.45170  Biso   1.000  O
  Re40     1.0000 0.47840  0.70750  0.20730  Biso   1.000  Re
  C911     1.0000 0.42990  0.69870  0.20540  Biso   1.000  C
  O277     1.0000 0.39980  0.70200  0.20400  Biso   1.000  O
  C912     1.0000 0.47990  0.65820  0.20980  Biso   1.000  C
  O278     1.0000 0.47300  0.62880  0.21200  Biso   1.000  O
  C913     1.0000 0.47480  0.69790  0.15920  Biso   1.000  C
  O279     1.0000 0.47250  0.69200  0.12980  Biso   1.000  O
  C914     1.0000 0.48500  0.68770  0.31680  Biso   1.000  C
  C915     1.0000 0.48350  0.67760  0.28240  Biso   1.000  C
  C916     1.0000 0.48220  0.70230  0.25650  Biso   1.000  C
  C917     1.0000 0.48240  0.73720  0.26490  Biso   1.000  C
  C918     1.0000 0.48380  0.74730  0.29930  Biso   1.000  C
  C919     1.0000 0.48510  0.72260  0.32530  Biso   1.000  C
  C920     1.0000 0.56410  0.78170  0.28710  Biso   1.000  C
  O280     1.0000 0.56800  0.80120  0.30900  Biso   1.000  O
  Cl80     1.0000 0.53750  0.78710  0.28580  Biso   1.000  Cl
  Cl81     1.0000 0.92030  0.70840  0.28950  Biso   1.000  Cl
  N41      1.0000 0.98850  0.77230  0.27430  Biso   1.000  N
  C921     1.0000 0.90960  0.77570  0.27400  Biso   1.000  C
  C922     1.0000 0.02130  0.76130  0.26470  Biso   1.000  C
  C923     1.0000 0.98470  0.79730  0.29960  Biso   1.000  C
  O281     1.0000 0.88610  0.78970  0.28690  Biso   1.000  O
  C924     1.0000 0.05030  0.77530  0.28050  Biso   1.000  C
  C925     1.0000 0.01370  0.81140  0.31540  Biso   1.000  C
  C926     1.0000 0.04650  0.80040  0.30590  Biso   1.000  C
  C927     1.0000 0.01300  0.83930  0.34250  Biso   1.000  C
  C928     1.0000 0.01180  0.87370  0.33260  Biso   1.000  C
  C929     1.0000 0.01330  0.83060  0.37740  Biso   1.000  C
  C930     1.0000 0.01110  0.89960  0.35750  Biso   1.000  C
  C931     1.0000 0.01250  0.85650  0.40230  Biso   1.000  C
  C932     1.0000 0.01140  0.89090  0.39230  Biso   1.000  C
  C933     1.0000 0.00500  0.91930  0.41910  Biso   1.000  C
  O282     1.0000 0.00360  0.95240  0.40650  Biso   1.000  O
  O283     1.0000 0.00250  0.90630  0.45170  Biso   1.000  O
  Re41     1.0000 0.02160  0.79250  0.20730  Biso   1.000  Re
  C934     1.0000 0.07010  0.80130  0.20540  Biso   1.000  C
  O284     1.0000 0.10020  0.79800  0.20400  Biso   1.000  O
  C935     1.0000 0.02010  0.84180  0.20980  Biso   1.000  C
  O285     1.0000 0.02700  0.87120  0.21200  Biso   1.000  O
  C936     1.0000 0.02520  0.80210  0.15920  Biso   1.000  C
  O286     1.0000 0.02750  0.80800  0.12980  Biso   1.000  O
  C937     1.0000 0.01500  0.81230  0.31680  Biso   1.000  C
  C938     1.0000 0.01650  0.82240  0.28240  Biso   1.000  C
  C939     1.0000 0.01780  0.79770  0.25650  Biso   1.000  C
  C940     1.0000 0.01760  0.76280  0.26490  Biso   1.000  C
  C941     1.0000 0.01620  0.75270  0.29930  Biso   1.000  C
  C942     1.0000 0.01490  0.77740  0.32530  Biso   1.000  C
  C943     1.0000 0.93590  0.71830  0.28710  Biso   1.000  C
  O287     1.0000 0.93200  0.69880  0.30900  Biso   1.000  O
  Cl82     1.0000 0.96250  0.71290  0.28580  Biso   1.000  Cl
  Cl83     1.0000 0.92030  0.20840  0.78950  Biso   1.000  Cl
  N42      1.0000 0.98850  0.27230  0.77430  Biso   1.000  N
  C944     1.0000 0.90960  0.27570  0.77400  Biso   1.000  C
  C945     1.0000 0.02130  0.26130  0.76470  Biso   1.000  C
  C946     1.0000 0.98470  0.29730  0.79960  Biso   1.000  C
  O288     1.0000 0.88610  0.28970  0.78690  Biso   1.000  O
  C947     1.0000 0.05030  0.27530  0.78050  Biso   1.000  C
  C948     1.0000 0.01370  0.31140  0.81540  Biso   1.000  C
  C949     1.0000 0.04650  0.30040  0.80590  Biso   1.000  C
  C950     1.0000 0.01300  0.33930  0.84250  Biso   1.000  C
  C951     1.0000 0.01180  0.37370  0.83260  Biso   1.000  C
  C952     1.0000 0.01330  0.33060  0.87740  Biso   1.000  C
  C953     1.0000 0.01110  0.39960  0.85750  Biso   1.000  C
  C954     1.0000 0.01250  0.35650  0.90230  Biso   1.000  C
  C955     1.0000 0.01140  0.39090  0.89230  Biso   1.000  C
  C956     1.0000 0.00500  0.41930  0.91910  Biso   1.000  C
  O289     1.0000 0.00360  0.45240  0.90650  Biso   1.000  O
  O290     1.0000 0.00250  0.40630  0.95170  Biso   1.000  O
  Re42     1.0000 0.02160  0.29250  0.70730  Biso   1.000  Re
  C957     1.0000 0.07010  0.30130  0.70540  Biso   1.000  C
  O291     1.0000 0.10020  0.29800  0.70400  Biso   1.000  O
  C958     1.0000 0.02010  0.34180  0.70980  Biso   1.000  C
  O292     1.0000 0.02700  0.37120  0.71200  Biso   1.000  O
  C959     1.0000 0.02520  0.30210  0.65920  Biso   1.000  C
  O293     1.0000 0.02750  0.30800  0.62980  Biso   1.000  O
  C960     1.0000 0.01500  0.31230  0.81680  Biso   1.000  C
  C961     1.0000 0.01650  0.32240  0.78240  Biso   1.000  C
  C962     1.0000 0.01780  0.29770  0.75650  Biso   1.000  C
  C963     1.0000 0.01760  0.26280  0.76490  Biso   1.000  C
  C964     1.0000 0.01620  0.25270  0.79930  Biso   1.000  C
  C965     1.0000 0.01490  0.27740  0.82530  Biso   1.000  C
  C966     1.0000 0.93590  0.21830  0.78710  Biso   1.000  C
  O294     1.0000 0.93200  0.19880  0.80900  Biso   1.000  O
  Cl84     1.0000 0.96250  0.21290  0.78580  Biso   1.000  Cl
  Cl85     1.0000 0.42030  0.70840  0.78950  Biso   1.000  Cl
  N43      1.0000 0.48850  0.77230  0.77430  Biso   1.000  N
  C967     1.0000 0.40960  0.77570  0.77400  Biso   1.000  C
  C968     1.0000 0.52130  0.76130  0.76470  Biso   1.000  C
  C969     1.0000 0.48470  0.79730  0.79960  Biso   1.000  C
  O295     1.0000 0.38610  0.78970  0.78690  Biso   1.000  O
  C970     1.0000 0.55030  0.77530  0.78050  Biso   1.000  C
  C971     1.0000 0.51370  0.81140  0.81540  Biso   1.000  C
  C972     1.0000 0.54650  0.80040  0.80590  Biso   1.000  C
  C973     1.0000 0.51300  0.83930  0.84250  Biso   1.000  C
  C974     1.0000 0.51180  0.87370  0.83260  Biso   1.000  C
  C975     1.0000 0.51330  0.83060  0.87740  Biso   1.000  C
  C976     1.0000 0.51110  0.89960  0.85750  Biso   1.000  C
  C977     1.0000 0.51250  0.85650  0.90230  Biso   1.000  C
  C978     1.0000 0.51140  0.89090  0.89230  Biso   1.000  C
  C979     1.0000 0.50500  0.91930  0.91910  Biso   1.000  C
  O296     1.0000 0.50360  0.95240  0.90650  Biso   1.000  O
  O297     1.0000 0.50250  0.90630  0.95170  Biso   1.000  O
  Re43     1.0000 0.52160  0.79250  0.70730  Biso   1.000  Re
  C980     1.0000 0.57010  0.80130  0.70540  Biso   1.000  C
  O298     1.0000 0.60020  0.79800  0.70400  Biso   1.000  O
  C981     1.0000 0.52010  0.84180  0.70980  Biso   1.000  C
  O299     1.0000 0.52700  0.87120  0.71200  Biso   1.000  O
  C982     1.0000 0.52520  0.80210  0.65920  Biso   1.000  C
  O300     1.0000 0.52750  0.80800  0.62980  Biso   1.000  O
  C983     1.0000 0.51500  0.81230  0.81680  Biso   1.000  C
  C984     1.0000 0.51650  0.82240  0.78240  Biso   1.000  C
  C985     1.0000 0.51780  0.79770  0.75650  Biso   1.000  C
  C986     1.0000 0.51760  0.76280  0.76490  Biso   1.000  C
  C987     1.0000 0.51620  0.75270  0.79930  Biso   1.000  C
  C988     1.0000 0.51490  0.77740  0.82530  Biso   1.000  C
  C989     1.0000 0.43590  0.71830  0.78710  Biso   1.000  C
  O301     1.0000 0.43200  0.69880  0.80900  Biso   1.000  O
  Cl86     1.0000 0.46250  0.71290  0.78580  Biso   1.000  Cl
  Cl87     1.0000 0.42030  0.20840  0.28950  Biso   1.000  Cl
  N44      1.0000 0.48850  0.27230  0.27430  Biso   1.000  N
  C990     1.0000 0.40960  0.27570  0.27400  Biso   1.000  C
  C991     1.0000 0.52130  0.26130  0.26470  Biso   1.000  C
  C992     1.0000 0.48470  0.29730  0.29960  Biso   1.000  C
  O302     1.0000 0.38610  0.28970  0.28690  Biso   1.000  O
  C993     1.0000 0.55030  0.27530  0.28050  Biso   1.000  C
  C994     1.0000 0.51370  0.31140  0.31540  Biso   1.000  C
  C995     1.0000 0.54650  0.30040  0.30590  Biso   1.000  C
  C996     1.0000 0.51300  0.33930  0.34250  Biso   1.000  C
  C997     1.0000 0.51180  0.37370  0.33260  Biso   1.000  C
  C998     1.0000 0.51330  0.33060  0.37740  Biso   1.000  C
  C999     1.0000 0.51110  0.39960  0.35750  Biso   1.000  C
  C1000    1.0000 0.51250  0.35650  0.40230  Biso   1.000  C
  C1001    1.0000 0.51140  0.39090  0.39230  Biso   1.000  C
  C1002    1.0000 0.50500  0.41930  0.41910  Biso   1.000  C
  O303     1.0000 0.50360  0.45240  0.40650  Biso   1.000  O
  O304     1.0000 0.50250  0.40630  0.45170  Biso   1.000  O
  Re44     1.0000 0.52160  0.29250  0.20730  Biso   1.000  Re
  C1003    1.0000 0.57010  0.30130  0.20540  Biso   1.000  C
  O305     1.0000 0.60020  0.29800  0.20400  Biso   1.000  O
  C1004    1.0000 0.52010  0.34180  0.20980  Biso   1.000  C
  O306     1.0000 0.52700  0.37120  0.21200  Biso   1.000  O
  C1005    1.0000 0.52520  0.30210  0.15920  Biso   1.000  C
  O307     1.0000 0.52750  0.30800  0.12980  Biso   1.000  O
  C1006    1.0000 0.51500  0.31230  0.31680  Biso   1.000  C
  C1007    1.0000 0.51650  0.32240  0.28240  Biso   1.000  C
  C1008    1.0000 0.51780  0.29770  0.25650  Biso   1.000  C
  C1009    1.0000 0.51760  0.26280  0.26490  Biso   1.000  C
  C1010    1.0000 0.51620  0.25270  0.29930  Biso   1.000  C
  C1011    1.0000 0.51490  0.27740  0.32530  Biso   1.000  C
  C1012    1.0000 0.43590  0.21830  0.28710  Biso   1.000  C
  O308     1.0000 0.43200  0.19880  0.30900  Biso   1.000  O
  Cl88     1.0000 0.46250  0.21290  0.28580  Biso   1.000  Cl
  Cl89     1.0000 0.07970  0.70840  0.71050  Biso   1.000  Cl
  N45      1.0000 0.01150  0.77230  0.72570  Biso   1.000  N
  C1013    1.0000 0.09040  0.77570  0.72600  Biso   1.000  C
  C1014    1.0000 0.97870  0.76130  0.73530  Biso   1.000  C
  C1015    1.0000 0.01530  0.79730  0.70040  Biso   1.000  C
  O309     1.0000 0.11390  0.78970  0.71310  Biso   1.000  O
  C1016    1.0000 0.94970  0.77530  0.71950  Biso   1.000  C
  C1017    1.0000 0.98630  0.81140  0.68460  Biso   1.000  C
  C1018    1.0000 0.95350  0.80040  0.69410  Biso   1.000  C
  C1019    1.0000 0.98700  0.83930  0.65750  Biso   1.000  C
  C1020    1.0000 0.98820  0.87370  0.66740  Biso   1.000  C
  C1021    1.0000 0.98670  0.83060  0.62260  Biso   1.000  C
  C1022    1.0000 0.98890  0.89960  0.64250  Biso   1.000  C
  C1023    1.0000 0.98750  0.85650  0.59770  Biso   1.000  C
  C1024    1.0000 0.98860  0.89090  0.60770  Biso   1.000  C
  C1025    1.0000 0.99500  0.91930  0.58090  Biso   1.000  C
  O310     1.0000 0.99640  0.95240  0.59350  Biso   1.000  O
  O311     1.0000 0.99750  0.90630  0.54830  Biso   1.000  O
  Re45     1.0000 0.97840  0.79250  0.79270  Biso   1.000  Re
  C1026    1.0000 0.92990  0.80130  0.79460  Biso   1.000  C
  O312     1.0000 0.89980  0.79800  0.79600  Biso   1.000  O
  C1027    1.0000 0.97990  0.84180  0.79020  Biso   1.000  C
  O313     1.0000 0.97300  0.87120  0.78800  Biso   1.000  O
  C1028    1.0000 0.97480  0.80210  0.84080  Biso   1.000  C
  O314     1.0000 0.97250  0.80800  0.87020  Biso   1.000  O
  C1029    1.0000 0.98500  0.81230  0.68320  Biso   1.000  C
  C1030    1.0000 0.98350  0.82240  0.71760  Biso   1.000  C
  C1031    1.0000 0.98220  0.79770  0.74350  Biso   1.000  C
  C1032    1.0000 0.98240  0.76280  0.73510  Biso   1.000  C
  C1033    1.0000 0.98380  0.75270  0.70070  Biso   1.000  C
  C1034    1.0000 0.98510  0.77740  0.67470  Biso   1.000  C
  C1035    1.0000 0.06410  0.71830  0.71290  Biso   1.000  C
  O315     1.0000 0.06800  0.69880  0.69100  Biso   1.000  O
  Cl90     1.0000 0.03750  0.71290  0.71420  Biso   1.000  Cl
  Cl91     1.0000 0.07970  0.20840  0.21050  Biso   1.000  Cl
  N46      1.0000 0.01150  0.27230  0.22570  Biso   1.000  N
  C1036    1.0000 0.09040  0.27570  0.22600  Biso   1.000  C
  C1037    1.0000 0.97870  0.26130  0.23530  Biso   1.000  C
  C1038    1.0000 0.01530  0.29730  0.20040  Biso   1.000  C
  O316     1.0000 0.11390  0.28970  0.21310  Biso   1.000  O
  C1039    1.0000 0.94970  0.27530  0.21950  Biso   1.000  C
  C1040    1.0000 0.98630  0.31140  0.18460  Biso   1.000  C
  C1041    1.0000 0.95350  0.30040  0.19410  Biso   1.000  C
  C1042    1.0000 0.98700  0.33930  0.15750  Biso   1.000  C
  C1043    1.0000 0.98820  0.37370  0.16740  Biso   1.000  C
  C1044    1.0000 0.98670  0.33060  0.12260  Biso   1.000  C
  C1045    1.0000 0.98890  0.39960  0.14250  Biso   1.000  C
  C1046    1.0000 0.98750  0.35650  0.09770  Biso   1.000  C
  C1047    1.0000 0.98860  0.39090  0.10770  Biso   1.000  C
  C1048    1.0000 0.99500  0.41930  0.08090  Biso   1.000  C
  O317     1.0000 0.99640  0.45240  0.09350  Biso   1.000  O
  O318     1.0000 0.99750  0.40630  0.04830  Biso   1.000  O
  Re46     1.0000 0.97840  0.29250  0.29270  Biso   1.000  Re
  C1049    1.0000 0.92990  0.30130  0.29460  Biso   1.000  C
  O319     1.0000 0.89980  0.29800  0.29600  Biso   1.000  O
  C1050    1.0000 0.97990  0.34180  0.29020  Biso   1.000  C
  O320     1.0000 0.97300  0.37120  0.28800  Biso   1.000  O
  C1051    1.0000 0.97480  0.30210  0.34080  Biso   1.000  C
  O321     1.0000 0.97250  0.30800  0.37020  Biso   1.000  O
  C1052    1.0000 0.98500  0.31230  0.18320  Biso   1.000  C
  C1053    1.0000 0.98350  0.32240  0.21760  Biso   1.000  C
  C1054    1.0000 0.98220  0.29770  0.24350  Biso   1.000  C
  C1055    1.0000 0.98240  0.26280  0.23510  Biso   1.000  C
  C1056    1.0000 0.98380  0.25270  0.20070  Biso   1.000  C
  C1057    1.0000 0.98510  0.27740  0.17470  Biso   1.000  C
  C1058    1.0000 0.06410  0.21830  0.21290  Biso   1.000  C
  O322     1.0000 0.06800  0.19880  0.19100  Biso   1.000  O
  Cl92     1.0000 0.03750  0.21290  0.21420  Biso   1.000  Cl
  Cl93     1.0000 0.57970  0.70840  0.21050  Biso   1.000  Cl
  N47      1.0000 0.51150  0.77230  0.22570  Biso   1.000  N
  C1059    1.0000 0.59040  0.77570  0.22600  Biso   1.000  C
  C1060    1.0000 0.47870  0.76130  0.23530  Biso   1.000  C
  C1061    1.0000 0.51530  0.79730  0.20040  Biso   1.000  C
  O323     1.0000 0.61390  0.78970  0.21310  Biso   1.000  O
  C1062    1.0000 0.44970  0.77530  0.21950  Biso   1.000  C
  C1063    1.0000 0.48630  0.81140  0.18460  Biso   1.000  C
  C1064    1.0000 0.45350  0.80040  0.19410  Biso   1.000  C
  C1065    1.0000 0.48700  0.83930  0.15750  Biso   1.000  C
  C1066    1.0000 0.48820  0.87370  0.16740  Biso   1.000  C
  C1067    1.0000 0.48670  0.83060  0.12260  Biso   1.000  C
  C1068    1.0000 0.48890  0.89960  0.14250  Biso   1.000  C
  C1069    1.0000 0.48750  0.85650  0.09770  Biso   1.000  C
  C1070    1.0000 0.48860  0.89090  0.10770  Biso   1.000  C
  C1071    1.0000 0.49500  0.91930  0.08090  Biso   1.000  C
  O324     1.0000 0.49640  0.95240  0.09350  Biso   1.000  O
  O325     1.0000 0.49750  0.90630  0.04830  Biso   1.000  O
  Re47     1.0000 0.47840  0.79250  0.29270  Biso   1.000  Re
  C1072    1.0000 0.42990  0.80130  0.29460  Biso   1.000  C
  O326     1.0000 0.39980  0.79800  0.29600  Biso   1.000  O
  C1073    1.0000 0.47990  0.84180  0.29020  Biso   1.000  C
  O327     1.0000 0.47300  0.87120  0.28800  Biso   1.000  O
  C1074    1.0000 0.47480  0.80210  0.34080  Biso   1.000  C
  O328     1.0000 0.47250  0.80800  0.37020  Biso   1.000  O
  C1075    1.0000 0.48500  0.81230  0.18320  Biso   1.000  C
  C1076    1.0000 0.48350  0.82240  0.21760  Biso   1.000  C
  C1077    1.0000 0.48220  0.79770  0.24350  Biso   1.000  C
  C1078    1.0000 0.48240  0.76280  0.23510  Biso   1.000  C
  C1079    1.0000 0.48380  0.75270  0.20070  Biso   1.000  C
  C1080    1.0000 0.48510  0.77740  0.17470  Biso   1.000  C
  C1081    1.0000 0.56410  0.71830  0.21290  Biso   1.000  C
  O329     1.0000 0.56800  0.69880  0.19100  Biso   1.000  O
  Cl94     1.0000 0.53750  0.71290  0.21420  Biso   1.000  Cl
  Cl95     1.0000 0.57970  0.20840  0.71050  Biso   1.000  Cl
  N48      1.0000 0.51150  0.27230  0.72570  Biso   1.000  N
  C1082    1.0000 0.59040  0.27570  0.72600  Biso   1.000  C
  C1083    1.0000 0.47870  0.26130  0.73530  Biso   1.000  C
  C1084    1.0000 0.51530  0.29730  0.70040  Biso   1.000  C
  O330     1.0000 0.61390  0.28970  0.71310  Biso   1.000  O
  C1085    1.0000 0.44970  0.27530  0.71950  Biso   1.000  C
  C1086    1.0000 0.48630  0.31140  0.68460  Biso   1.000  C
  C1087    1.0000 0.45350  0.30040  0.69410  Biso   1.000  C
  C1088    1.0000 0.48700  0.33930  0.65750  Biso   1.000  C
  C1089    1.0000 0.48820  0.37370  0.66740  Biso   1.000  C
  C1090    1.0000 0.48670  0.33060  0.62260  Biso   1.000  C
  C1091    1.0000 0.48890  0.39960  0.64250  Biso   1.000  C
  C1092    1.0000 0.48750  0.35650  0.59770  Biso   1.000  C
  C1093    1.0000 0.48860  0.39090  0.60770  Biso   1.000  C
  C1094    1.0000 0.49500  0.41930  0.58090  Biso   1.000  C
  O331     1.0000 0.49640  0.45240  0.59350  Biso   1.000  O
  O332     1.0000 0.49750  0.40630  0.54830  Biso   1.000  O
  Re48     1.0000 0.47840  0.29250  0.79270  Biso   1.000  Re
  C1095    1.0000 0.42990  0.30130  0.79460  Biso   1.000  C
  O333     1.0000 0.39980  0.29800  0.79600  Biso   1.000  O
  C1096    1.0000 0.47990  0.34180  0.79020  Biso   1.000  C
  O334     1.0000 0.47300  0.37120  0.78800  Biso   1.000  O
  C1097    1.0000 0.47480  0.30210  0.84080  Biso   1.000  C
  O335     1.0000 0.47250  0.30800  0.87020  Biso   1.000  O
  C1098    1.0000 0.48500  0.31230  0.68320  Biso   1.000  C
  C1099    1.0000 0.48350  0.32240  0.71760  Biso   1.000  C
  C1100    1.0000 0.48220  0.29770  0.74350  Biso   1.000  C
  C1101    1.0000 0.48240  0.26280  0.73510  Biso   1.000  C
  C1102    1.0000 0.48380  0.25270  0.70070  Biso   1.000  C
  C1103    1.0000 0.48510  0.27740  0.67470  Biso   1.000  C
  C1104    1.0000 0.56410  0.21830  0.71290  Biso   1.000  C
  O336     1.0000 0.56800  0.19880  0.69100  Biso   1.000  O
  Cl96     1.0000 0.53750  0.21290  0.71420  Biso   1.000  Cl
  Re49     1.0000 0.75000  0.94380  0.25000  Biso   1.000  Re
  Re50     1.0000 0.75000  0.44380  0.75000  Biso   1.000  Re
  Re51     1.0000 0.25000  0.05620  0.25000  Biso   1.000  Re
  Re52     1.0000 0.25000  0.55620  0.75000  Biso   1.000  Re
  Re53     1.0000 0.25000  0.94380  0.75000  Biso   1.000  Re
  Re54     1.0000 0.25000  0.44380  0.25000  Biso   1.000  Re
  Re55     1.0000 0.75000  0.05620  0.75000  Biso   1.000  Re
  Re56     1.0000 0.75000  0.55620  0.25000  Biso   1.000  Re
  Re57     1.0000 0.25000  0.75000  0.94380  Biso   1.000  Re
  Re58     1.0000 0.25000  0.25000  0.44380  Biso   1.000  Re
  Re59     1.0000 0.25000  0.25000  0.05620  Biso   1.000  Re
  Re60     1.0000 0.25000  0.75000  0.55620  Biso   1.000  Re
  Re61     1.0000 0.75000  0.25000  0.94380  Biso   1.000  Re
  Re62     1.0000 0.75000  0.75000  0.44380  Biso   1.000  Re
  Re63     1.0000 0.75000  0.75000  0.05620  Biso   1.000  Re
  Re64     1.0000 0.75000  0.25000  0.55620  Biso   1.000  Re
  Re65     1.0000 0.94380  0.25000  0.75000  Biso   1.000  Re
  Re66     1.0000 0.44380  0.25000  0.25000  Biso   1.000  Re
  Re67     1.0000 0.05620  0.25000  0.25000  Biso   1.000  Re
  Re68     1.0000 0.55620  0.25000  0.75000  Biso   1.000  Re
  Re69     1.0000 0.94380  0.75000  0.25000  Biso   1.000  Re
  Re70     1.0000 0.44380  0.75000  0.75000  Biso   1.000  Re
  Re71     1.0000 0.05620  0.75000  0.75000  Biso   1.000  Re
  Re72     1.0000 0.55620  0.75000  0.25000  Biso   1.000  Re
  Zr1      1.0000 0.56421  0.00000  0.00000  Biso   1.000  Zr
  Zr2      1.0000 0.56421  0.50000  0.50000  Biso   1.000  Zr
  Zr3      1.0000 0.06421  0.00000  0.50000  Biso   1.000  Zr
  Zr4      1.0000 0.06421  0.50000  0.00000  Biso   1.000  Zr
  Zr5      1.0000 0.43579  0.00000  0.00000  Biso   1.000  Zr
  Zr6      1.0000 0.43579  0.50000  0.50000  Biso   1.000  Zr
  Zr7      1.0000 0.93579  0.00000  0.50000  Biso   1.000  Zr
  Zr8      1.0000 0.93579  0.50000  0.00000  Biso   1.000  Zr
  Zr9      1.0000 0.00000  0.56421  0.00000  Biso   1.000  Zr
  Zr10     1.0000 0.00000  0.06421  0.50000  Biso   1.000  Zr
  Zr11     1.0000 0.50000  0.56421  0.50000  Biso   1.000  Zr
  Zr12     1.0000 0.50000  0.06421  0.00000  Biso   1.000  Zr
  Zr13     1.0000 0.00000  0.43579  0.00000  Biso   1.000  Zr
  Zr14     1.0000 0.00000  0.93579  0.50000  Biso   1.000  Zr
  Zr15     1.0000 0.50000  0.43579  0.50000  Biso   1.000  Zr
  Zr16     1.0000 0.50000  0.93579  0.00000  Biso   1.000  Zr
  Zr17     1.0000 0.00000  0.00000  0.56421  Biso   1.000  Zr
  Zr18     1.0000 0.00000  0.50000  0.06421  Biso   1.000  Zr
  Zr19     1.0000 0.50000  0.00000  0.06421  Biso   1.000  Zr
  Zr20     1.0000 0.50000  0.50000  0.56421  Biso   1.000  Zr
  Zr21     1.0000 0.00000  0.00000  0.43579  Biso   1.000  Zr
  Zr22     1.0000 0.00000  0.50000  0.93579  Biso   1.000  Zr
  Zr23     1.0000 0.50000  0.00000  0.93579  Biso   1.000  Zr
  Zr24     1.0000 0.50000  0.50000  0.43579  Biso   1.000  Zr
  O337     1.0000 0.52760  0.02760  0.02760  Biso   1.000  O
  O338     1.0000 0.52760  0.52760  0.52760  Biso   1.000  O
  O339     1.0000 0.47240  0.97240  0.02760  Biso   1.000  O
  O340     1.0000 0.47240  0.47240  0.52760  Biso   1.000  O
  O341     1.0000 0.97240  0.97240  0.52760  Biso   1.000  O
  O342     1.0000 0.47240  0.02760  0.97240  Biso   1.000  O
  O343     1.0000 0.47240  0.52760  0.47240  Biso   1.000  O
  O344     1.0000 0.97240  0.52760  0.97240  Biso   1.000  O
  O345     1.0000 0.52760  0.97240  0.97240  Biso   1.000  O
  O346     1.0000 0.52760  0.47240  0.47240  Biso   1.000  O
  O347     1.0000 0.02760  0.52760  0.02760  Biso   1.000  O
  O348     1.0000 0.02760  0.47240  0.97240  Biso   1.000  O
  O349     1.0000 0.97240  0.47240  0.02760  Biso   1.000  O
  O350     1.0000 0.02760  0.02760  0.52760  Biso   1.000  O
  O351     1.0000 0.97240  0.02760  0.47240  Biso   1.000  O
  O352     1.0000 0.02760  0.97240  0.47240  Biso   1.000  O
  O353     1.0000 0.53790  0.96210  0.03790  Biso   1.000  O
  O354     1.0000 0.53790  0.46210  0.53790  Biso   1.000  O
  O355     1.0000 0.46210  0.03790  0.03790  Biso   1.000  O
  O356     1.0000 0.46210  0.53790  0.53790  Biso   1.000  O
  O357     1.0000 0.96210  0.03790  0.53790  Biso   1.000  O
  O358     1.0000 0.96210  0.53790  0.03790  Biso   1.000  O
  O359     1.0000 0.46210  0.96210  0.96210  Biso   1.000  O
  O360     1.0000 0.46210  0.46210  0.46210  Biso   1.000  O
  O361     1.0000 0.53790  0.03790  0.96210  Biso   1.000  O
  O362     1.0000 0.53790  0.53790  0.46210  Biso   1.000  O
  O363     1.0000 0.03790  0.53790  0.96210  Biso   1.000  O
  O364     1.0000 0.03790  0.46210  0.03790  Biso   1.000  O
  O365     1.0000 0.03790  0.96210  0.53790  Biso   1.000  O
  O366     1.0000 0.96210  0.46210  0.96210  Biso   1.000  O
  O367     1.0000 0.03790  0.03790  0.46210  Biso   1.000  O
  O368     1.0000 0.96210  0.96210  0.46210  Biso   1.000  O
