data_image0
_cell_length_a       18.8317
_cell_length_b       18.8317
_cell_length_c       38.5698
_cell_angle_alpha    90
_cell_angle_beta     90
_cell_angle_gamma    120

_symmetry_space_group_name_H-M    "P 1"
_symmetry_int_tables_number       1

loop_
  _symmetry_equiv_pos_as_xyz
  'x, y, z'

loop_
  _atom_site_label
  _atom_site_occupancy
  _atom_site_fract_x
  _atom_site_fract_y
  _atom_site_fract_z
  _atom_site_thermal_displace_type
  _atom_site_B_iso_or_equiv
  _atom_site_type_symbol
  O1       1.0000 0.55552  0.70306  0.33002  Biso   1.000  O
  O2       1.0000 0.63282  0.74215  0.37719  Biso   1.000  O
  C1       1.0000 0.57150  0.69340  0.36081  Biso   1.000  C
  C2       1.0000 0.52830  0.59870  0.41126  Biso   1.000  C
  H1       1.0000 0.57630  0.63640  0.42240  Biso   1.000  H
  C3       1.0000 0.51390  0.61360  0.37744  Biso   1.000  C
  C4       1.0000 0.45410  0.44210  0.47940  Biso   1.000  C
  C5       1.0000 0.53760  0.71090  0.23750  Biso   1.000  C
  C6       1.0000 0.51170  0.69820  0.20380  Biso   1.000  C
  H2       1.0000 0.54850  0.67250  0.24760  Biso   1.000  H
  H3       1.0000 0.50510  0.65280  0.19140  Biso   1.000  H
  H4       1.0000 0.36200  0.45900  0.50300  Biso   1.000  H
  H5       1.0000 0.44320  0.39110  0.46800  Biso   1.000  H
  C7       1.0000 0.41910  0.48280  0.48990  Biso   1.000  C
  O3       1.0000 0.22219  0.03639  0.66335  Biso   1.000  O
  O4       1.0000 0.29949  0.07548  0.71052  Biso   1.000  O
  C8       1.0000 0.23817  0.02673  0.69414  Biso   1.000  C
  C9       1.0000 0.19497  0.93203  0.74459  Biso   1.000  C
  H6       1.0000 0.24297  0.96973  0.75573  Biso   1.000  H
  C10      1.0000 0.18057  0.94693  0.71077  Biso   1.000  C
  C11      1.0000 0.12077  0.77543  0.81273  Biso   1.000  C
  C12      1.0000 0.20427  0.04423  0.57083  Biso   1.000  C
  C13      1.0000 0.17837  0.03153  0.53713  Biso   1.000  C
  H7       1.0000 0.21517  0.00583  0.58093  Biso   1.000  H
  H8       1.0000 0.17177  0.98613  0.52473  Biso   1.000  H
  H9       1.0000 0.02867  0.79233  0.83633  Biso   1.000  H
  H10      1.0000 0.10987  0.72443  0.80133  Biso   1.000  H
  C14      1.0000 0.08577  0.81613  0.82323  Biso   1.000  C
  O5       1.0000 0.88885  0.36973  0.99669  Biso   1.000  O
  O6       1.0000 0.96615  0.40882  0.04386  Biso   1.000  O
  C15      1.0000 0.90483  0.36007  0.02748  Biso   1.000  C
  C16      1.0000 0.86163  0.26537  0.07793  Biso   1.000  C
  H11      1.0000 0.90963  0.30307  0.08907  Biso   1.000  H
  C17      1.0000 0.84723  0.28027  0.04411  Biso   1.000  C
  C18      1.0000 0.78743  0.10877  0.14607  Biso   1.000  C
  C19      1.0000 0.87093  0.37757  0.90417  Biso   1.000  C
  C20      1.0000 0.84503  0.36487  0.87047  Biso   1.000  C
  H12      1.0000 0.88183  0.33917  0.91427  Biso   1.000  H
  H13      1.0000 0.83843  0.31947  0.85807  Biso   1.000  H
  H14      1.0000 0.69533  0.12567  0.16967  Biso   1.000  H
  H15      1.0000 0.77653  0.05777  0.13467  Biso   1.000  H
  C21      1.0000 0.75243  0.14947  0.15657  Biso   1.000  C
  O7       1.0000 0.29694  0.85246  0.33002  Biso   1.000  O
  O8       1.0000 0.25785  0.89067  0.37719  Biso   1.000  O
  C22      1.0000 0.30660  0.87810  0.36081  Biso   1.000  C
  C23      1.0000 0.40130  0.92960  0.41126  Biso   1.000  C
  H16      1.0000 0.36360  0.93990  0.42240  Biso   1.000  H
  C24      1.0000 0.38640  0.90030  0.37744  Biso   1.000  C
  C25      1.0000 0.55790  0.01200  0.47940  Biso   1.000  C
  C26      1.0000 0.28910  0.82670  0.23750  Biso   1.000  C
  C27      1.0000 0.30180  0.81350  0.20380  Biso   1.000  C
  H17      1.0000 0.32750  0.87600  0.24760  Biso   1.000  H
  H18      1.0000 0.34720  0.85230  0.19140  Biso   1.000  H
  H19      1.0000 0.54100  0.90300  0.50300  Biso   1.000  H
  H20      1.0000 0.60890  0.05210  0.46800  Biso   1.000  H
  C28      1.0000 0.51720  0.93630  0.48990  Biso   1.000  C
  O9       1.0000 0.96361  0.18579  0.66335  Biso   1.000  O
  O10      1.0000 0.92452  0.22400  0.71052  Biso   1.000  O
  C29      1.0000 0.97327  0.21143  0.69414  Biso   1.000  C
  C30      1.0000 0.06797  0.26293  0.74459  Biso   1.000  C
  H21      1.0000 0.03027  0.27323  0.75573  Biso   1.000  H
  C31      1.0000 0.05307  0.23363  0.71077  Biso   1.000  C
  C32      1.0000 0.22457  0.34533  0.81273  Biso   1.000  C
  C33      1.0000 0.95577  0.16003  0.57083  Biso   1.000  C
  C34      1.0000 0.96847  0.14683  0.53713  Biso   1.000  C
  H22      1.0000 0.99417  0.20933  0.58093  Biso   1.000  H
  H23      1.0000 0.01387  0.18563  0.52473  Biso   1.000  H
  H24      1.0000 0.20767  0.23633  0.83633  Biso   1.000  H
  H25      1.0000 0.27557  0.38543  0.80133  Biso   1.000  H
  C35      1.0000 0.18387  0.26963  0.82323  Biso   1.000  C
  O11      1.0000 0.63027  0.51913  0.99669  Biso   1.000  O
  O12      1.0000 0.59118  0.55734  0.04386  Biso   1.000  O
  C36      1.0000 0.63993  0.54477  0.02748  Biso   1.000  C
  C37      1.0000 0.73463  0.59627  0.07793  Biso   1.000  C
  H26      1.0000 0.69693  0.60657  0.08907  Biso   1.000  H
  C38      1.0000 0.71973  0.56697  0.04411  Biso   1.000  C
  C39      1.0000 0.89123  0.67867  0.14607  Biso   1.000  C
  C40      1.0000 0.62243  0.49337  0.90417  Biso   1.000  C
  C41      1.0000 0.63513  0.48017  0.87047  Biso   1.000  C
  H27      1.0000 0.66083  0.54267  0.91427  Biso   1.000  H
  H28      1.0000 0.68053  0.51897  0.85807  Biso   1.000  H
  H29      1.0000 0.87433  0.56967  0.16967  Biso   1.000  H
  H30      1.0000 0.94223  0.71877  0.13467  Biso   1.000  H
  C42      1.0000 0.85053  0.60297  0.15657  Biso   1.000  C
  O13      1.0000 0.14754  0.44448  0.33002  Biso   1.000  O
  O14      1.0000 0.10933  0.36718  0.37719  Biso   1.000  O
  C43      1.0000 0.12190  0.42850  0.36081  Biso   1.000  C
  C44      1.0000 0.07040  0.47170  0.41126  Biso   1.000  C
  H31      1.0000 0.06010  0.42370  0.42240  Biso   1.000  H
  C45      1.0000 0.09970  0.48610  0.37744  Biso   1.000  C
  C46      1.0000 0.98800  0.54590  0.47940  Biso   1.000  C
  C47      1.0000 0.17330  0.46240  0.23750  Biso   1.000  C
  C48      1.0000 0.18650  0.48830  0.20380  Biso   1.000  C
  H32      1.0000 0.12400  0.45150  0.24760  Biso   1.000  H
  H33      1.0000 0.14770  0.49490  0.19140  Biso   1.000  H
  H34      1.0000 0.09700  0.63800  0.50300  Biso   1.000  H
  H35      1.0000 0.94790  0.55680  0.46800  Biso   1.000  H
  C49      1.0000 0.06370  0.58090  0.48990  Biso   1.000  C
  O15      1.0000 0.81421  0.77781  0.66335  Biso   1.000  O
  O16      1.0000 0.77600  0.70051  0.71052  Biso   1.000  O
  C50      1.0000 0.78857  0.76183  0.69414  Biso   1.000  C
  C51      1.0000 0.73707  0.80503  0.74459  Biso   1.000  C
  H36      1.0000 0.72677  0.75703  0.75573  Biso   1.000  H
  C52      1.0000 0.76637  0.81943  0.71077  Biso   1.000  C
  C53      1.0000 0.65467  0.87923  0.81273  Biso   1.000  C
  C54      1.0000 0.83997  0.79573  0.57083  Biso   1.000  C
  C55      1.0000 0.85317  0.82163  0.53713  Biso   1.000  C
  H37      1.0000 0.79067  0.78483  0.58093  Biso   1.000  H
  H38      1.0000 0.81437  0.82823  0.52473  Biso   1.000  H
  H39      1.0000 0.76367  0.97133  0.83633  Biso   1.000  H
  H40      1.0000 0.61457  0.89013  0.80133  Biso   1.000  H
  C56      1.0000 0.73037  0.91423  0.82323  Biso   1.000  C
  O17      1.0000 0.48087  0.11115  0.99669  Biso   1.000  O
  O18      1.0000 0.44266  0.03385  0.04386  Biso   1.000  O
  C57      1.0000 0.45523  0.09517  0.02748  Biso   1.000  C
  C58      1.0000 0.40373  0.13837  0.07793  Biso   1.000  C
  H41      1.0000 0.39343  0.09037  0.08907  Biso   1.000  H
  C59      1.0000 0.43303  0.15277  0.04411  Biso   1.000  C
  C60      1.0000 0.32133  0.21257  0.14607  Biso   1.000  C
  C61      1.0000 0.50663  0.12907  0.90417  Biso   1.000  C
  C62      1.0000 0.51983  0.15497  0.87047  Biso   1.000  C
  H42      1.0000 0.45733  0.11817  0.91427  Biso   1.000  H
  H43      1.0000 0.48103  0.16157  0.85807  Biso   1.000  H
  H44      1.0000 0.43033  0.30467  0.16967  Biso   1.000  H
  H45      1.0000 0.28123  0.22347  0.13467  Biso   1.000  H
  C63      1.0000 0.39703  0.24757  0.15657  Biso   1.000  C
  O19      1.0000 0.70306  0.55552  0.66998  Biso   1.000  O
  O20      1.0000 0.74215  0.63282  0.62281  Biso   1.000  O
  C64      1.0000 0.69340  0.57150  0.63919  Biso   1.000  C
  C65      1.0000 0.59870  0.52830  0.58874  Biso   1.000  C
  H46      1.0000 0.63640  0.57630  0.57760  Biso   1.000  H
  C66      1.0000 0.61360  0.51390  0.62256  Biso   1.000  C
  C67      1.0000 0.44210  0.45410  0.52060  Biso   1.000  C
  C68      1.0000 0.71090  0.53760  0.76250  Biso   1.000  C
  C69      1.0000 0.69820  0.51170  0.79620  Biso   1.000  C
  H47      1.0000 0.67250  0.54850  0.75240  Biso   1.000  H
  H48      1.0000 0.65280  0.50510  0.80860  Biso   1.000  H
  H49      1.0000 0.45900  0.36200  0.49700  Biso   1.000  H
  H50      1.0000 0.39110  0.44320  0.53200  Biso   1.000  H
  C70      1.0000 0.48280  0.41910  0.51010  Biso   1.000  C
  O21      1.0000 0.36973  0.88885  0.00331  Biso   1.000  O
  O22      1.0000 0.40882  0.96615  0.95614  Biso   1.000  O
  C71      1.0000 0.36007  0.90483  0.97252  Biso   1.000  C
  C72      1.0000 0.26537  0.86163  0.92207  Biso   1.000  C
  H51      1.0000 0.30307  0.90963  0.91093  Biso   1.000  H
  C73      1.0000 0.28027  0.84723  0.95589  Biso   1.000  C
  C74      1.0000 0.10877  0.78743  0.85393  Biso   1.000  C
  C75      1.0000 0.37757  0.87093  0.09583  Biso   1.000  C
  C76      1.0000 0.36487  0.84503  0.12953  Biso   1.000  C
  H52      1.0000 0.33917  0.88183  0.08573  Biso   1.000  H
  H53      1.0000 0.31947  0.83843  0.14193  Biso   1.000  H
  H54      1.0000 0.12567  0.69533  0.83033  Biso   1.000  H
  H55      1.0000 0.05777  0.77653  0.86533  Biso   1.000  H
  C77      1.0000 0.14947  0.75243  0.84343  Biso   1.000  C
  O23      1.0000 0.03639  0.22219  0.33665  Biso   1.000  O
  O24      1.0000 0.07548  0.29949  0.28948  Biso   1.000  O
  C78      1.0000 0.02673  0.23817  0.30586  Biso   1.000  C
  C79      1.0000 0.93203  0.19497  0.25541  Biso   1.000  C
  H56      1.0000 0.96973  0.24297  0.24427  Biso   1.000  H
  C80      1.0000 0.94693  0.18057  0.28923  Biso   1.000  C
  C81      1.0000 0.77543  0.12077  0.18727  Biso   1.000  C
  C82      1.0000 0.04423  0.20427  0.42917  Biso   1.000  C
  C83      1.0000 0.03153  0.17837  0.46287  Biso   1.000  C
  H57      1.0000 0.00583  0.21517  0.41907  Biso   1.000  H
  H58      1.0000 0.98613  0.17177  0.47527  Biso   1.000  H
  H59      1.0000 0.79233  0.02867  0.16367  Biso   1.000  H
  H60      1.0000 0.72443  0.10987  0.19867  Biso   1.000  H
  C84      1.0000 0.81613  0.08577  0.17677  Biso   1.000  C
  O25      1.0000 0.85246  0.29694  0.66998  Biso   1.000  O
  O26      1.0000 0.89067  0.25785  0.62281  Biso   1.000  O
  C85      1.0000 0.87810  0.30660  0.63919  Biso   1.000  C
  C86      1.0000 0.92960  0.40130  0.58874  Biso   1.000  C
  H61      1.0000 0.93990  0.36360  0.57760  Biso   1.000  H
  C87      1.0000 0.90030  0.38640  0.62256  Biso   1.000  C
  C88      1.0000 0.01200  0.55790  0.52060  Biso   1.000  C
  C89      1.0000 0.82670  0.28910  0.76250  Biso   1.000  C
  C90      1.0000 0.81350  0.30180  0.79620  Biso   1.000  C
  H62      1.0000 0.87600  0.32750  0.75240  Biso   1.000  H
  H63      1.0000 0.85230  0.34720  0.80860  Biso   1.000  H
  H64      1.0000 0.90300  0.54100  0.49700  Biso   1.000  H
  H65      1.0000 0.05210  0.60890  0.53200  Biso   1.000  H
  C91      1.0000 0.93630  0.51720  0.51010  Biso   1.000  C
  O27      1.0000 0.51913  0.63027  0.00331  Biso   1.000  O
  O28      1.0000 0.55734  0.59118  0.95614  Biso   1.000  O
  C92      1.0000 0.54477  0.63993  0.97252  Biso   1.000  C
  C93      1.0000 0.59627  0.73463  0.92207  Biso   1.000  C
  H66      1.0000 0.60657  0.69693  0.91093  Biso   1.000  H
  C94      1.0000 0.56697  0.71973  0.95589  Biso   1.000  C
  C95      1.0000 0.67867  0.89123  0.85393  Biso   1.000  C
  C96      1.0000 0.49337  0.62243  0.09583  Biso   1.000  C
  C97      1.0000 0.48017  0.63513  0.12953  Biso   1.000  C
  H67      1.0000 0.54267  0.66083  0.08573  Biso   1.000  H
  H68      1.0000 0.51897  0.68053  0.14193  Biso   1.000  H
  H69      1.0000 0.56967  0.87433  0.83033  Biso   1.000  H
  H70      1.0000 0.71877  0.94223  0.86533  Biso   1.000  H
  C98      1.0000 0.60297  0.85053  0.84343  Biso   1.000  C
  O29      1.0000 0.18579  0.96361  0.33665  Biso   1.000  O
  O30      1.0000 0.22400  0.92452  0.28948  Biso   1.000  O
  C99      1.0000 0.21143  0.97327  0.30586  Biso   1.000  C
  C100     1.0000 0.26293  0.06797  0.25541  Biso   1.000  C
  H71      1.0000 0.27323  0.03027  0.24427  Biso   1.000  H
  C101     1.0000 0.23363  0.05307  0.28923  Biso   1.000  C
  C102     1.0000 0.34533  0.22457  0.18727  Biso   1.000  C
  C103     1.0000 0.16003  0.95577  0.42917  Biso   1.000  C
  C104     1.0000 0.14683  0.96847  0.46287  Biso   1.000  C
  H72      1.0000 0.20933  0.99417  0.41907  Biso   1.000  H
  H73      1.0000 0.18563  0.01387  0.47527  Biso   1.000  H
  H74      1.0000 0.23633  0.20767  0.16367  Biso   1.000  H
  H75      1.0000 0.38543  0.27557  0.19867  Biso   1.000  H
  C105     1.0000 0.26963  0.18387  0.17677  Biso   1.000  C
  O31      1.0000 0.44448  0.14754  0.66998  Biso   1.000  O
  O32      1.0000 0.36718  0.10933  0.62281  Biso   1.000  O
  C106     1.0000 0.42850  0.12190  0.63919  Biso   1.000  C
  C107     1.0000 0.47170  0.07040  0.58874  Biso   1.000  C
  H76      1.0000 0.42370  0.06010  0.57760  Biso   1.000  H
  C108     1.0000 0.48610  0.09970  0.62256  Biso   1.000  C
  C109     1.0000 0.54590  0.98800  0.52060  Biso   1.000  C
  C110     1.0000 0.46240  0.17330  0.76250  Biso   1.000  C
  C111     1.0000 0.48830  0.18650  0.79620  Biso   1.000  C
  H77      1.0000 0.45150  0.12400  0.75240  Biso   1.000  H
  H78      1.0000 0.49490  0.14770  0.80860  Biso   1.000  H
  H79      1.0000 0.63800  0.09700  0.49700  Biso   1.000  H
  H80      1.0000 0.55680  0.94790  0.53200  Biso   1.000  H
  C112     1.0000 0.58090  0.06370  0.51010  Biso   1.000  C
  O33      1.0000 0.11115  0.48087  0.00331  Biso   1.000  O
  O34      1.0000 0.03385  0.44266  0.95614  Biso   1.000  O
  C113     1.0000 0.09517  0.45523  0.97252  Biso   1.000  C
  C114     1.0000 0.13837  0.40373  0.92207  Biso   1.000  C
  H81      1.0000 0.09037  0.39343  0.91093  Biso   1.000  H
  C115     1.0000 0.15277  0.43303  0.95589  Biso   1.000  C
  C116     1.0000 0.21257  0.32133  0.85393  Biso   1.000  C
  C117     1.0000 0.12907  0.50663  0.09583  Biso   1.000  C
  C118     1.0000 0.15497  0.51983  0.12953  Biso   1.000  C
  H82      1.0000 0.11817  0.45733  0.08573  Biso   1.000  H
  H83      1.0000 0.16157  0.48103  0.14193  Biso   1.000  H
  H84      1.0000 0.30467  0.43033  0.83033  Biso   1.000  H
  H85      1.0000 0.22347  0.28123  0.86533  Biso   1.000  H
  C119     1.0000 0.24757  0.39703  0.84343  Biso   1.000  C
  O35      1.0000 0.77781  0.81421  0.33665  Biso   1.000  O
  O36      1.0000 0.70051  0.77600  0.28948  Biso   1.000  O
  C120     1.0000 0.76183  0.78857  0.30586  Biso   1.000  C
  C121     1.0000 0.80503  0.73707  0.25541  Biso   1.000  C
  H86      1.0000 0.75703  0.72677  0.24427  Biso   1.000  H
  C122     1.0000 0.81943  0.76637  0.28923  Biso   1.000  C
  C123     1.0000 0.87923  0.65467  0.18727  Biso   1.000  C
  C124     1.0000 0.79573  0.83997  0.42917  Biso   1.000  C
  C125     1.0000 0.82163  0.85317  0.46287  Biso   1.000  C
  H87      1.0000 0.78483  0.79067  0.41907  Biso   1.000  H
  H88      1.0000 0.82823  0.81437  0.47527  Biso   1.000  H
  H89      1.0000 0.97133  0.76367  0.16367  Biso   1.000  H
  H90      1.0000 0.89013  0.61457  0.19867  Biso   1.000  H
  C126     1.0000 0.91423  0.73037  0.17677  Biso   1.000  C
  O37      1.0000 0.44448  0.29694  0.66998  Biso   1.000  O
  O38      1.0000 0.36718  0.25785  0.62281  Biso   1.000  O
  C127     1.0000 0.42850  0.30660  0.63919  Biso   1.000  C
  C128     1.0000 0.47170  0.40130  0.58874  Biso   1.000  C
  H91      1.0000 0.42370  0.36360  0.57760  Biso   1.000  H
  C129     1.0000 0.48610  0.38640  0.62256  Biso   1.000  C
  C130     1.0000 0.54590  0.55790  0.52060  Biso   1.000  C
  C131     1.0000 0.46240  0.28910  0.76250  Biso   1.000  C
  C132     1.0000 0.48830  0.30180  0.79620  Biso   1.000  C
  H92      1.0000 0.45150  0.32750  0.75240  Biso   1.000  H
  H93      1.0000 0.49490  0.34720  0.80860  Biso   1.000  H
  H94      1.0000 0.63800  0.54100  0.49700  Biso   1.000  H
  H95      1.0000 0.55680  0.60890  0.53200  Biso   1.000  H
  C133     1.0000 0.58090  0.51720  0.51010  Biso   1.000  C
  O39      1.0000 0.11115  0.63027  0.00331  Biso   1.000  O
  O40      1.0000 0.03385  0.59118  0.95614  Biso   1.000  O
  C134     1.0000 0.09517  0.63993  0.97252  Biso   1.000  C
  C135     1.0000 0.13837  0.73463  0.92207  Biso   1.000  C
  H96      1.0000 0.09037  0.69693  0.91093  Biso   1.000  H
  C136     1.0000 0.15277  0.71973  0.95589  Biso   1.000  C
  C137     1.0000 0.21257  0.89123  0.85393  Biso   1.000  C
  C138     1.0000 0.12907  0.62243  0.09583  Biso   1.000  C
  C139     1.0000 0.15497  0.63513  0.12953  Biso   1.000  C
  H97      1.0000 0.11817  0.66083  0.08573  Biso   1.000  H
  H98      1.0000 0.16157  0.68053  0.14193  Biso   1.000  H
  H99      1.0000 0.30467  0.87433  0.83033  Biso   1.000  H
  H100     1.0000 0.22347  0.94223  0.86533  Biso   1.000  H
  C140     1.0000 0.24757  0.85053  0.84343  Biso   1.000  C
  O41      1.0000 0.77781  0.96361  0.33665  Biso   1.000  O
  O42      1.0000 0.70051  0.92452  0.28948  Biso   1.000  O
  C141     1.0000 0.76183  0.97327  0.30586  Biso   1.000  C
  C142     1.0000 0.80503  0.06797  0.25541  Biso   1.000  C
  H101     1.0000 0.75703  0.03027  0.24427  Biso   1.000  H
  C143     1.0000 0.81943  0.05307  0.28923  Biso   1.000  C
  C144     1.0000 0.87923  0.22457  0.18727  Biso   1.000  C
  C145     1.0000 0.79573  0.95577  0.42917  Biso   1.000  C
  C146     1.0000 0.82163  0.96847  0.46287  Biso   1.000  C
  H102     1.0000 0.78483  0.99417  0.41907  Biso   1.000  H
  H103     1.0000 0.82823  0.01387  0.47527  Biso   1.000  H
  H104     1.0000 0.97133  0.20767  0.16367  Biso   1.000  H
  H105     1.0000 0.89013  0.27557  0.19867  Biso   1.000  H
  C147     1.0000 0.91423  0.18387  0.17677  Biso   1.000  C
  O43      1.0000 0.70306  0.14754  0.66998  Biso   1.000  O
  O44      1.0000 0.74215  0.10933  0.62281  Biso   1.000  O
  C148     1.0000 0.69340  0.12190  0.63919  Biso   1.000  C
  C149     1.0000 0.59870  0.07040  0.58874  Biso   1.000  C
  H106     1.0000 0.63640  0.06010  0.57760  Biso   1.000  H
  C150     1.0000 0.61360  0.09970  0.62256  Biso   1.000  C
  C151     1.0000 0.44210  0.98800  0.52060  Biso   1.000  C
  C152     1.0000 0.71090  0.17330  0.76250  Biso   1.000  C
  C153     1.0000 0.69820  0.18650  0.79620  Biso   1.000  C
  H107     1.0000 0.67250  0.12400  0.75240  Biso   1.000  H
  H108     1.0000 0.65280  0.14770  0.80860  Biso   1.000  H
  H109     1.0000 0.45900  0.09700  0.49700  Biso   1.000  H
  H110     1.0000 0.39110  0.94790  0.53200  Biso   1.000  H
  C154     1.0000 0.48280  0.06370  0.51010  Biso   1.000  C
  O45      1.0000 0.36973  0.48087  0.00331  Biso   1.000  O
  O46      1.0000 0.40882  0.44266  0.95614  Biso   1.000  O
  C155     1.0000 0.36007  0.45523  0.97252  Biso   1.000  C
  C156     1.0000 0.26537  0.40373  0.92207  Biso   1.000  C
  H111     1.0000 0.30307  0.39343  0.91093  Biso   1.000  H
  C157     1.0000 0.28027  0.43303  0.95589  Biso   1.000  C
  C158     1.0000 0.10877  0.32133  0.85393  Biso   1.000  C
  C159     1.0000 0.37757  0.50663  0.09583  Biso   1.000  C
  C160     1.0000 0.36487  0.51983  0.12953  Biso   1.000  C
  H112     1.0000 0.33917  0.45733  0.08573  Biso   1.000  H
  H113     1.0000 0.31947  0.48103  0.14193  Biso   1.000  H
  H114     1.0000 0.12567  0.43033  0.83033  Biso   1.000  H
  H115     1.0000 0.05777  0.28123  0.86533  Biso   1.000  H
  C161     1.0000 0.14947  0.39703  0.84343  Biso   1.000  C
  O47      1.0000 0.03639  0.81421  0.33665  Biso   1.000  O
  O48      1.0000 0.07548  0.77600  0.28948  Biso   1.000  O
  C162     1.0000 0.02673  0.78857  0.30586  Biso   1.000  C
  C163     1.0000 0.93203  0.73707  0.25541  Biso   1.000  C
  H116     1.0000 0.96973  0.72677  0.24427  Biso   1.000  H
  C164     1.0000 0.94693  0.76637  0.28923  Biso   1.000  C
  C165     1.0000 0.77543  0.65467  0.18727  Biso   1.000  C
  C166     1.0000 0.04423  0.83997  0.42917  Biso   1.000  C
  C167     1.0000 0.03153  0.85317  0.46287  Biso   1.000  C
  H117     1.0000 0.00583  0.79067  0.41907  Biso   1.000  H
  H118     1.0000 0.98613  0.81437  0.47527  Biso   1.000  H
  H119     1.0000 0.79233  0.76367  0.16367  Biso   1.000  H
  H120     1.0000 0.72443  0.61457  0.19867  Biso   1.000  H
  C168     1.0000 0.81613  0.73037  0.17677  Biso   1.000  C
  O49      1.0000 0.85246  0.55552  0.66998  Biso   1.000  O
  O50      1.0000 0.89067  0.63282  0.62281  Biso   1.000  O
  C169     1.0000 0.87810  0.57150  0.63919  Biso   1.000  C
  C170     1.0000 0.92960  0.52830  0.58874  Biso   1.000  C
  H121     1.0000 0.93990  0.57630  0.57760  Biso   1.000  H
  C171     1.0000 0.90030  0.51390  0.62256  Biso   1.000  C
  C172     1.0000 0.01200  0.45410  0.52060  Biso   1.000  C
  C173     1.0000 0.82670  0.53760  0.76250  Biso   1.000  C
  C174     1.0000 0.81350  0.51170  0.79620  Biso   1.000  C
  H122     1.0000 0.87600  0.54850  0.75240  Biso   1.000  H
  H123     1.0000 0.85230  0.50510  0.80860  Biso   1.000  H
  H124     1.0000 0.90300  0.36200  0.49700  Biso   1.000  H
  H125     1.0000 0.05210  0.44320  0.53200  Biso   1.000  H
  C175     1.0000 0.93630  0.41910  0.51010  Biso   1.000  C
  O51      1.0000 0.51913  0.88885  0.00331  Biso   1.000  O
  O52      1.0000 0.55734  0.96615  0.95614  Biso   1.000  O
  C176     1.0000 0.54477  0.90483  0.97252  Biso   1.000  C
  C177     1.0000 0.59627  0.86163  0.92207  Biso   1.000  C
  H126     1.0000 0.60657  0.90963  0.91093  Biso   1.000  H
  C178     1.0000 0.56697  0.84723  0.95589  Biso   1.000  C
  C179     1.0000 0.67867  0.78743  0.85393  Biso   1.000  C
  C180     1.0000 0.49337  0.87093  0.09583  Biso   1.000  C
  C181     1.0000 0.48017  0.84503  0.12953  Biso   1.000  C
  H127     1.0000 0.54267  0.88183  0.08573  Biso   1.000  H
  H128     1.0000 0.51897  0.83843  0.14193  Biso   1.000  H
  H129     1.0000 0.56967  0.69533  0.83033  Biso   1.000  H
  H130     1.0000 0.71877  0.77653  0.86533  Biso   1.000  H
  C182     1.0000 0.60297  0.75243  0.84343  Biso   1.000  C
  O53      1.0000 0.18579  0.22219  0.33665  Biso   1.000  O
  O54      1.0000 0.22400  0.29949  0.28948  Biso   1.000  O
  C183     1.0000 0.21143  0.23817  0.30586  Biso   1.000  C
  C184     1.0000 0.26293  0.19497  0.25541  Biso   1.000  C
  H131     1.0000 0.27323  0.24297  0.24427  Biso   1.000  H
  C185     1.0000 0.23363  0.18057  0.28923  Biso   1.000  C
  C186     1.0000 0.34533  0.12077  0.18727  Biso   1.000  C
  C187     1.0000 0.16003  0.20427  0.42917  Biso   1.000  C
  C188     1.0000 0.14683  0.17837  0.46287  Biso   1.000  C
  H132     1.0000 0.20933  0.21517  0.41907  Biso   1.000  H
  H133     1.0000 0.18563  0.17177  0.47527  Biso   1.000  H
  H134     1.0000 0.23633  0.02867  0.16367  Biso   1.000  H
  H135     1.0000 0.38543  0.10987  0.19867  Biso   1.000  H
  C189     1.0000 0.26963  0.08577  0.17677  Biso   1.000  C
  O55      1.0000 0.29694  0.44448  0.33002  Biso   1.000  O
  O56      1.0000 0.25785  0.36718  0.37719  Biso   1.000  O
  C190     1.0000 0.30660  0.42850  0.36081  Biso   1.000  C
  C191     1.0000 0.40130  0.47170  0.41126  Biso   1.000  C
  H136     1.0000 0.36360  0.42370  0.42240  Biso   1.000  H
  C192     1.0000 0.38640  0.48610  0.37744  Biso   1.000  C
  C193     1.0000 0.55790  0.54590  0.47940  Biso   1.000  C
  C194     1.0000 0.28910  0.46240  0.23750  Biso   1.000  C
  C195     1.0000 0.30180  0.48830  0.20380  Biso   1.000  C
  H137     1.0000 0.32750  0.45150  0.24760  Biso   1.000  H
  H138     1.0000 0.34720  0.49490  0.19140  Biso   1.000  H
  H139     1.0000 0.54100  0.63800  0.50300  Biso   1.000  H
  H140     1.0000 0.60890  0.55680  0.46800  Biso   1.000  H
  C196     1.0000 0.51720  0.58090  0.48990  Biso   1.000  C
  O57      1.0000 0.96361  0.77781  0.66335  Biso   1.000  O
  O58      1.0000 0.92452  0.70051  0.71052  Biso   1.000  O
  C197     1.0000 0.97327  0.76183  0.69414  Biso   1.000  C
  C198     1.0000 0.06797  0.80503  0.74459  Biso   1.000  C
  H141     1.0000 0.03027  0.75703  0.75573  Biso   1.000  H
  C199     1.0000 0.05307  0.81943  0.71077  Biso   1.000  C
  C200     1.0000 0.22457  0.87923  0.81273  Biso   1.000  C
  C201     1.0000 0.95577  0.79573  0.57083  Biso   1.000  C
  C202     1.0000 0.96847  0.82163  0.53713  Biso   1.000  C
  H142     1.0000 0.99417  0.78483  0.58093  Biso   1.000  H
  H143     1.0000 0.01387  0.82823  0.52473  Biso   1.000  H
  H144     1.0000 0.20767  0.97133  0.83633  Biso   1.000  H
  H145     1.0000 0.27557  0.89013  0.80133  Biso   1.000  H
  C203     1.0000 0.18387  0.91423  0.82323  Biso   1.000  C
  O59      1.0000 0.63027  0.11115  0.99669  Biso   1.000  O
  O60      1.0000 0.59118  0.03385  0.04386  Biso   1.000  O
  C204     1.0000 0.63993  0.09517  0.02748  Biso   1.000  C
  C205     1.0000 0.73463  0.13837  0.07793  Biso   1.000  C
  H146     1.0000 0.69693  0.09037  0.08907  Biso   1.000  H
  C206     1.0000 0.71973  0.15277  0.04411  Biso   1.000  C
  C207     1.0000 0.89123  0.21257  0.14607  Biso   1.000  C
  C208     1.0000 0.62243  0.12907  0.90417  Biso   1.000  C
  C209     1.0000 0.63513  0.15497  0.87047  Biso   1.000  C
  H147     1.0000 0.66083  0.11817  0.91427  Biso   1.000  H
  H148     1.0000 0.68053  0.16157  0.85807  Biso   1.000  H
  H149     1.0000 0.87433  0.30467  0.16967  Biso   1.000  H
  H150     1.0000 0.94223  0.22347  0.13467  Biso   1.000  H
  C210     1.0000 0.85053  0.24757  0.15657  Biso   1.000  C
  O61      1.0000 0.14754  0.70306  0.33002  Biso   1.000  O
  O62      1.0000 0.10933  0.74215  0.37719  Biso   1.000  O
  C211     1.0000 0.12190  0.69340  0.36081  Biso   1.000  C
  C212     1.0000 0.07040  0.59870  0.41126  Biso   1.000  C
  H151     1.0000 0.06010  0.63640  0.42240  Biso   1.000  H
  C213     1.0000 0.09970  0.61360  0.37744  Biso   1.000  C
  C214     1.0000 0.98800  0.44210  0.47940  Biso   1.000  C
  C215     1.0000 0.17330  0.71090  0.23750  Biso   1.000  C
  C216     1.0000 0.18650  0.69820  0.20380  Biso   1.000  C
  H152     1.0000 0.12400  0.67250  0.24760  Biso   1.000  H
  H153     1.0000 0.14770  0.65280  0.19140  Biso   1.000  H
  H154     1.0000 0.09700  0.45900  0.50300  Biso   1.000  H
  H155     1.0000 0.94790  0.39110  0.46800  Biso   1.000  H
  C217     1.0000 0.06370  0.48280  0.48990  Biso   1.000  C
  O63      1.0000 0.81421  0.03639  0.66335  Biso   1.000  O
  O64      1.0000 0.77600  0.07548  0.71052  Biso   1.000  O
  C218     1.0000 0.78857  0.02673  0.69414  Biso   1.000  C
  C219     1.0000 0.73707  0.93203  0.74459  Biso   1.000  C
  H156     1.0000 0.72677  0.96973  0.75573  Biso   1.000  H
  C220     1.0000 0.76637  0.94693  0.71077  Biso   1.000  C
  C221     1.0000 0.65467  0.77543  0.81273  Biso   1.000  C
  C222     1.0000 0.83997  0.04423  0.57083  Biso   1.000  C
  C223     1.0000 0.85317  0.03153  0.53713  Biso   1.000  C
  H157     1.0000 0.79067  0.00583  0.58093  Biso   1.000  H
  H158     1.0000 0.81437  0.98613  0.52473  Biso   1.000  H
  H159     1.0000 0.76367  0.79233  0.83633  Biso   1.000  H
  H160     1.0000 0.61457  0.72443  0.80133  Biso   1.000  H
  C224     1.0000 0.73037  0.81613  0.82323  Biso   1.000  C
  O65      1.0000 0.48087  0.36973  0.99669  Biso   1.000  O
  O66      1.0000 0.44266  0.40882  0.04386  Biso   1.000  O
  C225     1.0000 0.45523  0.36007  0.02748  Biso   1.000  C
  C226     1.0000 0.40373  0.26537  0.07793  Biso   1.000  C
  H161     1.0000 0.39343  0.30307  0.08907  Biso   1.000  H
  C227     1.0000 0.43303  0.28027  0.04411  Biso   1.000  C
  C228     1.0000 0.32133  0.10877  0.14607  Biso   1.000  C
  C229     1.0000 0.50663  0.37757  0.90417  Biso   1.000  C
  C230     1.0000 0.51983  0.36487  0.87047  Biso   1.000  C
  H162     1.0000 0.45733  0.33917  0.91427  Biso   1.000  H
  H163     1.0000 0.48103  0.31947  0.85807  Biso   1.000  H
  H164     1.0000 0.43033  0.12567  0.16967  Biso   1.000  H
  H165     1.0000 0.28123  0.05777  0.13467  Biso   1.000  H
  C231     1.0000 0.39703  0.14947  0.15657  Biso   1.000  C
  O67      1.0000 0.55552  0.85246  0.33002  Biso   1.000  O
  O68      1.0000 0.63282  0.89067  0.37719  Biso   1.000  O
  C232     1.0000 0.57150  0.87810  0.36081  Biso   1.000  C
  C233     1.0000 0.52830  0.92960  0.41126  Biso   1.000  C
  H166     1.0000 0.57630  0.93990  0.42240  Biso   1.000  H
  C234     1.0000 0.51390  0.90030  0.37744  Biso   1.000  C
  C235     1.0000 0.45410  0.01200  0.47940  Biso   1.000  C
  C236     1.0000 0.53760  0.82670  0.23750  Biso   1.000  C
  C237     1.0000 0.51170  0.81350  0.20380  Biso   1.000  C
  H167     1.0000 0.54850  0.87600  0.24760  Biso   1.000  H
  H168     1.0000 0.50510  0.85230  0.19140  Biso   1.000  H
  H169     1.0000 0.36200  0.90300  0.50300  Biso   1.000  H
  H170     1.0000 0.44320  0.05210  0.46800  Biso   1.000  H
  C238     1.0000 0.41910  0.93630  0.48990  Biso   1.000  C
  O69      1.0000 0.22219  0.18579  0.66335  Biso   1.000  O
  O70      1.0000 0.29949  0.22400  0.71052  Biso   1.000  O
  C239     1.0000 0.23817  0.21143  0.69414  Biso   1.000  C
  C240     1.0000 0.19497  0.26293  0.74459  Biso   1.000  C
  H171     1.0000 0.24297  0.27323  0.75573  Biso   1.000  H
  C241     1.0000 0.18057  0.23363  0.71077  Biso   1.000  C
  C242     1.0000 0.12077  0.34533  0.81273  Biso   1.000  C
  C243     1.0000 0.20427  0.16003  0.57083  Biso   1.000  C
  C244     1.0000 0.17837  0.14683  0.53713  Biso   1.000  C
  H172     1.0000 0.21517  0.20933  0.58093  Biso   1.000  H
  H173     1.0000 0.17177  0.18563  0.52473  Biso   1.000  H
  H174     1.0000 0.02867  0.23633  0.83633  Biso   1.000  H
  H175     1.0000 0.10987  0.38543  0.80133  Biso   1.000  H
  C245     1.0000 0.08577  0.26963  0.82323  Biso   1.000  C
  O71      1.0000 0.88885  0.51913  0.99669  Biso   1.000  O
  O72      1.0000 0.96615  0.55734  0.04386  Biso   1.000  O
  C246     1.0000 0.90483  0.54477  0.02748  Biso   1.000  C
  C247     1.0000 0.86163  0.59627  0.07793  Biso   1.000  C
  H176     1.0000 0.90963  0.60657  0.08907  Biso   1.000  H
  C248     1.0000 0.84723  0.56697  0.04411  Biso   1.000  C
  C249     1.0000 0.78743  0.67867  0.14607  Biso   1.000  C
  C250     1.0000 0.87093  0.49337  0.90417  Biso   1.000  C
  C251     1.0000 0.84503  0.48017  0.87047  Biso   1.000  C
  H177     1.0000 0.88183  0.54267  0.91427  Biso   1.000  H
  H178     1.0000 0.83843  0.51897  0.85807  Biso   1.000  H
  H179     1.0000 0.69533  0.56967  0.16967  Biso   1.000  H
  H180     1.0000 0.77653  0.71877  0.13467  Biso   1.000  H
  C252     1.0000 0.75243  0.60297  0.15657  Biso   1.000  C
  Zn1      1.0000 0.61407  0.80703  0.30146  Biso   1.000  Zn
  N1       1.0000 0.54860  0.77430  0.25713  Biso   1.000  N
  C253     1.0000 0.49760  0.74880  0.19040  Biso   1.000  C
  N2       1.0000 0.45100  0.72550  0.15620  Biso   1.000  N
  Zn2      1.0000 0.28074  0.14037  0.63479  Biso   1.000  Zn
  N3       1.0000 0.21527  0.10763  0.59046  Biso   1.000  N
  C254     1.0000 0.16427  0.08213  0.52373  Biso   1.000  C
  N4       1.0000 0.11767  0.05883  0.48953  Biso   1.000  N
  Zn3      1.0000 0.94740  0.47370  0.96813  Biso   1.000  Zn
  N5       1.0000 0.88193  0.44097  0.92380  Biso   1.000  N
  C255     1.0000 0.83093  0.41547  0.85707  Biso   1.000  C
  N6       1.0000 0.78433  0.39217  0.82287  Biso   1.000  N
  Zn4      1.0000 0.19297  0.80703  0.30146  Biso   1.000  Zn
  N7       1.0000 0.22570  0.77430  0.25713  Biso   1.000  N
  C256     1.0000 0.25120  0.74880  0.19040  Biso   1.000  C
  N8       1.0000 0.27450  0.72550  0.15620  Biso   1.000  N
  Zn5      1.0000 0.85963  0.14037  0.63479  Biso   1.000  Zn
  N9       1.0000 0.89237  0.10763  0.59046  Biso   1.000  N
  C257     1.0000 0.91787  0.08213  0.52373  Biso   1.000  C
  N10      1.0000 0.94117  0.05883  0.48953  Biso   1.000  N
  Zn6      1.0000 0.52630  0.47370  0.96813  Biso   1.000  Zn
  N11      1.0000 0.55903  0.44097  0.92380  Biso   1.000  N
  C258     1.0000 0.58453  0.41547  0.85707  Biso   1.000  C
  N12      1.0000 0.60783  0.39217  0.82287  Biso   1.000  N
  Zn7      1.0000 0.19297  0.38593  0.30146  Biso   1.000  Zn
  N13      1.0000 0.22570  0.45140  0.25713  Biso   1.000  N
  C259     1.0000 0.25120  0.50240  0.19040  Biso   1.000  C
  N14      1.0000 0.27450  0.54900  0.15620  Biso   1.000  N
  Zn8      1.0000 0.85963  0.71926  0.63479  Biso   1.000  Zn
  N15      1.0000 0.89237  0.78473  0.59046  Biso   1.000  N
  C260     1.0000 0.91787  0.83573  0.52373  Biso   1.000  C
  N16      1.0000 0.94117  0.88233  0.48953  Biso   1.000  N
  Zn9      1.0000 0.52630  0.05260  0.96813  Biso   1.000  Zn
  N17      1.0000 0.55903  0.11807  0.92380  Biso   1.000  N
  C261     1.0000 0.58453  0.16907  0.85707  Biso   1.000  C
  N18      1.0000 0.60783  0.21567  0.82287  Biso   1.000  N
  Zn10     1.0000 0.80703  0.61407  0.69854  Biso   1.000  Zn
  N19      1.0000 0.77430  0.54860  0.74287  Biso   1.000  N
  C262     1.0000 0.74880  0.49760  0.80960  Biso   1.000  C
  N20      1.0000 0.72550  0.45100  0.84380  Biso   1.000  N
  Zn11     1.0000 0.47370  0.94740  0.03187  Biso   1.000  Zn
  N21      1.0000 0.44097  0.88193  0.07620  Biso   1.000  N
  C263     1.0000 0.41547  0.83093  0.14293  Biso   1.000  C
  N22      1.0000 0.39217  0.78433  0.17713  Biso   1.000  N
  Zn12     1.0000 0.14037  0.28074  0.36521  Biso   1.000  Zn
  N23      1.0000 0.10763  0.21527  0.40954  Biso   1.000  N
  C264     1.0000 0.08213  0.16427  0.47627  Biso   1.000  C
  N24      1.0000 0.05883  0.11767  0.51047  Biso   1.000  N
  Zn13     1.0000 0.80703  0.19297  0.69854  Biso   1.000  Zn
  N25      1.0000 0.77430  0.22570  0.74287  Biso   1.000  N
  C265     1.0000 0.74880  0.25120  0.80960  Biso   1.000  C
  N26      1.0000 0.72550  0.27450  0.84380  Biso   1.000  N
  Zn14     1.0000 0.47370  0.52630  0.03187  Biso   1.000  Zn
  N27      1.0000 0.44097  0.55903  0.07620  Biso   1.000  N
  C266     1.0000 0.41547  0.58453  0.14293  Biso   1.000  C
  N28      1.0000 0.39217  0.60783  0.17713  Biso   1.000  N
  Zn15     1.0000 0.14037  0.85963  0.36521  Biso   1.000  Zn
  N29      1.0000 0.10763  0.89237  0.40954  Biso   1.000  N
  C267     1.0000 0.08213  0.91787  0.47627  Biso   1.000  C
  N30      1.0000 0.05883  0.94117  0.51047  Biso   1.000  N
  Zn16     1.0000 0.38593  0.19297  0.69854  Biso   1.000  Zn
  N31      1.0000 0.45140  0.22570  0.74287  Biso   1.000  N
  C268     1.0000 0.50240  0.25120  0.80960  Biso   1.000  C
  N32      1.0000 0.54900  0.27450  0.84380  Biso   1.000  N
  Zn17     1.0000 0.05260  0.52630  0.03187  Biso   1.000  Zn
  N33      1.0000 0.11807  0.55903  0.07620  Biso   1.000  N
  C269     1.0000 0.16907  0.58453  0.14293  Biso   1.000  C
  N34      1.0000 0.21567  0.60783  0.17713  Biso   1.000  N
  Zn18     1.0000 0.71926  0.85963  0.36521  Biso   1.000  Zn
  N35      1.0000 0.78473  0.89237  0.40954  Biso   1.000  N
  C270     1.0000 0.83573  0.91787  0.47627  Biso   1.000  C
  N36      1.0000 0.88233  0.94117  0.51047  Biso   1.000  N
  C271     1.0000 0.44344  0.55656  0.36090  Biso   1.000  C
  H181     1.0000 0.43420  0.56580  0.33810  Biso   1.000  H
  C272     1.0000 0.47170  0.52830  0.42862  Biso   1.000  C
  C273     1.0000 0.48650  0.51350  0.46546  Biso   1.000  C
  H182     1.0000 0.51650  0.48350  0.46690  Biso   1.000  H
  C274     1.0000 0.11011  0.88989  0.69423  Biso   1.000  C
  H183     1.0000 0.10087  0.89913  0.67143  Biso   1.000  H
  C275     1.0000 0.13837  0.86163  0.76195  Biso   1.000  C
  C276     1.0000 0.15317  0.84683  0.79879  Biso   1.000  C
  H184     1.0000 0.18317  0.81683  0.80023  Biso   1.000  H
  C277     1.0000 0.77677  0.22323  0.02757  Biso   1.000  C
  H185     1.0000 0.76753  0.23247  0.00477  Biso   1.000  H
  C278     1.0000 0.80503  0.19497  0.09529  Biso   1.000  C
  C279     1.0000 0.81983  0.18017  0.13213  Biso   1.000  C
  H186     1.0000 0.84983  0.15017  0.13357  Biso   1.000  H
  C280     1.0000 0.44344  0.88688  0.36090  Biso   1.000  C
  H187     1.0000 0.43420  0.86840  0.33810  Biso   1.000  H
  C281     1.0000 0.47170  0.94340  0.42862  Biso   1.000  C
  C282     1.0000 0.48650  0.97300  0.46546  Biso   1.000  C
  H188     1.0000 0.51650  0.03300  0.46690  Biso   1.000  H
  C283     1.0000 0.11011  0.22021  0.69423  Biso   1.000  C
  H189     1.0000 0.10087  0.20173  0.67143  Biso   1.000  H
  C284     1.0000 0.13837  0.27673  0.76195  Biso   1.000  C
  C285     1.0000 0.15317  0.30633  0.79879  Biso   1.000  C
  H190     1.0000 0.18317  0.36633  0.80023  Biso   1.000  H
  C286     1.0000 0.77677  0.55355  0.02757  Biso   1.000  C
  H191     1.0000 0.76753  0.53507  0.00477  Biso   1.000  H
  C287     1.0000 0.80503  0.61007  0.09529  Biso   1.000  C
  C288     1.0000 0.81983  0.63967  0.13213  Biso   1.000  C
  H192     1.0000 0.84983  0.69967  0.13357  Biso   1.000  H
  C289     1.0000 0.11312  0.55656  0.36090  Biso   1.000  C
  H193     1.0000 0.13160  0.56580  0.33810  Biso   1.000  H
  C290     1.0000 0.05660  0.52830  0.42862  Biso   1.000  C
  C291     1.0000 0.02700  0.51350  0.46546  Biso   1.000  C
  H194     1.0000 0.96700  0.48350  0.46690  Biso   1.000  H
  C292     1.0000 0.77979  0.88989  0.69423  Biso   1.000  C
  H195     1.0000 0.79827  0.89913  0.67143  Biso   1.000  H
  C293     1.0000 0.72327  0.86163  0.76195  Biso   1.000  C
  C294     1.0000 0.69367  0.84683  0.79879  Biso   1.000  C
  H196     1.0000 0.63367  0.81683  0.80023  Biso   1.000  H
  C295     1.0000 0.44645  0.22323  0.02757  Biso   1.000  C
  H197     1.0000 0.46493  0.23247  0.00477  Biso   1.000  H
  C296     1.0000 0.38993  0.19497  0.09529  Biso   1.000  C
  C297     1.0000 0.36033  0.18017  0.13213  Biso   1.000  C
  H198     1.0000 0.30033  0.15017  0.13357  Biso   1.000  H
  C298     1.0000 0.55656  0.44344  0.63910  Biso   1.000  C
  H199     1.0000 0.56580  0.43420  0.66190  Biso   1.000  H
  C299     1.0000 0.52830  0.47170  0.57138  Biso   1.000  C
  C300     1.0000 0.51350  0.48650  0.53454  Biso   1.000  C
  H200     1.0000 0.48350  0.51650  0.53310  Biso   1.000  H
  C301     1.0000 0.22323  0.77677  0.97243  Biso   1.000  C
  H201     1.0000 0.23247  0.76753  0.99523  Biso   1.000  H
  C302     1.0000 0.19497  0.80503  0.90471  Biso   1.000  C
  C303     1.0000 0.18017  0.81983  0.86787  Biso   1.000  C
  H202     1.0000 0.15017  0.84983  0.86643  Biso   1.000  H
  C304     1.0000 0.88989  0.11011  0.30577  Biso   1.000  C
  H203     1.0000 0.89913  0.10087  0.32857  Biso   1.000  H
  C305     1.0000 0.86163  0.13837  0.23805  Biso   1.000  C
  C306     1.0000 0.84683  0.15317  0.20121  Biso   1.000  C
  H204     1.0000 0.81683  0.18317  0.19977  Biso   1.000  H
  C307     1.0000 0.88688  0.44344  0.63910  Biso   1.000  C
  H205     1.0000 0.86840  0.43420  0.66190  Biso   1.000  H
  C308     1.0000 0.94340  0.47170  0.57138  Biso   1.000  C
  C309     1.0000 0.97300  0.48650  0.53454  Biso   1.000  C
  H206     1.0000 0.03300  0.51650  0.53310  Biso   1.000  H
  C310     1.0000 0.55355  0.77677  0.97243  Biso   1.000  C
  H207     1.0000 0.53507  0.76753  0.99523  Biso   1.000  H
  C311     1.0000 0.61007  0.80503  0.90471  Biso   1.000  C
  C312     1.0000 0.63967  0.81983  0.86787  Biso   1.000  C
  H208     1.0000 0.69967  0.84983  0.86643  Biso   1.000  H
  C313     1.0000 0.22021  0.11011  0.30577  Biso   1.000  C
  H209     1.0000 0.20173  0.10087  0.32857  Biso   1.000  H
  C314     1.0000 0.27673  0.13837  0.23805  Biso   1.000  C
  C315     1.0000 0.30633  0.15317  0.20121  Biso   1.000  C
  H210     1.0000 0.36633  0.18317  0.19977  Biso   1.000  H
  C316     1.0000 0.55656  0.11312  0.63910  Biso   1.000  C
  H211     1.0000 0.56580  0.13160  0.66190  Biso   1.000  H
  C317     1.0000 0.52830  0.05660  0.57138  Biso   1.000  C
  C318     1.0000 0.51350  0.02700  0.53454  Biso   1.000  C
  H212     1.0000 0.48350  0.96700  0.53310  Biso   1.000  H
  C319     1.0000 0.22323  0.44645  0.97243  Biso   1.000  C
  H213     1.0000 0.23247  0.46493  0.99523  Biso   1.000  H
  C320     1.0000 0.19497  0.38993  0.90471  Biso   1.000  C
  C321     1.0000 0.18017  0.36033  0.86787  Biso   1.000  C
  H214     1.0000 0.15017  0.30033  0.86643  Biso   1.000  H
  C322     1.0000 0.88989  0.77979  0.30577  Biso   1.000  C
  H215     1.0000 0.89913  0.79827  0.32857  Biso   1.000  H
  C323     1.0000 0.86163  0.72327  0.23805  Biso   1.000  C
  C324     1.0000 0.84683  0.69367  0.20121  Biso   1.000  C
  H216     1.0000 0.81683  0.63367  0.19977  Biso   1.000  H
