data_image0
_cell_length_a       18.611
_cell_length_b       18.611
_cell_length_c       52.08
_cell_angle_alpha    90
_cell_angle_beta     90
_cell_angle_gamma    120

_symmetry_space_group_name_H-M    "P 1"
_symmetry_int_tables_number       1

loop_
  _symmetry_equiv_pos_as_xyz
  'x, y, z'

loop_
  _atom_site_label
  _atom_site_occupancy
  _atom_site_fract_x
  _atom_site_fract_y
  _atom_site_fract_z
  _atom_site_thermal_displace_type
  _atom_site_B_iso_or_equiv
  _atom_site_type_symbol
  Cu1      1.0000 0.28710  0.13350  0.04930  Biso   1.000  Cu
  O1       1.0000 0.56310  0.84800  0.73290  Biso   1.000  O
  Cu2      1.0000 0.38100  0.17920  0.09115  Biso   1.000  Cu
  O2       1.0000 0.21170  0.09110  0.01690  Biso   1.000  O
  O3       1.0000 0.36200  0.09520  0.03770  Biso   1.000  O
  O4       1.0000 0.74850  0.10480  0.03840  Biso   1.000  O
  O5       1.0000 0.30840  0.86280  0.73310  Biso   1.000  O
  C1       1.0000 0.58220  0.88180  0.75500  Biso   1.000  C
  O6       1.0000 0.64030  0.88430  0.76930  Biso   1.000  O
  O7       1.0000 0.45100  0.21600  0.12700  Biso   1.000  O
  O8       1.0000 0.44070  0.13540  0.07190  Biso   1.000  O
  O9       1.0000 0.69970  0.13260  0.07300  Biso   1.000  O
  O10      1.0000 0.26990  0.90240  0.76810  Biso   1.000  O
  C2       1.0000 0.42750  0.11570  0.04960  Biso   1.000  C
  C3       1.0000 0.69490  0.11690  0.05020  Biso   1.000  C
  C4       1.0000 0.32060  0.89230  0.75580  Biso   1.000  C
  C5       1.0000 0.49300  0.10740  0.03520  Biso   1.000  C
  C6       1.0000 0.48770  0.09500  0.00880  Biso   1.000  C
  C7       1.0000 0.56050  0.11390  0.04865  Biso   1.000  C
  C8       1.0000 0.54990  0.08910  0.99584  Biso   1.000  C
  H1       1.0000 0.44160  0.09060  0.99960  Biso   1.000  H
  C9       1.0000 0.62270  0.10800  0.03570  Biso   1.000  C
  H2       1.0000 0.56410  0.12240  0.06670  Biso   1.000  H
  C10      1.0000 0.54310  0.07180  0.96629  Biso   1.000  C
  C11      1.0000 0.61730  0.09560  0.00930  Biso   1.000  C
  C12      1.0000 0.47680  0.06690  0.95255  Biso   1.000  C
  C13      1.0000 0.60640  0.06750  0.95350  Biso   1.000  C
  H3       1.0000 0.65990  0.09160  0.00050  Biso   1.000  H
  C14      1.0000 0.47380  0.05780  0.92602  Biso   1.000  C
  H4       1.0000 0.43350  0.06980  0.96130  Biso   1.000  H
  H5       1.0000 0.65170  0.07080  0.96290  Biso   1.000  H
  C15      1.0000 0.60340  0.05840  0.92697  Biso   1.000  C
  H6       1.0000 0.42850  0.05450  0.91660  Biso   1.000  H
  C16      1.0000 0.53700  0.05350  0.91323  Biso   1.000  C
  H7       1.0000 0.64670  0.05550  0.91820  Biso   1.000  H
  C17      1.0000 0.52200  0.03270  0.88522  Biso   1.000  C
  C18      1.0000 0.55470  0.98610  0.87501  Biso   1.000  C
  C19      1.0000 0.47790  0.05760  0.86960  Biso   1.000  C
  C20      1.0000 0.54320  0.96440  0.84918  Biso   1.000  C
  H8       1.0000 0.58490  0.96910  0.88570  Biso   1.000  H
  C21      1.0000 0.46640  0.03590  0.84380  Biso   1.000  C
  H9       1.0000 0.45550  0.08940  0.87660  Biso   1.000  H
  C22      1.0000 0.49910  0.98930  0.83356  Biso   1.000  C
  H10      1.0000 0.56560  0.93260  0.84220  Biso   1.000  H
  H11      1.0000 0.43620  0.05290  0.83310  Biso   1.000  H
  C23      1.0000 0.49380  0.95810  0.80521  Biso   1.000  C
  C24      1.0000 0.54790  0.94030  0.79200  Biso   1.000  C
  C25      1.0000 0.42060  0.94420  0.79360  Biso   1.000  C
  C26      1.0000 0.52900  0.90880  0.76720  Biso   1.000  C
  H12      1.0000 0.59790  0.94980  0.79990  Biso   1.000  H
  C27      1.0000 0.40170  0.91270  0.76880  Biso   1.000  C
  H13      1.0000 0.38360  0.95640  0.80260  Biso   1.000  H
  C28      1.0000 0.45580  0.89490  0.75560  Biso   1.000  C
  H14      1.0000 0.44290  0.87340  0.73860  Biso   1.000  H
  Cu3      1.0000 0.79800  0.17870  0.09044  Biso   1.000  Cu
  Cu4      1.0000 0.84530  0.13220  0.04890  Biso   1.000  Cu
  O11      1.0000 0.75700  0.21300  0.12550  Biso   1.000  O
  O12      1.0000 0.87680  0.09410  0.01520  Biso   1.000  O
  O13      1.0000 0.87490  0.24260  0.03580  Biso   1.000  O
  O14      1.0000 0.83450  0.28200  0.07070  Biso   1.000  O
  C29      1.0000 0.85770  0.28850  0.04870  Biso   1.000  C
  C30      1.0000 0.86570  0.36360  0.03470  Biso   1.000  C
  C31      1.0000 0.86140  0.42660  0.04771  Biso   1.000  C
  H15      1.0000 0.85340  0.42310  0.06580  Biso   1.000  H
  C32      1.0000 0.86910  0.49460  0.03430  Biso   1.000  C
  C33      1.0000 0.88090  0.49960  0.00790  Biso   1.000  C
  H16      1.0000 0.88610  0.54610  0.99870  Biso   1.000  H
  C34      1.0000 0.88510  0.43670  0.99485  Biso   1.000  C
  C35      1.0000 0.87750  0.36860  0.00830  Biso   1.000  C
  H17      1.0000 0.88040  0.32560  0.99940  Biso   1.000  H
  C36      1.0000 0.85990  0.56220  0.04750  Biso   1.000  C
  O15      1.0000 0.84250  0.54860  0.07030  Biso   1.000  O
  O16      1.0000 0.87340  0.62330  0.03320  Biso   1.000  O
  C37      1.0000 0.89930  0.44280  0.96492  Biso   1.000  C
  C38      1.0000 0.90680  0.51020  0.95116  Biso   1.000  C
  H18      1.0000 0.90360  0.55340  0.95980  Biso   1.000  H
  C39      1.0000 0.91900  0.51430  0.92476  Biso   1.000  C
  H19      1.0000 0.92420  0.56040  0.91540  Biso   1.000  H
  C40      1.0000 0.92380  0.45110  0.91210  Biso   1.000  C
  C41      1.0000 0.91630  0.38370  0.92586  Biso   1.000  C
  H20      1.0000 0.91960  0.34040  0.91720  Biso   1.000  H
  C42      1.0000 0.90410  0.37950  0.95227  Biso   1.000  C
  H21      1.0000 0.89900  0.33340  0.96170  Biso   1.000  H
  C43      1.0000 0.94870  0.46780  0.88413  Biso   1.000  C
  C44      1.0000 0.91770  0.50340  0.86720  Biso   1.000  C
  H22      1.0000 0.87870  0.51850  0.87310  Biso   1.000  H
  C45      1.0000 0.94360  0.51670  0.84177  Biso   1.000  C
  H23      1.0000 0.92240  0.54110  0.83020  Biso   1.000  H
  C46      1.0000 0.00060  0.49460  0.83323  Biso   1.000  C
  C47      1.0000 0.03170  0.45900  0.85010  Biso   1.000  C
  H24      1.0000 0.07060  0.44380  0.84430  Biso   1.000  H
  C48      1.0000 0.00570  0.44560  0.87559  Biso   1.000  C
  H25      1.0000 0.02700  0.42120  0.88720  Biso   1.000  H
  C49      1.0000 0.03720  0.50470  0.80537  Biso   1.000  C
  C50      1.0000 0.05830  0.45190  0.79280  Biso   1.000  C
  H26      1.0000 0.04830  0.40190  0.80090  Biso   1.000  H
  C51      1.0000 0.09410  0.47230  0.76860  Biso   1.000  C
  C52      1.0000 0.10870  0.54550  0.75680  Biso   1.000  C
  H27      1.0000 0.13320  0.55940  0.74030  Biso   1.000  H
  C53      1.0000 0.08760  0.59830  0.76940  Biso   1.000  C
  C54      1.0000 0.05180  0.57790  0.79360  Biso   1.000  C
  H28      1.0000 0.03740  0.61400  0.80220  Biso   1.000  H
  C55      1.0000 0.12280  0.41820  0.75570  Biso   1.000  C
  O17      1.0000 0.11490  0.36020  0.76960  Biso   1.000  O
  O18      1.0000 0.15680  0.43880  0.73410  Biso   1.000  O
  C56      1.0000 0.10620  0.67530  0.75650  Biso   1.000  C
  O19      1.0000 0.13530  0.69160  0.73350  Biso   1.000  O
  O20      1.0000 0.09960  0.73150  0.76930  Biso   1.000  O
  Cu5      1.0000 0.95377  0.46683  0.38263  Biso   1.000  Cu
  O21      1.0000 0.22977  0.18133  0.06623  Biso   1.000  O
  Cu6      1.0000 0.04767  0.51253  0.42448  Biso   1.000  Cu
  O22      1.0000 0.87837  0.42443  0.35023  Biso   1.000  O
  O23      1.0000 0.02867  0.42853  0.37103  Biso   1.000  O
  O24      1.0000 0.41517  0.43813  0.37173  Biso   1.000  O
  O25      1.0000 0.97507  0.19613  0.06643  Biso   1.000  O
  C57      1.0000 0.24887  0.21513  0.08833  Biso   1.000  C
  O26      1.0000 0.30697  0.21763  0.10263  Biso   1.000  O
  O27      1.0000 0.11767  0.54933  0.46033  Biso   1.000  O
  O28      1.0000 0.10737  0.46873  0.40523  Biso   1.000  O
  O29      1.0000 0.36637  0.46593  0.40633  Biso   1.000  O
  O30      1.0000 0.93657  0.23573  0.10143  Biso   1.000  O
  C58      1.0000 0.09417  0.44903  0.38293  Biso   1.000  C
  C59      1.0000 0.36157  0.45023  0.38353  Biso   1.000  C
  C60      1.0000 0.98727  0.22563  0.08913  Biso   1.000  C
  C61      1.0000 0.15967  0.44073  0.36853  Biso   1.000  C
  C62      1.0000 0.15437  0.42833  0.34213  Biso   1.000  C
  C63      1.0000 0.22717  0.44723  0.38198  Biso   1.000  C
  C64      1.0000 0.21657  0.42243  0.32917  Biso   1.000  C
  H29      1.0000 0.10827  0.42393  0.33293  Biso   1.000  H
  C65      1.0000 0.28937  0.44133  0.36903  Biso   1.000  C
  H30      1.0000 0.23077  0.45573  0.40003  Biso   1.000  H
  C66      1.0000 0.20977  0.40513  0.29962  Biso   1.000  C
  C67      1.0000 0.28397  0.42893  0.34263  Biso   1.000  C
  C68      1.0000 0.14347  0.40023  0.28588  Biso   1.000  C
  C69      1.0000 0.27307  0.40083  0.28683  Biso   1.000  C
  H31      1.0000 0.32657  0.42493  0.33383  Biso   1.000  H
  C70      1.0000 0.14047  0.39113  0.25935  Biso   1.000  C
  H32      1.0000 0.10017  0.40313  0.29463  Biso   1.000  H
  H33      1.0000 0.31837  0.40413  0.29623  Biso   1.000  H
  C71      1.0000 0.27007  0.39173  0.26030  Biso   1.000  C
  H34      1.0000 0.09517  0.38783  0.24993  Biso   1.000  H
  C72      1.0000 0.20367  0.38683  0.24656  Biso   1.000  C
  H35      1.0000 0.31337  0.38883  0.25153  Biso   1.000  H
  C73      1.0000 0.18867  0.36603  0.21855  Biso   1.000  C
  C74      1.0000 0.22137  0.31943  0.20834  Biso   1.000  C
  C75      1.0000 0.14457  0.39093  0.20293  Biso   1.000  C
  C76      1.0000 0.20987  0.29773  0.18251  Biso   1.000  C
  H36      1.0000 0.25157  0.30243  0.21903  Biso   1.000  H
  C77      1.0000 0.13307  0.36923  0.17713  Biso   1.000  C
  H37      1.0000 0.12217  0.42273  0.20993  Biso   1.000  H
  C78      1.0000 0.16577  0.32263  0.16689  Biso   1.000  C
  H38      1.0000 0.23227  0.26593  0.17553  Biso   1.000  H
  H39      1.0000 0.10287  0.38623  0.16643  Biso   1.000  H
  C79      1.0000 0.16047  0.29143  0.13854  Biso   1.000  C
  C80      1.0000 0.21457  0.27363  0.12533  Biso   1.000  C
  C81      1.0000 0.08727  0.27753  0.12693  Biso   1.000  C
  C82      1.0000 0.19567  0.24213  0.10053  Biso   1.000  C
  H40      1.0000 0.26457  0.28313  0.13323  Biso   1.000  H
  C83      1.0000 0.06837  0.24603  0.10213  Biso   1.000  C
  H41      1.0000 0.05027  0.28973  0.13593  Biso   1.000  H
  C84      1.0000 0.12247  0.22823  0.08893  Biso   1.000  C
  H42      1.0000 0.10957  0.20673  0.07193  Biso   1.000  H
  Cu7      1.0000 0.46467  0.51203  0.42377  Biso   1.000  Cu
  Cu8      1.0000 0.51197  0.46553  0.38223  Biso   1.000  Cu
  O31      1.0000 0.42367  0.54633  0.45883  Biso   1.000  O
  O32      1.0000 0.54347  0.42743  0.34853  Biso   1.000  O
  O33      1.0000 0.54157  0.57593  0.36913  Biso   1.000  O
  O34      1.0000 0.50117  0.61533  0.40403  Biso   1.000  O
  C85      1.0000 0.52437  0.62183  0.38203  Biso   1.000  C
  C86      1.0000 0.53237  0.69693  0.36803  Biso   1.000  C
  C87      1.0000 0.52807  0.75993  0.38104  Biso   1.000  C
  H43      1.0000 0.52007  0.75643  0.39913  Biso   1.000  H
  C88      1.0000 0.53577  0.82793  0.36763  Biso   1.000  C
  C89      1.0000 0.54757  0.83293  0.34123  Biso   1.000  C
  H44      1.0000 0.55277  0.87943  0.33203  Biso   1.000  H
  C90      1.0000 0.55177  0.77003  0.32818  Biso   1.000  C
  C91      1.0000 0.54417  0.70193  0.34163  Biso   1.000  C
  H45      1.0000 0.54707  0.65893  0.33273  Biso   1.000  H
  C92      1.0000 0.52657  0.89553  0.38083  Biso   1.000  C
  O35      1.0000 0.50917  0.88193  0.40363  Biso   1.000  O
  O36      1.0000 0.54007  0.95663  0.36653  Biso   1.000  O
  C93      1.0000 0.56597  0.77613  0.29825  Biso   1.000  C
  C94      1.0000 0.57347  0.84353  0.28449  Biso   1.000  C
  H46      1.0000 0.57027  0.88673  0.29313  Biso   1.000  H
  C95      1.0000 0.58567  0.84763  0.25809  Biso   1.000  C
  H47      1.0000 0.59087  0.89373  0.24873  Biso   1.000  H
  C96      1.0000 0.59047  0.78443  0.24543  Biso   1.000  C
  C97      1.0000 0.58297  0.71703  0.25919  Biso   1.000  C
  H48      1.0000 0.58627  0.67373  0.25053  Biso   1.000  H
  C98      1.0000 0.57077  0.71283  0.28560  Biso   1.000  C
  H49      1.0000 0.56567  0.66673  0.29503  Biso   1.000  H
  C99      1.0000 0.61537  0.80113  0.21746  Biso   1.000  C
  C100     1.0000 0.58437  0.83673  0.20053  Biso   1.000  C
  H50      1.0000 0.54537  0.85183  0.20643  Biso   1.000  H
  C101     1.0000 0.61027  0.85003  0.17510  Biso   1.000  C
  H51      1.0000 0.58907  0.87443  0.16353  Biso   1.000  H
  C102     1.0000 0.66727  0.82793  0.16656  Biso   1.000  C
  C103     1.0000 0.69837  0.79233  0.18343  Biso   1.000  C
  H52      1.0000 0.73727  0.77713  0.17763  Biso   1.000  H
  C104     1.0000 0.67237  0.77893  0.20892  Biso   1.000  C
  H53      1.0000 0.69367  0.75453  0.22053  Biso   1.000  H
  C105     1.0000 0.70387  0.83803  0.13870  Biso   1.000  C
  C106     1.0000 0.72497  0.78523  0.12613  Biso   1.000  C
  H54      1.0000 0.71497  0.73523  0.13423  Biso   1.000  H
  C107     1.0000 0.76077  0.80563  0.10193  Biso   1.000  C
  C108     1.0000 0.77537  0.87883  0.09013  Biso   1.000  C
  H55      1.0000 0.79987  0.89273  0.07363  Biso   1.000  H
  C109     1.0000 0.75427  0.93163  0.10273  Biso   1.000  C
  C110     1.0000 0.71847  0.91123  0.12693  Biso   1.000  C
  H56      1.0000 0.70407  0.94733  0.13553  Biso   1.000  H
  C111     1.0000 0.78947  0.75153  0.08903  Biso   1.000  C
  O37      1.0000 0.78157  0.69353  0.10293  Biso   1.000  O
  O38      1.0000 0.82347  0.77213  0.06743  Biso   1.000  O
  C112     1.0000 0.77287  0.00863  0.08983  Biso   1.000  C
  O39      1.0000 0.80197  0.02493  0.06683  Biso   1.000  O
  O40      1.0000 0.76627  0.06483  0.10263  Biso   1.000  O
  Cu9      1.0000 0.62043  0.80017  0.71597  Biso   1.000  Cu
  O41      1.0000 0.89643  0.51467  0.39957  Biso   1.000  O
  Cu10     1.0000 0.71433  0.84587  0.75782  Biso   1.000  Cu
  O42      1.0000 0.54503  0.75777  0.68357  Biso   1.000  O
  O43      1.0000 0.69533  0.76187  0.70437  Biso   1.000  O
  O44      1.0000 0.08183  0.77147  0.70507  Biso   1.000  O
  O45      1.0000 0.64173  0.52947  0.39977  Biso   1.000  O
  C113     1.0000 0.91553  0.54847  0.42167  Biso   1.000  C
  O46      1.0000 0.97363  0.55097  0.43597  Biso   1.000  O
  O47      1.0000 0.78433  0.88267  0.79367  Biso   1.000  O
  O48      1.0000 0.77403  0.80207  0.73857  Biso   1.000  O
  O49      1.0000 0.03303  0.79927  0.73967  Biso   1.000  O
  O50      1.0000 0.60323  0.56907  0.43477  Biso   1.000  O
  C114     1.0000 0.76083  0.78237  0.71627  Biso   1.000  C
  C115     1.0000 0.02823  0.78357  0.71687  Biso   1.000  C
  C116     1.0000 0.65393  0.55897  0.42247  Biso   1.000  C
  C117     1.0000 0.82633  0.77407  0.70187  Biso   1.000  C
  C118     1.0000 0.82103  0.76167  0.67547  Biso   1.000  C
  C119     1.0000 0.89383  0.78057  0.71532  Biso   1.000  C
  C120     1.0000 0.88323  0.75577  0.66251  Biso   1.000  C
  H57      1.0000 0.77493  0.75727  0.66627  Biso   1.000  H
  C121     1.0000 0.95603  0.77467  0.70237  Biso   1.000  C
  H58      1.0000 0.89743  0.78907  0.73337  Biso   1.000  H
  C122     1.0000 0.87643  0.73847  0.63296  Biso   1.000  C
  C123     1.0000 0.95063  0.76227  0.67597  Biso   1.000  C
  C124     1.0000 0.81013  0.73357  0.61922  Biso   1.000  C
  C125     1.0000 0.93973  0.73417  0.62017  Biso   1.000  C
  H59      1.0000 0.99323  0.75827  0.66717  Biso   1.000  H
  C126     1.0000 0.80713  0.72447  0.59269  Biso   1.000  C
  H60      1.0000 0.76683  0.73647  0.62797  Biso   1.000  H
  H61      1.0000 0.98503  0.73747  0.62957  Biso   1.000  H
  C127     1.0000 0.93673  0.72507  0.59364  Biso   1.000  C
  H62      1.0000 0.76183  0.72117  0.58327  Biso   1.000  H
  C128     1.0000 0.87033  0.72017  0.57990  Biso   1.000  C
  H63      1.0000 0.98003  0.72217  0.58487  Biso   1.000  H
  C129     1.0000 0.85533  0.69937  0.55189  Biso   1.000  C
  C130     1.0000 0.88803  0.65277  0.54168  Biso   1.000  C
  C131     1.0000 0.81123  0.72427  0.53627  Biso   1.000  C
  C132     1.0000 0.87653  0.63107  0.51585  Biso   1.000  C
  H64      1.0000 0.91823  0.63577  0.55237  Biso   1.000  H
  C133     1.0000 0.79973  0.70257  0.51047  Biso   1.000  C
  H65      1.0000 0.78883  0.75607  0.54327  Biso   1.000  H
  C134     1.0000 0.83243  0.65597  0.50023  Biso   1.000  C
  H66      1.0000 0.89893  0.59927  0.50887  Biso   1.000  H
  H67      1.0000 0.76953  0.71957  0.49977  Biso   1.000  H
  C135     1.0000 0.82713  0.62477  0.47188  Biso   1.000  C
  C136     1.0000 0.88123  0.60697  0.45867  Biso   1.000  C
  C137     1.0000 0.75393  0.61087  0.46027  Biso   1.000  C
  C138     1.0000 0.86233  0.57547  0.43387  Biso   1.000  C
  H68      1.0000 0.93123  0.61647  0.46657  Biso   1.000  H
  C139     1.0000 0.73503  0.57937  0.43547  Biso   1.000  C
  H69      1.0000 0.71693  0.62307  0.46927  Biso   1.000  H
  C140     1.0000 0.78913  0.56157  0.42227  Biso   1.000  C
  H70      1.0000 0.77623  0.54007  0.40527  Biso   1.000  H
  Cu11     1.0000 0.13133  0.84537  0.75711  Biso   1.000  Cu
  Cu12     1.0000 0.17863  0.79887  0.71557  Biso   1.000  Cu
  O51      1.0000 0.09033  0.87967  0.79217  Biso   1.000  O
  O52      1.0000 0.21013  0.76077  0.68187  Biso   1.000  O
  O53      1.0000 0.20823  0.90927  0.70247  Biso   1.000  O
  O54      1.0000 0.16783  0.94867  0.73737  Biso   1.000  O
  C141     1.0000 0.19103  0.95517  0.71537  Biso   1.000  C
  C142     1.0000 0.19903  0.03027  0.70137  Biso   1.000  C
  C143     1.0000 0.19473  0.09327  0.71438  Biso   1.000  C
  H71      1.0000 0.18673  0.08977  0.73247  Biso   1.000  H
  C144     1.0000 0.20243  0.16127  0.70097  Biso   1.000  C
  C145     1.0000 0.21423  0.16627  0.67457  Biso   1.000  C
  H72      1.0000 0.21943  0.21277  0.66537  Biso   1.000  H
  C146     1.0000 0.21843  0.10337  0.66152  Biso   1.000  C
  C147     1.0000 0.21083  0.03527  0.67497  Biso   1.000  C
  H73      1.0000 0.21373  0.99227  0.66607  Biso   1.000  H
  C148     1.0000 0.19323  0.22887  0.71417  Biso   1.000  C
  O55      1.0000 0.17583  0.21527  0.73697  Biso   1.000  O
  O56      1.0000 0.20673  0.28997  0.69987  Biso   1.000  O
  C149     1.0000 0.23263  0.10947  0.63159  Biso   1.000  C
  C150     1.0000 0.24013  0.17687  0.61783  Biso   1.000  C
  H74      1.0000 0.23693  0.22007  0.62647  Biso   1.000  H
  C151     1.0000 0.25233  0.18097  0.59143  Biso   1.000  C
  H75      1.0000 0.25753  0.22707  0.58207  Biso   1.000  H
  C152     1.0000 0.25713  0.11777  0.57877  Biso   1.000  C
  C153     1.0000 0.24963  0.05037  0.59253  Biso   1.000  C
  H76      1.0000 0.25293  0.00707  0.58387  Biso   1.000  H
  C154     1.0000 0.23743  0.04617  0.61894  Biso   1.000  C
  H77      1.0000 0.23233  0.00007  0.62837  Biso   1.000  H
  C155     1.0000 0.28203  0.13447  0.55080  Biso   1.000  C
  C156     1.0000 0.25103  0.17007  0.53387  Biso   1.000  C
  H78      1.0000 0.21203  0.18517  0.53977  Biso   1.000  H
  C157     1.0000 0.27693  0.18337  0.50844  Biso   1.000  C
  H79      1.0000 0.25573  0.20777  0.49687  Biso   1.000  H
  C158     1.0000 0.33393  0.16127  0.49990  Biso   1.000  C
  C159     1.0000 0.36503  0.12567  0.51677  Biso   1.000  C
  H80      1.0000 0.40393  0.11047  0.51097  Biso   1.000  H
  C160     1.0000 0.33903  0.11227  0.54226  Biso   1.000  C
  H81      1.0000 0.36033  0.08787  0.55387  Biso   1.000  H
  C161     1.0000 0.37053  0.17137  0.47204  Biso   1.000  C
  C162     1.0000 0.39163  0.11857  0.45947  Biso   1.000  C
  H82      1.0000 0.38163  0.06857  0.46757  Biso   1.000  H
  C163     1.0000 0.42743  0.13897  0.43527  Biso   1.000  C
  C164     1.0000 0.44203  0.21217  0.42347  Biso   1.000  C
  H83      1.0000 0.46653  0.22607  0.40697  Biso   1.000  H
  C165     1.0000 0.42093  0.26497  0.43607  Biso   1.000  C
  C166     1.0000 0.38513  0.24457  0.46027  Biso   1.000  C
  H84      1.0000 0.37073  0.28067  0.46887  Biso   1.000  H
  C167     1.0000 0.45613  0.08487  0.42237  Biso   1.000  C
  O57      1.0000 0.44823  0.02687  0.43627  Biso   1.000  O
  O58      1.0000 0.49013  0.10547  0.40077  Biso   1.000  O
  C168     1.0000 0.43953  0.34197  0.42317  Biso   1.000  C
  O59      1.0000 0.46863  0.35827  0.40017  Biso   1.000  O
  O60      1.0000 0.43293  0.39817  0.43597  Biso   1.000  O
  Cu13     1.0000 0.86650  0.15360  0.04930  Biso   1.000  Cu
  O61      1.0000 0.15200  0.71510  0.73290  Biso   1.000  O
  Cu14     1.0000 0.82080  0.20180  0.09115  Biso   1.000  Cu
  O62      1.0000 0.90890  0.12060  0.01690  Biso   1.000  O
  O63      1.0000 0.90480  0.26680  0.03770  Biso   1.000  O
  O64      1.0000 0.89520  0.64370  0.03840  Biso   1.000  O
  O65      1.0000 0.13720  0.44560  0.73310  Biso   1.000  O
  C169     1.0000 0.11820  0.70040  0.75500  Biso   1.000  C
  O66      1.0000 0.11570  0.75600  0.76930  Biso   1.000  O
  O67      1.0000 0.78400  0.23500  0.12700  Biso   1.000  O
  O68      1.0000 0.86460  0.30530  0.07190  Biso   1.000  O
  O69      1.0000 0.86740  0.56710  0.07300  Biso   1.000  O
  O70      1.0000 0.09760  0.36750  0.76810  Biso   1.000  O
  C170     1.0000 0.88430  0.31180  0.04960  Biso   1.000  C
  C171     1.0000 0.88310  0.57800  0.05020  Biso   1.000  C
  C172     1.0000 0.10770  0.42830  0.75580  Biso   1.000  C
  C173     1.0000 0.89260  0.38560  0.03520  Biso   1.000  C
  C174     1.0000 0.90500  0.39270  0.00880  Biso   1.000  C
  C175     1.0000 0.88610  0.44660  0.04865  Biso   1.000  C
  C176     1.0000 0.91090  0.46080  0.99584  Biso   1.000  C
  H85      1.0000 0.90940  0.35100  0.99960  Biso   1.000  H
  C177     1.0000 0.89200  0.51470  0.03570  Biso   1.000  C
  H86      1.0000 0.87760  0.44170  0.06670  Biso   1.000  H
  C178     1.0000 0.92820  0.47130  0.96629  Biso   1.000  C
  C179     1.0000 0.90440  0.52170  0.00930  Biso   1.000  C
  C180     1.0000 0.93310  0.40990  0.95255  Biso   1.000  C
  C181     1.0000 0.93250  0.53890  0.95350  Biso   1.000  C
  H87      1.0000 0.90840  0.56830  0.00050  Biso   1.000  H
  C182     1.0000 0.94220  0.41600  0.92602  Biso   1.000  C
  H88      1.0000 0.93020  0.36370  0.96130  Biso   1.000  H
  H89      1.0000 0.92920  0.58090  0.96290  Biso   1.000  H
  C183     1.0000 0.94160  0.54500  0.92697  Biso   1.000  C
  H90      1.0000 0.94550  0.37400  0.91660  Biso   1.000  H
  C184     1.0000 0.94650  0.48350  0.91323  Biso   1.000  C
  H91      1.0000 0.94450  0.59120  0.91820  Biso   1.000  H
  C185     1.0000 0.96730  0.48930  0.88522  Biso   1.000  C
  C186     1.0000 0.01390  0.56860  0.87501  Biso   1.000  C
  C187     1.0000 0.94240  0.42030  0.86960  Biso   1.000  C
  C188     1.0000 0.03560  0.57880  0.84918  Biso   1.000  C
  H92      1.0000 0.03090  0.61580  0.88570  Biso   1.000  H
  C189     1.0000 0.96410  0.43050  0.84380  Biso   1.000  C
  H93      1.0000 0.91060  0.36610  0.87660  Biso   1.000  H
  C190     1.0000 0.01070  0.50980  0.83356  Biso   1.000  C
  H94      1.0000 0.06740  0.63300  0.84220  Biso   1.000  H
  H95      1.0000 0.94710  0.38330  0.83310  Biso   1.000  H
  C191     1.0000 0.04190  0.53570  0.80521  Biso   1.000  C
  C192     1.0000 0.05970  0.60760  0.79200  Biso   1.000  C
  C193     1.0000 0.05580  0.47640  0.79360  Biso   1.000  C
  C194     1.0000 0.09120  0.62020  0.76720  Biso   1.000  C
  H96      1.0000 0.05020  0.64810  0.79990  Biso   1.000  H
  C195     1.0000 0.08730  0.48900  0.76880  Biso   1.000  C
  H97      1.0000 0.04360  0.42720  0.80260  Biso   1.000  H
  C196     1.0000 0.10510  0.56090  0.75560  Biso   1.000  C
  H98      1.0000 0.12660  0.56950  0.73860  Biso   1.000  H
  Cu15     1.0000 0.82130  0.61930  0.09044  Biso   1.000  Cu
  Cu16     1.0000 0.86780  0.71310  0.04890  Biso   1.000  Cu
  O71      1.0000 0.78700  0.54400  0.12550  Biso   1.000  O
  O72      1.0000 0.90590  0.78270  0.01520  Biso   1.000  O
  O73      1.0000 0.75740  0.63230  0.03580  Biso   1.000  O
  O74      1.0000 0.71800  0.55250  0.07070  Biso   1.000  O
  C197     1.0000 0.71150  0.56920  0.04870  Biso   1.000  C
  C198     1.0000 0.63640  0.50210  0.03470  Biso   1.000  C
  C199     1.0000 0.57340  0.43480  0.04771  Biso   1.000  C
  H99      1.0000 0.57690  0.43030  0.06580  Biso   1.000  H
  C200     1.0000 0.50540  0.37450  0.03430  Biso   1.000  C
  C201     1.0000 0.50040  0.38130  0.00790  Biso   1.000  C
  H100     1.0000 0.45390  0.34000  0.99870  Biso   1.000  H
  C202     1.0000 0.56330  0.44840  0.99485  Biso   1.000  C
  C203     1.0000 0.63140  0.50890  0.00830  Biso   1.000  C
  H101     1.0000 0.67440  0.55480  0.99940  Biso   1.000  H
  C204     1.0000 0.43780  0.29770  0.04750  Biso   1.000  C
  O75      1.0000 0.45140  0.29390  0.07030  Biso   1.000  O
  O76      1.0000 0.37670  0.25010  0.03320  Biso   1.000  O
  C205     1.0000 0.55720  0.45650  0.96492  Biso   1.000  C
  C206     1.0000 0.48980  0.39660  0.95116  Biso   1.000  C
  H102     1.0000 0.44660  0.35020  0.95980  Biso   1.000  H
  C207     1.0000 0.48570  0.40470  0.92476  Biso   1.000  C
  H103     1.0000 0.43960  0.36380  0.91540  Biso   1.000  H
  C208     1.0000 0.54890  0.47270  0.91210  Biso   1.000  C
  C209     1.0000 0.61630  0.53260  0.92586  Biso   1.000  C
  H104     1.0000 0.65960  0.57920  0.91720  Biso   1.000  H
  C210     1.0000 0.62050  0.52460  0.95227  Biso   1.000  C
  H105     1.0000 0.66660  0.56560  0.96170  Biso   1.000  H
  C211     1.0000 0.53220  0.48090  0.88413  Biso   1.000  C
  C212     1.0000 0.49660  0.41430  0.86720  Biso   1.000  C
  H106     1.0000 0.48150  0.36020  0.87310  Biso   1.000  H
  C213     1.0000 0.48330  0.42690  0.84177  Biso   1.000  C
  H107     1.0000 0.45890  0.38130  0.83020  Biso   1.000  H
  C214     1.0000 0.50540  0.50600  0.83323  Biso   1.000  C
  C215     1.0000 0.54100  0.57270  0.85010  Biso   1.000  C
  H108     1.0000 0.55620  0.62680  0.84430  Biso   1.000  H
  C216     1.0000 0.55440  0.56010  0.87559  Biso   1.000  C
  H109     1.0000 0.57880  0.60580  0.88720  Biso   1.000  H
  C217     1.0000 0.49530  0.53250  0.80537  Biso   1.000  C
  C218     1.0000 0.54810  0.60640  0.79280  Biso   1.000  C
  H110     1.0000 0.59810  0.64640  0.80090  Biso   1.000  H
  C219     1.0000 0.52770  0.62180  0.76860  Biso   1.000  C
  C220     1.0000 0.45450  0.56320  0.75680  Biso   1.000  C
  H111     1.0000 0.44060  0.57380  0.74030  Biso   1.000  H
  C221     1.0000 0.40170  0.48930  0.76940  Biso   1.000  C
  C222     1.0000 0.42210  0.47390  0.79360  Biso   1.000  C
  H112     1.0000 0.38600  0.42340  0.80220  Biso   1.000  H
  C223     1.0000 0.58180  0.70460  0.75570  Biso   1.000  C
  O77      1.0000 0.63980  0.75470  0.76960  Biso   1.000  O
  O78      1.0000 0.56120  0.71800  0.73410  Biso   1.000  O
  C224     1.0000 0.32470  0.43090  0.75650  Biso   1.000  C
  O79      1.0000 0.30840  0.44370  0.73350  Biso   1.000  O
  O80      1.0000 0.26850  0.36810  0.76930  Biso   1.000  O
  Cu17     1.0000 0.53317  0.48693  0.38263  Biso   1.000  Cu
  O81      1.0000 0.81867  0.04843  0.06623  Biso   1.000  O
  Cu18     1.0000 0.48747  0.53513  0.42448  Biso   1.000  Cu
  O82      1.0000 0.57557  0.45393  0.35023  Biso   1.000  O
  O83      1.0000 0.57147  0.60013  0.37103  Biso   1.000  O
  O84      1.0000 0.56187  0.97703  0.37173  Biso   1.000  O
  O85      1.0000 0.80387  0.77893  0.06643  Biso   1.000  O
  C225     1.0000 0.78487  0.03373  0.08833  Biso   1.000  C
  O86      1.0000 0.78237  0.08933  0.10263  Biso   1.000  O
  O87      1.0000 0.45067  0.56833  0.46033  Biso   1.000  O
  O88      1.0000 0.53127  0.63863  0.40523  Biso   1.000  O
  O89      1.0000 0.53407  0.90043  0.40633  Biso   1.000  O
  O90      1.0000 0.76427  0.70083  0.10143  Biso   1.000  O
  C226     1.0000 0.55097  0.64513  0.38293  Biso   1.000  C
  C227     1.0000 0.54977  0.91133  0.38353  Biso   1.000  C
  C228     1.0000 0.77437  0.76163  0.08913  Biso   1.000  C
  C229     1.0000 0.55927  0.71893  0.36853  Biso   1.000  C
  C230     1.0000 0.57167  0.72603  0.34213  Biso   1.000  C
  C231     1.0000 0.55277  0.77993  0.38198  Biso   1.000  C
  C232     1.0000 0.57757  0.79413  0.32917  Biso   1.000  C
  H113     1.0000 0.57607  0.68433  0.33293  Biso   1.000  H
  C233     1.0000 0.55867  0.84803  0.36903  Biso   1.000  C
  H114     1.0000 0.54427  0.77503  0.40003  Biso   1.000  H
  C234     1.0000 0.59487  0.80463  0.29962  Biso   1.000  C
  C235     1.0000 0.57107  0.85503  0.34263  Biso   1.000  C
  C236     1.0000 0.59977  0.74323  0.28588  Biso   1.000  C
  C237     1.0000 0.59917  0.87223  0.28683  Biso   1.000  C
  H115     1.0000 0.57507  0.90163  0.33383  Biso   1.000  H
  C238     1.0000 0.60887  0.74933  0.25935  Biso   1.000  C
  H116     1.0000 0.59687  0.69703  0.29463  Biso   1.000  H
  H117     1.0000 0.59587  0.91423  0.29623  Biso   1.000  H
  C239     1.0000 0.60827  0.87833  0.26030  Biso   1.000  C
  H118     1.0000 0.61217  0.70733  0.24993  Biso   1.000  H
  C240     1.0000 0.61317  0.81683  0.24656  Biso   1.000  C
  H119     1.0000 0.61117  0.92453  0.25153  Biso   1.000  H
  C241     1.0000 0.63397  0.82263  0.21855  Biso   1.000  C
  C242     1.0000 0.68057  0.90193  0.20834  Biso   1.000  C
  C243     1.0000 0.60907  0.75363  0.20293  Biso   1.000  C
  C244     1.0000 0.70227  0.91213  0.18251  Biso   1.000  C
  H120     1.0000 0.69757  0.94913  0.21903  Biso   1.000  H
  C245     1.0000 0.63077  0.76383  0.17713  Biso   1.000  C
  H121     1.0000 0.57727  0.69943  0.20993  Biso   1.000  H
  C246     1.0000 0.67737  0.84313  0.16689  Biso   1.000  C
  H122     1.0000 0.73407  0.96633  0.17553  Biso   1.000  H
  H123     1.0000 0.61377  0.71663  0.16643  Biso   1.000  H
  C247     1.0000 0.70857  0.86903  0.13854  Biso   1.000  C
  C248     1.0000 0.72637  0.94093  0.12533  Biso   1.000  C
  C249     1.0000 0.72247  0.80973  0.12693  Biso   1.000  C
  C250     1.0000 0.75787  0.95353  0.10053  Biso   1.000  C
  H124     1.0000 0.71687  0.98143  0.13323  Biso   1.000  H
  C251     1.0000 0.75397  0.82233  0.10213  Biso   1.000  C
  H125     1.0000 0.71027  0.76053  0.13593  Biso   1.000  H
  C252     1.0000 0.77177  0.89423  0.08893  Biso   1.000  C
  H126     1.0000 0.79327  0.90283  0.07193  Biso   1.000  H
  Cu19     1.0000 0.48797  0.95263  0.42377  Biso   1.000  Cu
  Cu20     1.0000 0.53447  0.04643  0.38223  Biso   1.000  Cu
  O91      1.0000 0.45367  0.87733  0.45883  Biso   1.000  O
  O92      1.0000 0.57257  0.11603  0.34853  Biso   1.000  O
  O93      1.0000 0.42407  0.96563  0.36913  Biso   1.000  O
  O94      1.0000 0.38467  0.88583  0.40403  Biso   1.000  O
  C253     1.0000 0.37817  0.90253  0.38203  Biso   1.000  C
  C254     1.0000 0.30307  0.83543  0.36803  Biso   1.000  C
  C255     1.0000 0.24007  0.76813  0.38104  Biso   1.000  C
  H127     1.0000 0.24357  0.76363  0.39913  Biso   1.000  H
  C256     1.0000 0.17207  0.70783  0.36763  Biso   1.000  C
  C257     1.0000 0.16707  0.71463  0.34123  Biso   1.000  C
  H128     1.0000 0.12057  0.67333  0.33203  Biso   1.000  H
  C258     1.0000 0.22997  0.78173  0.32818  Biso   1.000  C
  C259     1.0000 0.29807  0.84223  0.34163  Biso   1.000  C
  H129     1.0000 0.34107  0.88813  0.33273  Biso   1.000  H
  C260     1.0000 0.10447  0.63103  0.38083  Biso   1.000  C
  O95      1.0000 0.11807  0.62723  0.40363  Biso   1.000  O
  O96      1.0000 0.04337  0.58343  0.36653  Biso   1.000  O
  C261     1.0000 0.22387  0.78983  0.29825  Biso   1.000  C
  C262     1.0000 0.15647  0.72993  0.28449  Biso   1.000  C
  H130     1.0000 0.11327  0.68353  0.29313  Biso   1.000  H
  C263     1.0000 0.15237  0.73803  0.25809  Biso   1.000  C
  H131     1.0000 0.10627  0.69713  0.24873  Biso   1.000  H
  C264     1.0000 0.21557  0.80603  0.24543  Biso   1.000  C
  C265     1.0000 0.28297  0.86593  0.25919  Biso   1.000  C
  H132     1.0000 0.32627  0.91253  0.25053  Biso   1.000  H
  C266     1.0000 0.28717  0.85793  0.28560  Biso   1.000  C
  H133     1.0000 0.33327  0.89893  0.29503  Biso   1.000  H
  C267     1.0000 0.19887  0.81423  0.21746  Biso   1.000  C
  C268     1.0000 0.16327  0.74763  0.20053  Biso   1.000  C
  H134     1.0000 0.14817  0.69353  0.20643  Biso   1.000  H
  C269     1.0000 0.14997  0.76023  0.17510  Biso   1.000  C
  H135     1.0000 0.12557  0.71463  0.16353  Biso   1.000  H
  C270     1.0000 0.17207  0.83933  0.16656  Biso   1.000  C
  C271     1.0000 0.20767  0.90603  0.18343  Biso   1.000  C
  H136     1.0000 0.22287  0.96013  0.17763  Biso   1.000  H
  C272     1.0000 0.22107  0.89343  0.20892  Biso   1.000  C
  H137     1.0000 0.24547  0.93913  0.22053  Biso   1.000  H
  C273     1.0000 0.16197  0.86583  0.13870  Biso   1.000  C
  C274     1.0000 0.21477  0.93973  0.12613  Biso   1.000  C
  H138     1.0000 0.26477  0.97973  0.13423  Biso   1.000  H
  C275     1.0000 0.19437  0.95513  0.10193  Biso   1.000  C
  C276     1.0000 0.12117  0.89653  0.09013  Biso   1.000  C
  H139     1.0000 0.10727  0.90713  0.07363  Biso   1.000  H
  C277     1.0000 0.06837  0.82263  0.10273  Biso   1.000  C
  C278     1.0000 0.08877  0.80723  0.12693  Biso   1.000  C
  H140     1.0000 0.05267  0.75673  0.13553  Biso   1.000  H
  C279     1.0000 0.24847  0.03793  0.08903  Biso   1.000  C
  O97      1.0000 0.30647  0.08803  0.10293  Biso   1.000  O
  O98      1.0000 0.22787  0.05133  0.06743  Biso   1.000  O
  C280     1.0000 0.99137  0.76423  0.08983  Biso   1.000  C
  O99      1.0000 0.97507  0.77703  0.06683  Biso   1.000  O
  O100     1.0000 0.93517  0.70143  0.10263  Biso   1.000  O
  Cu21     1.0000 0.19983  0.82027  0.71597  Biso   1.000  Cu
  O101     1.0000 0.48533  0.38177  0.39957  Biso   1.000  O
  Cu22     1.0000 0.15413  0.86847  0.75782  Biso   1.000  Cu
  O102     1.0000 0.24223  0.78727  0.68357  Biso   1.000  O
  O103     1.0000 0.23813  0.93347  0.70437  Biso   1.000  O
  O104     1.0000 0.22853  0.31037  0.70507  Biso   1.000  O
  O105     1.0000 0.47053  0.11227  0.39977  Biso   1.000  O
  C281     1.0000 0.45153  0.36707  0.42167  Biso   1.000  C
  O106     1.0000 0.44903  0.42267  0.43597  Biso   1.000  O
  O107     1.0000 0.11733  0.90167  0.79367  Biso   1.000  O
  O108     1.0000 0.19793  0.97197  0.73857  Biso   1.000  O
  O109     1.0000 0.20073  0.23377  0.73967  Biso   1.000  O
  O110     1.0000 0.43093  0.03417  0.43477  Biso   1.000  O
  C282     1.0000 0.21763  0.97847  0.71627  Biso   1.000  C
  C283     1.0000 0.21643  0.24467  0.71687  Biso   1.000  C
  C284     1.0000 0.44103  0.09497  0.42247  Biso   1.000  C
  C285     1.0000 0.22593  0.05227  0.70187  Biso   1.000  C
  C286     1.0000 0.23833  0.05937  0.67547  Biso   1.000  C
  C287     1.0000 0.21943  0.11327  0.71532  Biso   1.000  C
  C288     1.0000 0.24423  0.12747  0.66251  Biso   1.000  C
  H141     1.0000 0.24273  0.01767  0.66627  Biso   1.000  H
  C289     1.0000 0.22533  0.18137  0.70237  Biso   1.000  C
  H142     1.0000 0.21093  0.10837  0.73337  Biso   1.000  H
  C290     1.0000 0.26153  0.13797  0.63296  Biso   1.000  C
  C291     1.0000 0.23773  0.18837  0.67597  Biso   1.000  C
  C292     1.0000 0.26643  0.07657  0.61922  Biso   1.000  C
  C293     1.0000 0.26583  0.20557  0.62017  Biso   1.000  C
  H143     1.0000 0.24173  0.23497  0.66717  Biso   1.000  H
  C294     1.0000 0.27553  0.08267  0.59269  Biso   1.000  C
  H144     1.0000 0.26353  0.03037  0.62797  Biso   1.000  H
  H145     1.0000 0.26253  0.24757  0.62957  Biso   1.000  H
  C295     1.0000 0.27493  0.21167  0.59364  Biso   1.000  C
  H146     1.0000 0.27883  0.04067  0.58327  Biso   1.000  H
  C296     1.0000 0.27983  0.15017  0.57990  Biso   1.000  C
  H147     1.0000 0.27783  0.25787  0.58487  Biso   1.000  H
  C297     1.0000 0.30063  0.15597  0.55189  Biso   1.000  C
  C298     1.0000 0.34723  0.23527  0.54168  Biso   1.000  C
  C299     1.0000 0.27573  0.08697  0.53627  Biso   1.000  C
  C300     1.0000 0.36893  0.24547  0.51585  Biso   1.000  C
  H148     1.0000 0.36423  0.28247  0.55237  Biso   1.000  H
  C301     1.0000 0.29743  0.09717  0.51047  Biso   1.000  C
  H149     1.0000 0.24393  0.03277  0.54327  Biso   1.000  H
  C302     1.0000 0.34403  0.17647  0.50023  Biso   1.000  C
  H150     1.0000 0.40073  0.29967  0.50887  Biso   1.000  H
  H151     1.0000 0.28043  0.04997  0.49977  Biso   1.000  H
  C303     1.0000 0.37523  0.20237  0.47188  Biso   1.000  C
  C304     1.0000 0.39303  0.27427  0.45867  Biso   1.000  C
  C305     1.0000 0.38913  0.14307  0.46027  Biso   1.000  C
  C306     1.0000 0.42453  0.28687  0.43387  Biso   1.000  C
  H152     1.0000 0.38353  0.31477  0.46657  Biso   1.000  H
  C307     1.0000 0.42063  0.15567  0.43547  Biso   1.000  C
  H153     1.0000 0.37693  0.09387  0.46927  Biso   1.000  H
  C308     1.0000 0.43843  0.22757  0.42227  Biso   1.000  C
  H154     1.0000 0.45993  0.23617  0.40527  Biso   1.000  H
  Cu23     1.0000 0.15463  0.28597  0.75711  Biso   1.000  Cu
  Cu24     1.0000 0.20113  0.37977  0.71557  Biso   1.000  Cu
  O111     1.0000 0.12033  0.21067  0.79217  Biso   1.000  O
  O112     1.0000 0.23923  0.44937  0.68187  Biso   1.000  O
  O113     1.0000 0.09073  0.29897  0.70247  Biso   1.000  O
  O114     1.0000 0.05133  0.21917  0.73737  Biso   1.000  O
  C309     1.0000 0.04483  0.23587  0.71537  Biso   1.000  C
  C310     1.0000 0.96973  0.16877  0.70137  Biso   1.000  C
  C311     1.0000 0.90673  0.10147  0.71438  Biso   1.000  C
  H155     1.0000 0.91023  0.09697  0.73247  Biso   1.000  H
  C312     1.0000 0.83873  0.04117  0.70097  Biso   1.000  C
  C313     1.0000 0.83373  0.04797  0.67457  Biso   1.000  C
  H156     1.0000 0.78723  0.00667  0.66537  Biso   1.000  H
  C314     1.0000 0.89663  0.11507  0.66152  Biso   1.000  C
  C315     1.0000 0.96473  0.17557  0.67497  Biso   1.000  C
  H157     1.0000 0.00773  0.22147  0.66607  Biso   1.000  H
  C316     1.0000 0.77113  0.96437  0.71417  Biso   1.000  C
  O115     1.0000 0.78473  0.96057  0.73697  Biso   1.000  O
  O116     1.0000 0.71003  0.91677  0.69987  Biso   1.000  O
  C317     1.0000 0.89053  0.12317  0.63159  Biso   1.000  C
  C318     1.0000 0.82313  0.06327  0.61783  Biso   1.000  C
  H158     1.0000 0.77993  0.01687  0.62647  Biso   1.000  H
  C319     1.0000 0.81903  0.07137  0.59143  Biso   1.000  C
  H159     1.0000 0.77293  0.03047  0.58207  Biso   1.000  H
  C320     1.0000 0.88223  0.13937  0.57877  Biso   1.000  C
  C321     1.0000 0.94963  0.19927  0.59253  Biso   1.000  C
  H160     1.0000 0.99293  0.24587  0.58387  Biso   1.000  H
  C322     1.0000 0.95383  0.19127  0.61894  Biso   1.000  C
  H161     1.0000 0.99993  0.23227  0.62837  Biso   1.000  H
  C323     1.0000 0.86553  0.14757  0.55080  Biso   1.000  C
  C324     1.0000 0.82993  0.08097  0.53387  Biso   1.000  C
  H162     1.0000 0.81483  0.02687  0.53977  Biso   1.000  H
  C325     1.0000 0.81663  0.09357  0.50844  Biso   1.000  C
  H163     1.0000 0.79223  0.04797  0.49687  Biso   1.000  H
  C326     1.0000 0.83873  0.17267  0.49990  Biso   1.000  C
  C327     1.0000 0.87433  0.23937  0.51677  Biso   1.000  C
  H164     1.0000 0.88953  0.29347  0.51097  Biso   1.000  H
  C328     1.0000 0.88773  0.22677  0.54226  Biso   1.000  C
  H165     1.0000 0.91213  0.27247  0.55387  Biso   1.000  H
  C329     1.0000 0.82863  0.19917  0.47204  Biso   1.000  C
  C330     1.0000 0.88143  0.27307  0.45947  Biso   1.000  C
  H166     1.0000 0.93143  0.31307  0.46757  Biso   1.000  H
  C331     1.0000 0.86103  0.28847  0.43527  Biso   1.000  C
  C332     1.0000 0.78783  0.22987  0.42347  Biso   1.000  C
  H167     1.0000 0.77393  0.24047  0.40697  Biso   1.000  H
  C333     1.0000 0.73503  0.15597  0.43607  Biso   1.000  C
  C334     1.0000 0.75543  0.14057  0.46027  Biso   1.000  C
  H168     1.0000 0.71933  0.09007  0.46887  Biso   1.000  H
  C335     1.0000 0.91513  0.37127  0.42237  Biso   1.000  C
  O117     1.0000 0.97313  0.42137  0.43627  Biso   1.000  O
  O118     1.0000 0.89453  0.38467  0.40077  Biso   1.000  O
  C336     1.0000 0.65803  0.09757  0.42317  Biso   1.000  C
  O119     1.0000 0.64173  0.11037  0.40017  Biso   1.000  O
  O120     1.0000 0.60183  0.03477  0.43597  Biso   1.000  O
  Cu25     1.0000 0.84640  0.71290  0.04930  Biso   1.000  Cu
  O121     1.0000 0.28490  0.43690  0.73290  Biso   1.000  O
  Cu26     1.0000 0.79820  0.61900  0.09115  Biso   1.000  Cu
  O122     1.0000 0.87940  0.78830  0.01690  Biso   1.000  O
  O123     1.0000 0.73320  0.63800  0.03770  Biso   1.000  O
  O124     1.0000 0.35630  0.25150  0.03840  Biso   1.000  O
  O125     1.0000 0.55440  0.69160  0.73310  Biso   1.000  O
  C337     1.0000 0.29960  0.41780  0.75500  Biso   1.000  C
  O126     1.0000 0.24400  0.35970  0.76930  Biso   1.000  O
  O127     1.0000 0.76500  0.54900  0.12700  Biso   1.000  O
  O128     1.0000 0.69470  0.55930  0.07190  Biso   1.000  O
  O129     1.0000 0.43290  0.30030  0.07300  Biso   1.000  O
  O130     1.0000 0.63250  0.73010  0.76810  Biso   1.000  O
  C338     1.0000 0.68820  0.57250  0.04960  Biso   1.000  C
  C339     1.0000 0.42200  0.30510  0.05020  Biso   1.000  C
  C340     1.0000 0.57170  0.67940  0.75580  Biso   1.000  C
  C341     1.0000 0.61440  0.50700  0.03520  Biso   1.000  C
  C342     1.0000 0.60730  0.51230  0.00880  Biso   1.000  C
  C343     1.0000 0.55340  0.43950  0.04865  Biso   1.000  C
  C344     1.0000 0.53920  0.45010  0.99584  Biso   1.000  C
  H169     1.0000 0.64900  0.55840  0.99960  Biso   1.000  H
  C345     1.0000 0.48530  0.37730  0.03570  Biso   1.000  C
  H170     1.0000 0.55830  0.43590  0.06670  Biso   1.000  H
  C346     1.0000 0.52870  0.45690  0.96629  Biso   1.000  C
  C347     1.0000 0.47830  0.38270  0.00930  Biso   1.000  C
  C348     1.0000 0.59010  0.52320  0.95255  Biso   1.000  C
  C349     1.0000 0.46110  0.39360  0.95350  Biso   1.000  C
  H171     1.0000 0.43170  0.34010  0.00050  Biso   1.000  H
  C350     1.0000 0.58400  0.52620  0.92602  Biso   1.000  C
  H172     1.0000 0.63630  0.56650  0.96130  Biso   1.000  H
  H173     1.0000 0.41910  0.34830  0.96290  Biso   1.000  H
  C351     1.0000 0.45500  0.39660  0.92697  Biso   1.000  C
  H174     1.0000 0.62600  0.57150  0.91660  Biso   1.000  H
  C352     1.0000 0.51650  0.46300  0.91323  Biso   1.000  C
  H175     1.0000 0.40880  0.35330  0.91820  Biso   1.000  H
  C353     1.0000 0.51070  0.47800  0.88522  Biso   1.000  C
  C354     1.0000 0.43140  0.44530  0.87501  Biso   1.000  C
  C355     1.0000 0.57970  0.52210  0.86960  Biso   1.000  C
  C356     1.0000 0.42120  0.45680  0.84918  Biso   1.000  C
  H176     1.0000 0.38420  0.41510  0.88570  Biso   1.000  H
  C357     1.0000 0.56950  0.53360  0.84380  Biso   1.000  C
  H177     1.0000 0.63390  0.54450  0.87660  Biso   1.000  H
  C358     1.0000 0.49020  0.50090  0.83356  Biso   1.000  C
  H178     1.0000 0.36700  0.43440  0.84220  Biso   1.000  H
  H179     1.0000 0.61670  0.56380  0.83310  Biso   1.000  H
  C359     1.0000 0.46430  0.50620  0.80521  Biso   1.000  C
  C360     1.0000 0.39240  0.45210  0.79200  Biso   1.000  C
  C361     1.0000 0.52360  0.57940  0.79360  Biso   1.000  C
  C362     1.0000 0.37980  0.47100  0.76720  Biso   1.000  C
  H180     1.0000 0.35190  0.40210  0.79990  Biso   1.000  H
  C363     1.0000 0.51100  0.59830  0.76880  Biso   1.000  C
  H181     1.0000 0.57280  0.61640  0.80260  Biso   1.000  H
  C364     1.0000 0.43910  0.54420  0.75560  Biso   1.000  C
  H182     1.0000 0.43050  0.55710  0.73860  Biso   1.000  H
  Cu27     1.0000 0.38070  0.20200  0.09044  Biso   1.000  Cu
  Cu28     1.0000 0.28690  0.15470  0.04890  Biso   1.000  Cu
  O131     1.0000 0.45600  0.24300  0.12550  Biso   1.000  O
  O132     1.0000 0.21730  0.12320  0.01520  Biso   1.000  O
  O133     1.0000 0.36770  0.12510  0.03580  Biso   1.000  O
  O134     1.0000 0.44750  0.16550  0.07070  Biso   1.000  O
  C365     1.0000 0.43080  0.14230  0.04870  Biso   1.000  C
  C366     1.0000 0.49790  0.13430  0.03470  Biso   1.000  C
  C367     1.0000 0.56520  0.13860  0.04771  Biso   1.000  C
  H183     1.0000 0.56970  0.14660  0.06580  Biso   1.000  H
  C368     1.0000 0.62550  0.13090  0.03430  Biso   1.000  C
  C369     1.0000 0.61870  0.11910  0.00790  Biso   1.000  C
  H184     1.0000 0.66000  0.11390  0.99870  Biso   1.000  H
  C370     1.0000 0.55160  0.11490  0.99485  Biso   1.000  C
  C371     1.0000 0.49110  0.12250  0.00830  Biso   1.000  C
  H185     1.0000 0.44520  0.11960  0.99940  Biso   1.000  H
  C372     1.0000 0.70230  0.14010  0.04750  Biso   1.000  C
  O135     1.0000 0.70610  0.15750  0.07030  Biso   1.000  O
  O136     1.0000 0.74990  0.12660  0.03320  Biso   1.000  O
  C373     1.0000 0.54350  0.10070  0.96492  Biso   1.000  C
  C374     1.0000 0.60340  0.09320  0.95116  Biso   1.000  C
  H186     1.0000 0.64980  0.09640  0.95980  Biso   1.000  H
  C375     1.0000 0.59530  0.08100  0.92476  Biso   1.000  C
  H187     1.0000 0.63620  0.07580  0.91540  Biso   1.000  H
  C376     1.0000 0.52730  0.07620  0.91210  Biso   1.000  C
  C377     1.0000 0.46740  0.08370  0.92586  Biso   1.000  C
  H188     1.0000 0.42080  0.08040  0.91720  Biso   1.000  H
  C378     1.0000 0.47540  0.09590  0.95227  Biso   1.000  C
  H189     1.0000 0.43440  0.10100  0.96170  Biso   1.000  H
  C379     1.0000 0.51910  0.05130  0.88413  Biso   1.000  C
  C380     1.0000 0.58570  0.08230  0.86720  Biso   1.000  C
  H190     1.0000 0.63980  0.12130  0.87310  Biso   1.000  H
  C381     1.0000 0.57310  0.05640  0.84177  Biso   1.000  C
  H191     1.0000 0.61870  0.07760  0.83020  Biso   1.000  H
  C382     1.0000 0.49400  0.99940  0.83323  Biso   1.000  C
  C383     1.0000 0.42730  0.96830  0.85010  Biso   1.000  C
  H192     1.0000 0.37320  0.92940  0.84430  Biso   1.000  H
  C384     1.0000 0.43990  0.99430  0.87559  Biso   1.000  C
  H193     1.0000 0.39420  0.97300  0.88720  Biso   1.000  H
  C385     1.0000 0.46750  0.96280  0.80537  Biso   1.000  C
  C386     1.0000 0.39360  0.94170  0.79280  Biso   1.000  C
  H194     1.0000 0.35360  0.95170  0.80090  Biso   1.000  H
  C387     1.0000 0.37820  0.90590  0.76860  Biso   1.000  C
  C388     1.0000 0.43680  0.89130  0.75680  Biso   1.000  C
  H195     1.0000 0.42620  0.86680  0.74030  Biso   1.000  H
  C389     1.0000 0.51070  0.91240  0.76940  Biso   1.000  C
  C390     1.0000 0.52610  0.94820  0.79360  Biso   1.000  C
  H196     1.0000 0.57660  0.96260  0.80220  Biso   1.000  H
  C391     1.0000 0.29540  0.87720  0.75570  Biso   1.000  C
  O137     1.0000 0.24530  0.88510  0.76960  Biso   1.000  O
  O138     1.0000 0.28200  0.84320  0.73410  Biso   1.000  O
  C392     1.0000 0.56910  0.89380  0.75650  Biso   1.000  C
  O139     1.0000 0.55630  0.86470  0.73350  Biso   1.000  O
  O140     1.0000 0.63190  0.90040  0.76930  Biso   1.000  O
  Cu29     1.0000 0.51307  0.04623  0.38263  Biso   1.000  Cu
  O141     1.0000 0.95157  0.77023  0.06623  Biso   1.000  O
  Cu30     1.0000 0.46487  0.95233  0.42448  Biso   1.000  Cu
  O142     1.0000 0.54607  0.12163  0.35023  Biso   1.000  O
  O143     1.0000 0.39987  0.97133  0.37103  Biso   1.000  O
  O144     1.0000 0.02297  0.58483  0.37173  Biso   1.000  O
  O145     1.0000 0.22107  0.02493  0.06643  Biso   1.000  O
  C393     1.0000 0.96627  0.75113  0.08833  Biso   1.000  C
  O146     1.0000 0.91067  0.69303  0.10263  Biso   1.000  O
  O147     1.0000 0.43167  0.88233  0.46033  Biso   1.000  O
  O148     1.0000 0.36137  0.89263  0.40523  Biso   1.000  O
  O149     1.0000 0.09957  0.63363  0.40633  Biso   1.000  O
  O150     1.0000 0.29917  0.06343  0.10143  Biso   1.000  O
  C394     1.0000 0.35487  0.90583  0.38293  Biso   1.000  C
  C395     1.0000 0.08867  0.63843  0.38353  Biso   1.000  C
  C396     1.0000 0.23837  0.01273  0.08913  Biso   1.000  C
  C397     1.0000 0.28107  0.84033  0.36853  Biso   1.000  C
  C398     1.0000 0.27397  0.84563  0.34213  Biso   1.000  C
  C399     1.0000 0.22007  0.77283  0.38198  Biso   1.000  C
  C400     1.0000 0.20587  0.78343  0.32917  Biso   1.000  C
  H197     1.0000 0.31567  0.89173  0.33293  Biso   1.000  H
  C401     1.0000 0.15197  0.71063  0.36903  Biso   1.000  C
  H198     1.0000 0.22497  0.76923  0.40003  Biso   1.000  H
  C402     1.0000 0.19537  0.79023  0.29962  Biso   1.000  C
  C403     1.0000 0.14497  0.71603  0.34263  Biso   1.000  C
  C404     1.0000 0.25677  0.85653  0.28588  Biso   1.000  C
  C405     1.0000 0.12777  0.72693  0.28683  Biso   1.000  C
  H199     1.0000 0.09837  0.67343  0.33383  Biso   1.000  H
  C406     1.0000 0.25067  0.85953  0.25935  Biso   1.000  C
  H200     1.0000 0.30297  0.89983  0.29463  Biso   1.000  H
  H201     1.0000 0.08577  0.68163  0.29623  Biso   1.000  H
  C407     1.0000 0.12167  0.72993  0.26030  Biso   1.000  C
  H202     1.0000 0.29267  0.90483  0.24993  Biso   1.000  H
  C408     1.0000 0.18317  0.79633  0.24656  Biso   1.000  C
  H203     1.0000 0.07547  0.68663  0.25153  Biso   1.000  H
  C409     1.0000 0.17737  0.81133  0.21855  Biso   1.000  C
  C410     1.0000 0.09807  0.77863  0.20834  Biso   1.000  C
  C411     1.0000 0.24637  0.85543  0.20293  Biso   1.000  C
  C412     1.0000 0.08787  0.79013  0.18251  Biso   1.000  C
  H204     1.0000 0.05087  0.74843  0.21903  Biso   1.000  H
  C413     1.0000 0.23617  0.86693  0.17713  Biso   1.000  C
  H205     1.0000 0.30057  0.87783  0.20993  Biso   1.000  H
  C414     1.0000 0.15687  0.83423  0.16689  Biso   1.000  C
  H206     1.0000 0.03367  0.76773  0.17553  Biso   1.000  H
  H207     1.0000 0.28337  0.89713  0.16643  Biso   1.000  H
  C415     1.0000 0.13097  0.83953  0.13854  Biso   1.000  C
  C416     1.0000 0.05907  0.78543  0.12533  Biso   1.000  C
  C417     1.0000 0.19027  0.91273  0.12693  Biso   1.000  C
  C418     1.0000 0.04647  0.80433  0.10053  Biso   1.000  C
  H208     1.0000 0.01857  0.73543  0.13323  Biso   1.000  H
  C419     1.0000 0.17767  0.93163  0.10213  Biso   1.000  C
  H209     1.0000 0.23947  0.94973  0.13593  Biso   1.000  H
  C420     1.0000 0.10577  0.87753  0.08893  Biso   1.000  C
  H210     1.0000 0.09717  0.89043  0.07193  Biso   1.000  H
  Cu31     1.0000 0.04737  0.53533  0.42377  Biso   1.000  Cu
  Cu32     1.0000 0.95357  0.48803  0.38223  Biso   1.000  Cu
  O151     1.0000 0.12267  0.57633  0.45883  Biso   1.000  O
  O152     1.0000 0.88397  0.45653  0.34853  Biso   1.000  O
  O153     1.0000 0.03437  0.45843  0.36913  Biso   1.000  O
  O154     1.0000 0.11417  0.49883  0.40403  Biso   1.000  O
  C421     1.0000 0.09747  0.47563  0.38203  Biso   1.000  C
  C422     1.0000 0.16457  0.46763  0.36803  Biso   1.000  C
  C423     1.0000 0.23187  0.47193  0.38104  Biso   1.000  C
  H211     1.0000 0.23637  0.47993  0.39913  Biso   1.000  H
  C424     1.0000 0.29217  0.46423  0.36763  Biso   1.000  C
  C425     1.0000 0.28537  0.45243  0.34123  Biso   1.000  C
  H212     1.0000 0.32667  0.44723  0.33203  Biso   1.000  H
  C426     1.0000 0.21827  0.44823  0.32818  Biso   1.000  C
  C427     1.0000 0.15777  0.45583  0.34163  Biso   1.000  C
  H213     1.0000 0.11187  0.45293  0.33273  Biso   1.000  H
  C428     1.0000 0.36897  0.47343  0.38083  Biso   1.000  C
  O155     1.0000 0.37277  0.49083  0.40363  Biso   1.000  O
  O156     1.0000 0.41657  0.45993  0.36653  Biso   1.000  O
  C429     1.0000 0.21017  0.43403  0.29825  Biso   1.000  C
  C430     1.0000 0.27007  0.42653  0.28449  Biso   1.000  C
  H214     1.0000 0.31647  0.42973  0.29313  Biso   1.000  H
  C431     1.0000 0.26197  0.41433  0.25809  Biso   1.000  C
  H215     1.0000 0.30287  0.40913  0.24873  Biso   1.000  H
  C432     1.0000 0.19397  0.40953  0.24543  Biso   1.000  C
  C433     1.0000 0.13407  0.41703  0.25919  Biso   1.000  C
  H216     1.0000 0.08747  0.41373  0.25053  Biso   1.000  H
  C434     1.0000 0.14207  0.42923  0.28560  Biso   1.000  C
  H217     1.0000 0.10107  0.43433  0.29503  Biso   1.000  H
  C435     1.0000 0.18577  0.38463  0.21746  Biso   1.000  C
  C436     1.0000 0.25237  0.41563  0.20053  Biso   1.000  C
  H218     1.0000 0.30647  0.45463  0.20643  Biso   1.000  H
  C437     1.0000 0.23977  0.38973  0.17510  Biso   1.000  C
  H219     1.0000 0.28537  0.41093  0.16353  Biso   1.000  H
  C438     1.0000 0.16067  0.33273  0.16656  Biso   1.000  C
  C439     1.0000 0.09397  0.30163  0.18343  Biso   1.000  C
  H220     1.0000 0.03987  0.26273  0.17763  Biso   1.000  H
  C440     1.0000 0.10657  0.32763  0.20892  Biso   1.000  C
  H221     1.0000 0.06087  0.30633  0.22053  Biso   1.000  H
  C441     1.0000 0.13417  0.29613  0.13870  Biso   1.000  C
  C442     1.0000 0.06027  0.27503  0.12613  Biso   1.000  C
  H222     1.0000 0.02027  0.28503  0.13423  Biso   1.000  H
  C443     1.0000 0.04487  0.23923  0.10193  Biso   1.000  C
  C444     1.0000 0.10347  0.22463  0.09013  Biso   1.000  C
  H223     1.0000 0.09287  0.20013  0.07363  Biso   1.000  H
  C445     1.0000 0.17737  0.24573  0.10273  Biso   1.000  C
  C446     1.0000 0.19277  0.28153  0.12693  Biso   1.000  C
  H224     1.0000 0.24327  0.29593  0.13553  Biso   1.000  H
  C447     1.0000 0.96207  0.21053  0.08903  Biso   1.000  C
  O157     1.0000 0.91197  0.21843  0.10293  Biso   1.000  O
  O158     1.0000 0.94867  0.17653  0.06743  Biso   1.000  O
  C448     1.0000 0.23577  0.22713  0.08983  Biso   1.000  C
  O159     1.0000 0.22297  0.19803  0.06683  Biso   1.000  O
  O160     1.0000 0.29857  0.23373  0.10263  Biso   1.000  O
  Cu33     1.0000 0.17973  0.37957  0.71597  Biso   1.000  Cu
  O161     1.0000 0.61823  0.10357  0.39957  Biso   1.000  O
  Cu34     1.0000 0.13153  0.28567  0.75782  Biso   1.000  Cu
  O162     1.0000 0.21273  0.45497  0.68357  Biso   1.000  O
  O163     1.0000 0.06653  0.30467  0.70437  Biso   1.000  O
  O164     1.0000 0.68963  0.91817  0.70507  Biso   1.000  O
  O165     1.0000 0.88773  0.35827  0.39977  Biso   1.000  O
  C449     1.0000 0.63293  0.08447  0.42167  Biso   1.000  C
  O166     1.0000 0.57733  0.02637  0.43597  Biso   1.000  O
  O167     1.0000 0.09833  0.21567  0.79367  Biso   1.000  O
  O168     1.0000 0.02803  0.22597  0.73857  Biso   1.000  O
  O169     1.0000 0.76623  0.96697  0.73967  Biso   1.000  O
  O170     1.0000 0.96583  0.39677  0.43477  Biso   1.000  O
  C450     1.0000 0.02153  0.23917  0.71627  Biso   1.000  C
  C451     1.0000 0.75533  0.97177  0.71687  Biso   1.000  C
  C452     1.0000 0.90503  0.34607  0.42247  Biso   1.000  C
  C453     1.0000 0.94773  0.17367  0.70187  Biso   1.000  C
  C454     1.0000 0.94063  0.17897  0.67547  Biso   1.000  C
  C455     1.0000 0.88673  0.10617  0.71532  Biso   1.000  C
  C456     1.0000 0.87253  0.11677  0.66251  Biso   1.000  C
  H225     1.0000 0.98233  0.22507  0.66627  Biso   1.000  H
  C457     1.0000 0.81863  0.04397  0.70237  Biso   1.000  C
  H226     1.0000 0.89163  0.10257  0.73337  Biso   1.000  H
  C458     1.0000 0.86203  0.12357  0.63296  Biso   1.000  C
  C459     1.0000 0.81163  0.04937  0.67597  Biso   1.000  C
  C460     1.0000 0.92343  0.18987  0.61922  Biso   1.000  C
  C461     1.0000 0.79443  0.06027  0.62017  Biso   1.000  C
  H227     1.0000 0.76503  0.00677  0.66717  Biso   1.000  H
  C462     1.0000 0.91733  0.19287  0.59269  Biso   1.000  C
  H228     1.0000 0.96963  0.23317  0.62797  Biso   1.000  H
  H229     1.0000 0.75243  0.01497  0.62957  Biso   1.000  H
  C463     1.0000 0.78833  0.06327  0.59364  Biso   1.000  C
  H230     1.0000 0.95933  0.23817  0.58327  Biso   1.000  H
  C464     1.0000 0.84983  0.12967  0.57990  Biso   1.000  C
  H231     1.0000 0.74213  0.01997  0.58487  Biso   1.000  H
  C465     1.0000 0.84403  0.14467  0.55189  Biso   1.000  C
  C466     1.0000 0.76473  0.11197  0.54168  Biso   1.000  C
  C467     1.0000 0.91303  0.18877  0.53627  Biso   1.000  C
  C468     1.0000 0.75453  0.12347  0.51585  Biso   1.000  C
  H232     1.0000 0.71753  0.08177  0.55237  Biso   1.000  H
  C469     1.0000 0.90283  0.20027  0.51047  Biso   1.000  C
  H233     1.0000 0.96723  0.21117  0.54327  Biso   1.000  H
  C470     1.0000 0.82353  0.16757  0.50023  Biso   1.000  C
  H234     1.0000 0.70033  0.10107  0.50887  Biso   1.000  H
  H235     1.0000 0.95003  0.23047  0.49977  Biso   1.000  H
  C471     1.0000 0.79763  0.17287  0.47188  Biso   1.000  C
  C472     1.0000 0.72573  0.11877  0.45867  Biso   1.000  C
  C473     1.0000 0.85693  0.24607  0.46027  Biso   1.000  C
  C474     1.0000 0.71313  0.13767  0.43387  Biso   1.000  C
  H236     1.0000 0.68523  0.06877  0.46657  Biso   1.000  H
  C475     1.0000 0.84433  0.26497  0.43547  Biso   1.000  C
  H237     1.0000 0.90613  0.28307  0.46927  Biso   1.000  H
  C476     1.0000 0.77243  0.21087  0.42227  Biso   1.000  C
  H238     1.0000 0.76383  0.22377  0.40527  Biso   1.000  H
  Cu35     1.0000 0.71403  0.86867  0.75711  Biso   1.000  Cu
  Cu36     1.0000 0.62023  0.82137  0.71557  Biso   1.000  Cu
  O171     1.0000 0.78933  0.90967  0.79217  Biso   1.000  O
  O172     1.0000 0.55063  0.78987  0.68187  Biso   1.000  O
  O173     1.0000 0.70103  0.79177  0.70247  Biso   1.000  O
  O174     1.0000 0.78083  0.83217  0.73737  Biso   1.000  O
  C477     1.0000 0.76413  0.80897  0.71537  Biso   1.000  C
  C478     1.0000 0.83123  0.80097  0.70137  Biso   1.000  C
  C479     1.0000 0.89853  0.80527  0.71438  Biso   1.000  C
  H239     1.0000 0.90303  0.81327  0.73247  Biso   1.000  H
  C480     1.0000 0.95883  0.79757  0.70097  Biso   1.000  C
  C481     1.0000 0.95203  0.78577  0.67457  Biso   1.000  C
  H240     1.0000 0.99333  0.78057  0.66537  Biso   1.000  H
  C482     1.0000 0.88493  0.78157  0.66152  Biso   1.000  C
  C483     1.0000 0.82443  0.78917  0.67497  Biso   1.000  C
  H241     1.0000 0.77853  0.78627  0.66607  Biso   1.000  H
  C484     1.0000 0.03563  0.80677  0.71417  Biso   1.000  C
  O175     1.0000 0.03943  0.82417  0.73697  Biso   1.000  O
  O176     1.0000 0.08323  0.79327  0.69987  Biso   1.000  O
  C485     1.0000 0.87683  0.76737  0.63159  Biso   1.000  C
  C486     1.0000 0.93673  0.75987  0.61783  Biso   1.000  C
  H242     1.0000 0.98313  0.76307  0.62647  Biso   1.000  H
  C487     1.0000 0.92863  0.74767  0.59143  Biso   1.000  C
  H243     1.0000 0.96953  0.74247  0.58207  Biso   1.000  H
  C488     1.0000 0.86063  0.74287  0.57877  Biso   1.000  C
  C489     1.0000 0.80073  0.75037  0.59253  Biso   1.000  C
  H244     1.0000 0.75413  0.74707  0.58387  Biso   1.000  H
  C490     1.0000 0.80873  0.76257  0.61894  Biso   1.000  C
  H245     1.0000 0.76773  0.76767  0.62837  Biso   1.000  H
  C491     1.0000 0.85243  0.71797  0.55080  Biso   1.000  C
  C492     1.0000 0.91903  0.74897  0.53387  Biso   1.000  C
  H246     1.0000 0.97313  0.78797  0.53977  Biso   1.000  H
  C493     1.0000 0.90643  0.72307  0.50844  Biso   1.000  C
  H247     1.0000 0.95203  0.74427  0.49687  Biso   1.000  H
  C494     1.0000 0.82733  0.66607  0.49990  Biso   1.000  C
  C495     1.0000 0.76063  0.63497  0.51677  Biso   1.000  C
  H248     1.0000 0.70653  0.59607  0.51097  Biso   1.000  H
  C496     1.0000 0.77323  0.66097  0.54226  Biso   1.000  C
  H249     1.0000 0.72753  0.63967  0.55387  Biso   1.000  H
  C497     1.0000 0.80083  0.62947  0.47204  Biso   1.000  C
  C498     1.0000 0.72693  0.60837  0.45947  Biso   1.000  C
  H250     1.0000 0.68693  0.61837  0.46757  Biso   1.000  H
  C499     1.0000 0.71153  0.57257  0.43527  Biso   1.000  C
  C500     1.0000 0.77013  0.55797  0.42347  Biso   1.000  C
  H251     1.0000 0.75953  0.53347  0.40697  Biso   1.000  H
  C501     1.0000 0.84403  0.57907  0.43607  Biso   1.000  C
  C502     1.0000 0.85943  0.61487  0.46027  Biso   1.000  C
  H252     1.0000 0.90993  0.62927  0.46887  Biso   1.000  H
  C503     1.0000 0.62873  0.54387  0.42237  Biso   1.000  C
  O177     1.0000 0.57863  0.55177  0.43627  Biso   1.000  O
  O178     1.0000 0.61533  0.50987  0.40077  Biso   1.000  O
  C504     1.0000 0.90243  0.56047  0.42317  Biso   1.000  C
  O179     1.0000 0.88963  0.53137  0.40017  Biso   1.000  O
  O180     1.0000 0.96523  0.56707  0.43597  Biso   1.000  O
  Cu37     1.0000 0.71290  0.86650  0.95070  Biso   1.000  Cu
  O181     1.0000 0.43690  0.15200  0.26710  Biso   1.000  O
  Cu38     1.0000 0.61900  0.82080  0.90885  Biso   1.000  Cu
  O182     1.0000 0.78830  0.90890  0.98310  Biso   1.000  O
  O183     1.0000 0.63800  0.90480  0.96230  Biso   1.000  O
  O184     1.0000 0.25150  0.89520  0.96160  Biso   1.000  O
  O185     1.0000 0.69160  0.13720  0.26690  Biso   1.000  O
  C505     1.0000 0.41780  0.11820  0.24500  Biso   1.000  C
  O186     1.0000 0.35970  0.11570  0.23070  Biso   1.000  O
  O187     1.0000 0.54900  0.78400  0.87300  Biso   1.000  O
  O188     1.0000 0.55930  0.86460  0.92810  Biso   1.000  O
  O189     1.0000 0.30030  0.86740  0.92700  Biso   1.000  O
  O190     1.0000 0.73010  0.09760  0.23190  Biso   1.000  O
  C506     1.0000 0.57250  0.88430  0.95040  Biso   1.000  C
  C507     1.0000 0.30510  0.88310  0.94980  Biso   1.000  C
  C508     1.0000 0.67940  0.10770  0.24420  Biso   1.000  C
  C509     1.0000 0.50700  0.89260  0.96480  Biso   1.000  C
  C510     1.0000 0.51230  0.90500  0.99120  Biso   1.000  C
  C511     1.0000 0.43950  0.88610  0.95135  Biso   1.000  C
  C512     1.0000 0.45010  0.91090  0.00416  Biso   1.000  C
  H253     1.0000 0.55840  0.90940  0.00040  Biso   1.000  H
  C513     1.0000 0.37730  0.89200  0.96430  Biso   1.000  C
  H254     1.0000 0.43590  0.87760  0.93330  Biso   1.000  H
  C514     1.0000 0.45690  0.92820  0.03371  Biso   1.000  C
  C515     1.0000 0.38270  0.90440  0.99070  Biso   1.000  C
  C516     1.0000 0.52320  0.93310  0.04745  Biso   1.000  C
  C517     1.0000 0.39360  0.93250  0.04650  Biso   1.000  C
  H255     1.0000 0.34010  0.90840  0.99950  Biso   1.000  H
  C518     1.0000 0.52620  0.94220  0.07398  Biso   1.000  C
  H256     1.0000 0.56650  0.93020  0.03870  Biso   1.000  H
  H257     1.0000 0.34830  0.92920  0.03710  Biso   1.000  H
  C519     1.0000 0.39660  0.94160  0.07303  Biso   1.000  C
  H258     1.0000 0.57150  0.94550  0.08340  Biso   1.000  H
  C520     1.0000 0.46300  0.94650  0.08677  Biso   1.000  C
  H259     1.0000 0.35330  0.94450  0.08180  Biso   1.000  H
  C521     1.0000 0.47800  0.96730  0.11478  Biso   1.000  C
  C522     1.0000 0.44530  0.01390  0.12499  Biso   1.000  C
  C523     1.0000 0.52210  0.94240  0.13040  Biso   1.000  C
  C524     1.0000 0.45680  0.03560  0.15082  Biso   1.000  C
  H260     1.0000 0.41510  0.03090  0.11430  Biso   1.000  H
  C525     1.0000 0.53360  0.96410  0.15620  Biso   1.000  C
  H261     1.0000 0.54450  0.91060  0.12340  Biso   1.000  H
  C526     1.0000 0.50090  0.01070  0.16644  Biso   1.000  C
  H262     1.0000 0.43440  0.06740  0.15780  Biso   1.000  H
  H263     1.0000 0.56380  0.94710  0.16690  Biso   1.000  H
  C527     1.0000 0.50620  0.04190  0.19479  Biso   1.000  C
  C528     1.0000 0.45210  0.05970  0.20800  Biso   1.000  C
  C529     1.0000 0.57940  0.05580  0.20640  Biso   1.000  C
  C530     1.0000 0.47100  0.09120  0.23280  Biso   1.000  C
  H264     1.0000 0.40210  0.05020  0.20010  Biso   1.000  H
  C531     1.0000 0.59830  0.08730  0.23120  Biso   1.000  C
  H265     1.0000 0.61640  0.04360  0.19740  Biso   1.000  H
  C532     1.0000 0.54420  0.10510  0.24440  Biso   1.000  C
  H266     1.0000 0.55710  0.12660  0.26140  Biso   1.000  H
  Cu39     1.0000 0.20200  0.82130  0.90956  Biso   1.000  Cu
  Cu40     1.0000 0.15470  0.86780  0.95110  Biso   1.000  Cu
  O191     1.0000 0.24300  0.78700  0.87450  Biso   1.000  O
  O192     1.0000 0.12320  0.90590  0.98480  Biso   1.000  O
  O193     1.0000 0.12510  0.75740  0.96420  Biso   1.000  O
  O194     1.0000 0.16550  0.71800  0.92930  Biso   1.000  O
  C533     1.0000 0.14230  0.71150  0.95130  Biso   1.000  C
  C534     1.0000 0.13430  0.63640  0.96530  Biso   1.000  C
  C535     1.0000 0.13860  0.57340  0.95229  Biso   1.000  C
  H267     1.0000 0.14660  0.57690  0.93420  Biso   1.000  H
  C536     1.0000 0.13090  0.50540  0.96570  Biso   1.000  C
  C537     1.0000 0.11910  0.50040  0.99210  Biso   1.000  C
  H268     1.0000 0.11390  0.45390  0.00130  Biso   1.000  H
  C538     1.0000 0.11490  0.56330  0.00515  Biso   1.000  C
  C539     1.0000 0.12250  0.63140  0.99170  Biso   1.000  C
  H269     1.0000 0.11960  0.67440  0.00060  Biso   1.000  H
  C540     1.0000 0.14010  0.43780  0.95250  Biso   1.000  C
  O195     1.0000 0.15750  0.45140  0.92970  Biso   1.000  O
  O196     1.0000 0.12660  0.37670  0.96680  Biso   1.000  O
  C541     1.0000 0.10070  0.55720  0.03508  Biso   1.000  C
  C542     1.0000 0.09320  0.48980  0.04884  Biso   1.000  C
  H270     1.0000 0.09640  0.44660  0.04020  Biso   1.000  H
  C543     1.0000 0.08100  0.48570  0.07524  Biso   1.000  C
  H271     1.0000 0.07580  0.43960  0.08460  Biso   1.000  H
  C544     1.0000 0.07620  0.54890  0.08790  Biso   1.000  C
  C545     1.0000 0.08370  0.61630  0.07414  Biso   1.000  C
  H272     1.0000 0.08040  0.65960  0.08280  Biso   1.000  H
  C546     1.0000 0.09590  0.62050  0.04773  Biso   1.000  C
  H273     1.0000 0.10100  0.66660  0.03830  Biso   1.000  H
  C547     1.0000 0.05130  0.53220  0.11587  Biso   1.000  C
  C548     1.0000 0.08230  0.49660  0.13280  Biso   1.000  C
  H274     1.0000 0.12130  0.48150  0.12690  Biso   1.000  H
  C549     1.0000 0.05640  0.48330  0.15823  Biso   1.000  C
  H275     1.0000 0.07760  0.45890  0.16980  Biso   1.000  H
  C550     1.0000 0.99940  0.50540  0.16677  Biso   1.000  C
  C551     1.0000 0.96830  0.54100  0.14990  Biso   1.000  C
  H276     1.0000 0.92940  0.55620  0.15570  Biso   1.000  H
  C552     1.0000 0.99430  0.55440  0.12441  Biso   1.000  C
  H277     1.0000 0.97300  0.57880  0.11280  Biso   1.000  H
  C553     1.0000 0.96280  0.49530  0.19463  Biso   1.000  C
  C554     1.0000 0.94170  0.54810  0.20720  Biso   1.000  C
  H278     1.0000 0.95170  0.59810  0.19910  Biso   1.000  H
  C555     1.0000 0.90590  0.52770  0.23140  Biso   1.000  C
  C556     1.0000 0.89130  0.45450  0.24320  Biso   1.000  C
  H279     1.0000 0.86680  0.44060  0.25970  Biso   1.000  H
  C557     1.0000 0.91240  0.40170  0.23060  Biso   1.000  C
  C558     1.0000 0.94820  0.42210  0.20640  Biso   1.000  C
  H280     1.0000 0.96260  0.38600  0.19780  Biso   1.000  H
  C559     1.0000 0.87720  0.58180  0.24430  Biso   1.000  C
  O197     1.0000 0.88510  0.63980  0.23040  Biso   1.000  O
  O198     1.0000 0.84320  0.56120  0.26590  Biso   1.000  O
  C560     1.0000 0.89380  0.32470  0.24350  Biso   1.000  C
  O199     1.0000 0.86470  0.30840  0.26650  Biso   1.000  O
  O200     1.0000 0.90040  0.26850  0.23070  Biso   1.000  O
  Cu41     1.0000 0.37957  0.19983  0.28403  Biso   1.000  Cu
  O201     1.0000 0.10357  0.48533  0.60043  Biso   1.000  O
  Cu42     1.0000 0.28567  0.15413  0.24218  Biso   1.000  Cu
  O202     1.0000 0.45497  0.24223  0.31643  Biso   1.000  O
  O203     1.0000 0.30467  0.23813  0.29563  Biso   1.000  O
  O204     1.0000 0.91817  0.22853  0.29493  Biso   1.000  O
  O205     1.0000 0.35827  0.47053  0.60023  Biso   1.000  O
  C561     1.0000 0.08447  0.45153  0.57833  Biso   1.000  C
  O206     1.0000 0.02637  0.44903  0.56403  Biso   1.000  O
  O207     1.0000 0.21567  0.11733  0.20633  Biso   1.000  O
  O208     1.0000 0.22597  0.19793  0.26143  Biso   1.000  O
  O209     1.0000 0.96697  0.20073  0.26033  Biso   1.000  O
  O210     1.0000 0.39677  0.43093  0.56523  Biso   1.000  O
  C562     1.0000 0.23917  0.21763  0.28373  Biso   1.000  C
  C563     1.0000 0.97177  0.21643  0.28313  Biso   1.000  C
  C564     1.0000 0.34607  0.44103  0.57753  Biso   1.000  C
  C565     1.0000 0.17367  0.22593  0.29813  Biso   1.000  C
  C566     1.0000 0.17897  0.23833  0.32453  Biso   1.000  C
  C567     1.0000 0.10617  0.21943  0.28468  Biso   1.000  C
  C568     1.0000 0.11677  0.24423  0.33749  Biso   1.000  C
  H281     1.0000 0.22507  0.24273  0.33373  Biso   1.000  H
  C569     1.0000 0.04397  0.22533  0.29763  Biso   1.000  C
  H282     1.0000 0.10257  0.21093  0.26663  Biso   1.000  H
  C570     1.0000 0.12357  0.26153  0.36704  Biso   1.000  C
  C571     1.0000 0.04937  0.23773  0.32403  Biso   1.000  C
  C572     1.0000 0.18987  0.26643  0.38078  Biso   1.000  C
  C573     1.0000 0.06027  0.26583  0.37983  Biso   1.000  C
  H283     1.0000 0.00677  0.24173  0.33283  Biso   1.000  H
  C574     1.0000 0.19287  0.27553  0.40731  Biso   1.000  C
  H284     1.0000 0.23317  0.26353  0.37203  Biso   1.000  H
  H285     1.0000 0.01497  0.26253  0.37043  Biso   1.000  H
  C575     1.0000 0.06327  0.27493  0.40636  Biso   1.000  C
  H286     1.0000 0.23817  0.27883  0.41673  Biso   1.000  H
  C576     1.0000 0.12967  0.27983  0.42010  Biso   1.000  C
  H287     1.0000 0.01997  0.27783  0.41513  Biso   1.000  H
  C577     1.0000 0.14467  0.30063  0.44811  Biso   1.000  C
  C578     1.0000 0.11197  0.34723  0.45832  Biso   1.000  C
  C579     1.0000 0.18877  0.27573  0.46373  Biso   1.000  C
  C580     1.0000 0.12347  0.36893  0.48415  Biso   1.000  C
  H288     1.0000 0.08177  0.36423  0.44763  Biso   1.000  H
  C581     1.0000 0.20027  0.29743  0.48953  Biso   1.000  C
  H289     1.0000 0.21117  0.24393  0.45673  Biso   1.000  H
  C582     1.0000 0.16757  0.34403  0.49977  Biso   1.000  C
  H290     1.0000 0.10107  0.40073  0.49113  Biso   1.000  H
  H291     1.0000 0.23047  0.28043  0.50023  Biso   1.000  H
  C583     1.0000 0.17287  0.37523  0.52812  Biso   1.000  C
  C584     1.0000 0.11877  0.39303  0.54133  Biso   1.000  C
  C585     1.0000 0.24607  0.38913  0.53973  Biso   1.000  C
  C586     1.0000 0.13767  0.42453  0.56613  Biso   1.000  C
  H292     1.0000 0.06877  0.38353  0.53343  Biso   1.000  H
  C587     1.0000 0.26497  0.42063  0.56453  Biso   1.000  C
  H293     1.0000 0.28307  0.37693  0.53073  Biso   1.000  H
  C588     1.0000 0.21087  0.43843  0.57773  Biso   1.000  C
  H294     1.0000 0.22377  0.45993  0.59473  Biso   1.000  H
  Cu43     1.0000 0.86867  0.15463  0.24289  Biso   1.000  Cu
  Cu44     1.0000 0.82137  0.20113  0.28443  Biso   1.000  Cu
  O211     1.0000 0.90967  0.12033  0.20783  Biso   1.000  O
  O212     1.0000 0.78987  0.23923  0.31813  Biso   1.000  O
  O213     1.0000 0.79177  0.09073  0.29753  Biso   1.000  O
  O214     1.0000 0.83217  0.05133  0.26263  Biso   1.000  O
  C589     1.0000 0.80897  0.04483  0.28463  Biso   1.000  C
  C590     1.0000 0.80097  0.96973  0.29863  Biso   1.000  C
  C591     1.0000 0.80527  0.90673  0.28562  Biso   1.000  C
  H295     1.0000 0.81327  0.91023  0.26753  Biso   1.000  H
  C592     1.0000 0.79757  0.83873  0.29903  Biso   1.000  C
  C593     1.0000 0.78577  0.83373  0.32543  Biso   1.000  C
  H296     1.0000 0.78057  0.78723  0.33463  Biso   1.000  H
  C594     1.0000 0.78157  0.89663  0.33848  Biso   1.000  C
  C595     1.0000 0.78917  0.96473  0.32503  Biso   1.000  C
  H297     1.0000 0.78627  0.00773  0.33393  Biso   1.000  H
  C596     1.0000 0.80677  0.77113  0.28583  Biso   1.000  C
  O215     1.0000 0.82417  0.78473  0.26303  Biso   1.000  O
  O216     1.0000 0.79327  0.71003  0.30013  Biso   1.000  O
  C597     1.0000 0.76737  0.89053  0.36841  Biso   1.000  C
  C598     1.0000 0.75987  0.82313  0.38217  Biso   1.000  C
  H298     1.0000 0.76307  0.77993  0.37353  Biso   1.000  H
  C599     1.0000 0.74767  0.81903  0.40857  Biso   1.000  C
  H299     1.0000 0.74247  0.77293  0.41793  Biso   1.000  H
  C600     1.0000 0.74287  0.88223  0.42123  Biso   1.000  C
  C601     1.0000 0.75037  0.94963  0.40747  Biso   1.000  C
  H300     1.0000 0.74707  0.99293  0.41613  Biso   1.000  H
  C602     1.0000 0.76257  0.95383  0.38106  Biso   1.000  C
  H301     1.0000 0.76767  0.99993  0.37163  Biso   1.000  H
  C603     1.0000 0.71797  0.86553  0.44920  Biso   1.000  C
  C604     1.0000 0.74897  0.82993  0.46613  Biso   1.000  C
  H302     1.0000 0.78797  0.81483  0.46023  Biso   1.000  H
  C605     1.0000 0.72307  0.81663  0.49156  Biso   1.000  C
  H303     1.0000 0.74427  0.79223  0.50313  Biso   1.000  H
  C606     1.0000 0.66607  0.83873  0.50010  Biso   1.000  C
  C607     1.0000 0.63497  0.87433  0.48323  Biso   1.000  C
  H304     1.0000 0.59607  0.88953  0.48903  Biso   1.000  H
  C608     1.0000 0.66097  0.88773  0.45774  Biso   1.000  C
  H305     1.0000 0.63967  0.91213  0.44613  Biso   1.000  H
  C609     1.0000 0.62947  0.82863  0.52796  Biso   1.000  C
  C610     1.0000 0.60837  0.88143  0.54053  Biso   1.000  C
  H306     1.0000 0.61837  0.93143  0.53243  Biso   1.000  H
  C611     1.0000 0.57257  0.86103  0.56473  Biso   1.000  C
  C612     1.0000 0.55797  0.78783  0.57653  Biso   1.000  C
  H307     1.0000 0.53347  0.77393  0.59303  Biso   1.000  H
  C613     1.0000 0.57907  0.73503  0.56393  Biso   1.000  C
  C614     1.0000 0.61487  0.75543  0.53973  Biso   1.000  C
  H308     1.0000 0.62927  0.71933  0.53113  Biso   1.000  H
  C615     1.0000 0.54387  0.91513  0.57763  Biso   1.000  C
  O217     1.0000 0.55177  0.97313  0.56373  Biso   1.000  O
  O218     1.0000 0.50987  0.89453  0.59923  Biso   1.000  O
  C616     1.0000 0.56047  0.65803  0.57683  Biso   1.000  C
  O219     1.0000 0.53137  0.64173  0.59983  Biso   1.000  O
  O220     1.0000 0.56707  0.60183  0.56403  Biso   1.000  O
  Cu45     1.0000 0.04623  0.53317  0.61737  Biso   1.000  Cu
  O221     1.0000 0.77023  0.81867  0.93377  Biso   1.000  O
  Cu46     1.0000 0.95233  0.48747  0.57552  Biso   1.000  Cu
  O222     1.0000 0.12163  0.57557  0.64977  Biso   1.000  O
  O223     1.0000 0.97133  0.57147  0.62897  Biso   1.000  O
  O224     1.0000 0.58483  0.56187  0.62827  Biso   1.000  O
  O225     1.0000 0.02493  0.80387  0.93357  Biso   1.000  O
  C617     1.0000 0.75113  0.78487  0.91167  Biso   1.000  C
  O226     1.0000 0.69303  0.78237  0.89737  Biso   1.000  O
  O227     1.0000 0.88233  0.45067  0.53967  Biso   1.000  O
  O228     1.0000 0.89263  0.53127  0.59477  Biso   1.000  O
  O229     1.0000 0.63363  0.53407  0.59367  Biso   1.000  O
  O230     1.0000 0.06343  0.76427  0.89857  Biso   1.000  O
  C618     1.0000 0.90583  0.55097  0.61707  Biso   1.000  C
  C619     1.0000 0.63843  0.54977  0.61647  Biso   1.000  C
  C620     1.0000 0.01273  0.77437  0.91087  Biso   1.000  C
  C621     1.0000 0.84033  0.55927  0.63147  Biso   1.000  C
  C622     1.0000 0.84563  0.57167  0.65787  Biso   1.000  C
  C623     1.0000 0.77283  0.55277  0.61802  Biso   1.000  C
  C624     1.0000 0.78343  0.57757  0.67083  Biso   1.000  C
  H309     1.0000 0.89173  0.57607  0.66707  Biso   1.000  H
  C625     1.0000 0.71063  0.55867  0.63097  Biso   1.000  C
  H310     1.0000 0.76923  0.54427  0.59997  Biso   1.000  H
  C626     1.0000 0.79023  0.59487  0.70038  Biso   1.000  C
  C627     1.0000 0.71603  0.57107  0.65737  Biso   1.000  C
  C628     1.0000 0.85653  0.59977  0.71412  Biso   1.000  C
  C629     1.0000 0.72693  0.59917  0.71317  Biso   1.000  C
  H311     1.0000 0.67343  0.57507  0.66617  Biso   1.000  H
  C630     1.0000 0.85953  0.60887  0.74065  Biso   1.000  C
  H312     1.0000 0.89983  0.59687  0.70537  Biso   1.000  H
  H313     1.0000 0.68163  0.59587  0.70377  Biso   1.000  H
  C631     1.0000 0.72993  0.60827  0.73970  Biso   1.000  C
  H314     1.0000 0.90483  0.61217  0.75007  Biso   1.000  H
  C632     1.0000 0.79633  0.61317  0.75344  Biso   1.000  C
  H315     1.0000 0.68663  0.61117  0.74847  Biso   1.000  H
  C633     1.0000 0.81133  0.63397  0.78145  Biso   1.000  C
  C634     1.0000 0.77863  0.68057  0.79166  Biso   1.000  C
  C635     1.0000 0.85543  0.60907  0.79707  Biso   1.000  C
  C636     1.0000 0.79013  0.70227  0.81749  Biso   1.000  C
  H316     1.0000 0.74843  0.69757  0.78097  Biso   1.000  H
  C637     1.0000 0.86693  0.63077  0.82287  Biso   1.000  C
  H317     1.0000 0.87783  0.57727  0.79007  Biso   1.000  H
  C638     1.0000 0.83423  0.67737  0.83311  Biso   1.000  C
  H318     1.0000 0.76773  0.73407  0.82447  Biso   1.000  H
  H319     1.0000 0.89713  0.61377  0.83357  Biso   1.000  H
  C639     1.0000 0.83953  0.70857  0.86146  Biso   1.000  C
  C640     1.0000 0.78543  0.72637  0.87467  Biso   1.000  C
  C641     1.0000 0.91273  0.72247  0.87307  Biso   1.000  C
  C642     1.0000 0.80433  0.75787  0.89947  Biso   1.000  C
  H320     1.0000 0.73543  0.71687  0.86677  Biso   1.000  H
  C643     1.0000 0.93163  0.75397  0.89787  Biso   1.000  C
  H321     1.0000 0.94973  0.71027  0.86407  Biso   1.000  H
  C644     1.0000 0.87753  0.77177  0.91107  Biso   1.000  C
  H322     1.0000 0.89043  0.79327  0.92807  Biso   1.000  H
  Cu47     1.0000 0.53533  0.48797  0.57623  Biso   1.000  Cu
  Cu48     1.0000 0.48803  0.53447  0.61777  Biso   1.000  Cu
  O231     1.0000 0.57633  0.45367  0.54117  Biso   1.000  O
  O232     1.0000 0.45653  0.57257  0.65147  Biso   1.000  O
  O233     1.0000 0.45843  0.42407  0.63087  Biso   1.000  O
  O234     1.0000 0.49883  0.38467  0.59597  Biso   1.000  O
  C645     1.0000 0.47563  0.37817  0.61797  Biso   1.000  C
  C646     1.0000 0.46763  0.30307  0.63197  Biso   1.000  C
  C647     1.0000 0.47193  0.24007  0.61896  Biso   1.000  C
  H323     1.0000 0.47993  0.24357  0.60087  Biso   1.000  H
  C648     1.0000 0.46423  0.17207  0.63237  Biso   1.000  C
  C649     1.0000 0.45243  0.16707  0.65877  Biso   1.000  C
  H324     1.0000 0.44723  0.12057  0.66797  Biso   1.000  H
  C650     1.0000 0.44823  0.22997  0.67182  Biso   1.000  C
  C651     1.0000 0.45583  0.29807  0.65837  Biso   1.000  C
  H325     1.0000 0.45293  0.34107  0.66727  Biso   1.000  H
  C652     1.0000 0.47343  0.10447  0.61917  Biso   1.000  C
  O235     1.0000 0.49083  0.11807  0.59637  Biso   1.000  O
  O236     1.0000 0.45993  0.04337  0.63347  Biso   1.000  O
  C653     1.0000 0.43403  0.22387  0.70175  Biso   1.000  C
  C654     1.0000 0.42653  0.15647  0.71551  Biso   1.000  C
  H326     1.0000 0.42973  0.11327  0.70687  Biso   1.000  H
  C655     1.0000 0.41433  0.15237  0.74191  Biso   1.000  C
  H327     1.0000 0.40913  0.10627  0.75127  Biso   1.000  H
  C656     1.0000 0.40953  0.21557  0.75457  Biso   1.000  C
  C657     1.0000 0.41703  0.28297  0.74081  Biso   1.000  C
  H328     1.0000 0.41373  0.32627  0.74947  Biso   1.000  H
  C658     1.0000 0.42923  0.28717  0.71440  Biso   1.000  C
  H329     1.0000 0.43433  0.33327  0.70497  Biso   1.000  H
  C659     1.0000 0.38463  0.19887  0.78254  Biso   1.000  C
  C660     1.0000 0.41563  0.16327  0.79947  Biso   1.000  C
  H330     1.0000 0.45463  0.14817  0.79357  Biso   1.000  H
  C661     1.0000 0.38973  0.14997  0.82490  Biso   1.000  C
  H331     1.0000 0.41093  0.12557  0.83647  Biso   1.000  H
  C662     1.0000 0.33273  0.17207  0.83344  Biso   1.000  C
  C663     1.0000 0.30163  0.20767  0.81657  Biso   1.000  C
  H332     1.0000 0.26273  0.22287  0.82237  Biso   1.000  H
  C664     1.0000 0.32763  0.22107  0.79108  Biso   1.000  C
  H333     1.0000 0.30633  0.24547  0.77947  Biso   1.000  H
  C665     1.0000 0.29613  0.16197  0.86130  Biso   1.000  C
  C666     1.0000 0.27503  0.21477  0.87387  Biso   1.000  C
  H334     1.0000 0.28503  0.26477  0.86577  Biso   1.000  H
  C667     1.0000 0.23923  0.19437  0.89807  Biso   1.000  C
  C668     1.0000 0.22463  0.12117  0.90987  Biso   1.000  C
  H335     1.0000 0.20013  0.10727  0.92637  Biso   1.000  H
  C669     1.0000 0.24573  0.06837  0.89727  Biso   1.000  C
  C670     1.0000 0.28153  0.08877  0.87307  Biso   1.000  C
  H336     1.0000 0.29593  0.05267  0.86447  Biso   1.000  H
  C671     1.0000 0.21053  0.24847  0.91097  Biso   1.000  C
  O237     1.0000 0.21843  0.30647  0.89707  Biso   1.000  O
  O238     1.0000 0.17653  0.22787  0.93257  Biso   1.000  O
  C672     1.0000 0.22713  0.99137  0.91017  Biso   1.000  C
  O239     1.0000 0.19803  0.97507  0.93317  Biso   1.000  O
  O240     1.0000 0.23373  0.93517  0.89737  Biso   1.000  O
  Cu49     1.0000 0.13350  0.84640  0.95070  Biso   1.000  Cu
  O241     1.0000 0.84800  0.28490  0.26710  Biso   1.000  O
  Cu50     1.0000 0.17920  0.79820  0.90885  Biso   1.000  Cu
  O242     1.0000 0.09110  0.87940  0.98310  Biso   1.000  O
  O243     1.0000 0.09520  0.73320  0.96230  Biso   1.000  O
  O244     1.0000 0.10480  0.35630  0.96160  Biso   1.000  O
  O245     1.0000 0.86280  0.55440  0.26690  Biso   1.000  O
  C673     1.0000 0.88180  0.29960  0.24500  Biso   1.000  C
  O246     1.0000 0.88430  0.24400  0.23070  Biso   1.000  O
  O247     1.0000 0.21600  0.76500  0.87300  Biso   1.000  O
  O248     1.0000 0.13540  0.69470  0.92810  Biso   1.000  O
  O249     1.0000 0.13260  0.43290  0.92700  Biso   1.000  O
  O250     1.0000 0.90240  0.63250  0.23190  Biso   1.000  O
  C674     1.0000 0.11570  0.68820  0.95040  Biso   1.000  C
  C675     1.0000 0.11690  0.42200  0.94980  Biso   1.000  C
  C676     1.0000 0.89230  0.57170  0.24420  Biso   1.000  C
  C677     1.0000 0.10740  0.61440  0.96480  Biso   1.000  C
  C678     1.0000 0.09500  0.60730  0.99120  Biso   1.000  C
  C679     1.0000 0.11390  0.55340  0.95135  Biso   1.000  C
  C680     1.0000 0.08910  0.53920  0.00416  Biso   1.000  C
  H337     1.0000 0.09060  0.64900  0.00040  Biso   1.000  H
  C681     1.0000 0.10800  0.48530  0.96430  Biso   1.000  C
  H338     1.0000 0.12240  0.55830  0.93330  Biso   1.000  H
  C682     1.0000 0.07180  0.52870  0.03371  Biso   1.000  C
  C683     1.0000 0.09560  0.47830  0.99070  Biso   1.000  C
  C684     1.0000 0.06690  0.59010  0.04745  Biso   1.000  C
  C685     1.0000 0.06750  0.46110  0.04650  Biso   1.000  C
  H339     1.0000 0.09160  0.43170  0.99950  Biso   1.000  H
  C686     1.0000 0.05780  0.58400  0.07398  Biso   1.000  C
  H340     1.0000 0.06980  0.63630  0.03870  Biso   1.000  H
  H341     1.0000 0.07080  0.41910  0.03710  Biso   1.000  H
  C687     1.0000 0.05840  0.45500  0.07303  Biso   1.000  C
  H342     1.0000 0.05450  0.62600  0.08340  Biso   1.000  H
  C688     1.0000 0.05350  0.51650  0.08677  Biso   1.000  C
  H343     1.0000 0.05550  0.40880  0.08180  Biso   1.000  H
  C689     1.0000 0.03270  0.51070  0.11478  Biso   1.000  C
  C690     1.0000 0.98610  0.43140  0.12499  Biso   1.000  C
  C691     1.0000 0.05760  0.57970  0.13040  Biso   1.000  C
  C692     1.0000 0.96440  0.42120  0.15082  Biso   1.000  C
  H344     1.0000 0.96910  0.38420  0.11430  Biso   1.000  H
  C693     1.0000 0.03590  0.56950  0.15620  Biso   1.000  C
  H345     1.0000 0.08940  0.63390  0.12340  Biso   1.000  H
  C694     1.0000 0.98930  0.49020  0.16644  Biso   1.000  C
  H346     1.0000 0.93260  0.36700  0.15780  Biso   1.000  H
  H347     1.0000 0.05290  0.61670  0.16690  Biso   1.000  H
  C695     1.0000 0.95810  0.46430  0.19479  Biso   1.000  C
  C696     1.0000 0.94030  0.39240  0.20800  Biso   1.000  C
  C697     1.0000 0.94420  0.52360  0.20640  Biso   1.000  C
  C698     1.0000 0.90880  0.37980  0.23280  Biso   1.000  C
  H348     1.0000 0.94980  0.35190  0.20010  Biso   1.000  H
  C699     1.0000 0.91270  0.51100  0.23120  Biso   1.000  C
  H349     1.0000 0.95640  0.57280  0.19740  Biso   1.000  H
  C700     1.0000 0.89490  0.43910  0.24440  Biso   1.000  C
  H350     1.0000 0.87340  0.43050  0.26140  Biso   1.000  H
  Cu51     1.0000 0.17870  0.38070  0.90956  Biso   1.000  Cu
  Cu52     1.0000 0.13220  0.28690  0.95110  Biso   1.000  Cu
  O251     1.0000 0.21300  0.45600  0.87450  Biso   1.000  O
  O252     1.0000 0.09410  0.21730  0.98480  Biso   1.000  O
  O253     1.0000 0.24260  0.36770  0.96420  Biso   1.000  O
  O254     1.0000 0.28200  0.44750  0.92930  Biso   1.000  O
  C701     1.0000 0.28850  0.43080  0.95130  Biso   1.000  C
  C702     1.0000 0.36360  0.49790  0.96530  Biso   1.000  C
  C703     1.0000 0.42660  0.56520  0.95229  Biso   1.000  C
  H351     1.0000 0.42310  0.56970  0.93420  Biso   1.000  H
  C704     1.0000 0.49460  0.62550  0.96570  Biso   1.000  C
  C705     1.0000 0.49960  0.61870  0.99210  Biso   1.000  C
  H352     1.0000 0.54610  0.66000  0.00130  Biso   1.000  H
  C706     1.0000 0.43670  0.55160  0.00515  Biso   1.000  C
  C707     1.0000 0.36860  0.49110  0.99170  Biso   1.000  C
  H353     1.0000 0.32560  0.44520  0.00060  Biso   1.000  H
  C708     1.0000 0.56220  0.70230  0.95250  Biso   1.000  C
  O255     1.0000 0.54860  0.70610  0.92970  Biso   1.000  O
  O256     1.0000 0.62330  0.74990  0.96680  Biso   1.000  O
  C709     1.0000 0.44280  0.54350  0.03508  Biso   1.000  C
  C710     1.0000 0.51020  0.60340  0.04884  Biso   1.000  C
  H354     1.0000 0.55340  0.64980  0.04020  Biso   1.000  H
  C711     1.0000 0.51430  0.59530  0.07524  Biso   1.000  C
  H355     1.0000 0.56040  0.63620  0.08460  Biso   1.000  H
  C712     1.0000 0.45110  0.52730  0.08790  Biso   1.000  C
  C713     1.0000 0.38370  0.46740  0.07414  Biso   1.000  C
  H356     1.0000 0.34040  0.42080  0.08280  Biso   1.000  H
  C714     1.0000 0.37950  0.47540  0.04773  Biso   1.000  C
  H357     1.0000 0.33340  0.43440  0.03830  Biso   1.000  H
  C715     1.0000 0.46780  0.51910  0.11587  Biso   1.000  C
  C716     1.0000 0.50340  0.58570  0.13280  Biso   1.000  C
  H358     1.0000 0.51850  0.63980  0.12690  Biso   1.000  H
  C717     1.0000 0.51670  0.57310  0.15823  Biso   1.000  C
  H359     1.0000 0.54110  0.61870  0.16980  Biso   1.000  H
  C718     1.0000 0.49460  0.49400  0.16677  Biso   1.000  C
  C719     1.0000 0.45900  0.42730  0.14990  Biso   1.000  C
  H360     1.0000 0.44380  0.37320  0.15570  Biso   1.000  H
  C720     1.0000 0.44560  0.43990  0.12441  Biso   1.000  C
  H361     1.0000 0.42120  0.39420  0.11280  Biso   1.000  H
  C721     1.0000 0.50470  0.46750  0.19463  Biso   1.000  C
  C722     1.0000 0.45190  0.39360  0.20720  Biso   1.000  C
  H362     1.0000 0.40190  0.35360  0.19910  Biso   1.000  H
  C723     1.0000 0.47230  0.37820  0.23140  Biso   1.000  C
  C724     1.0000 0.54550  0.43680  0.24320  Biso   1.000  C
  H363     1.0000 0.55940  0.42620  0.25970  Biso   1.000  H
  C725     1.0000 0.59830  0.51070  0.23060  Biso   1.000  C
  C726     1.0000 0.57790  0.52610  0.20640  Biso   1.000  C
  H364     1.0000 0.61400  0.57660  0.19780  Biso   1.000  H
  C727     1.0000 0.41820  0.29540  0.24430  Biso   1.000  C
  O257     1.0000 0.36020  0.24530  0.23040  Biso   1.000  O
  O258     1.0000 0.43880  0.28200  0.26590  Biso   1.000  O
  C728     1.0000 0.67530  0.56910  0.24350  Biso   1.000  C
  O259     1.0000 0.69160  0.55630  0.26650  Biso   1.000  O
  O260     1.0000 0.73150  0.63190  0.23070  Biso   1.000  O
  Cu53     1.0000 0.80017  0.17973  0.28403  Biso   1.000  Cu
  O261     1.0000 0.51467  0.61823  0.60043  Biso   1.000  O
  Cu54     1.0000 0.84587  0.13153  0.24218  Biso   1.000  Cu
  O262     1.0000 0.75777  0.21273  0.31643  Biso   1.000  O
  O263     1.0000 0.76187  0.06653  0.29563  Biso   1.000  O
  O264     1.0000 0.77147  0.68963  0.29493  Biso   1.000  O
  O265     1.0000 0.52947  0.88773  0.60023  Biso   1.000  O
  C729     1.0000 0.54847  0.63293  0.57833  Biso   1.000  C
  O266     1.0000 0.55097  0.57733  0.56403  Biso   1.000  O
  O267     1.0000 0.88267  0.09833  0.20633  Biso   1.000  O
  O268     1.0000 0.80207  0.02803  0.26143  Biso   1.000  O
  O269     1.0000 0.79927  0.76623  0.26033  Biso   1.000  O
  O270     1.0000 0.56907  0.96583  0.56523  Biso   1.000  O
  C730     1.0000 0.78237  0.02153  0.28373  Biso   1.000  C
  C731     1.0000 0.78357  0.75533  0.28313  Biso   1.000  C
  C732     1.0000 0.55897  0.90503  0.57753  Biso   1.000  C
  C733     1.0000 0.77407  0.94773  0.29813  Biso   1.000  C
  C734     1.0000 0.76167  0.94063  0.32453  Biso   1.000  C
  C735     1.0000 0.78057  0.88673  0.28468  Biso   1.000  C
  C736     1.0000 0.75577  0.87253  0.33749  Biso   1.000  C
  H365     1.0000 0.75727  0.98233  0.33373  Biso   1.000  H
  C737     1.0000 0.77467  0.81863  0.29763  Biso   1.000  C
  H366     1.0000 0.78907  0.89163  0.26663  Biso   1.000  H
  C738     1.0000 0.73847  0.86203  0.36704  Biso   1.000  C
  C739     1.0000 0.76227  0.81163  0.32403  Biso   1.000  C
  C740     1.0000 0.73357  0.92343  0.38078  Biso   1.000  C
  C741     1.0000 0.73417  0.79443  0.37983  Biso   1.000  C
  H367     1.0000 0.75827  0.76503  0.33283  Biso   1.000  H
  C742     1.0000 0.72447  0.91733  0.40731  Biso   1.000  C
  H368     1.0000 0.73647  0.96963  0.37203  Biso   1.000  H
  H369     1.0000 0.73747  0.75243  0.37043  Biso   1.000  H
  C743     1.0000 0.72507  0.78833  0.40636  Biso   1.000  C
  H370     1.0000 0.72117  0.95933  0.41673  Biso   1.000  H
  C744     1.0000 0.72017  0.84983  0.42010  Biso   1.000  C
  H371     1.0000 0.72217  0.74213  0.41513  Biso   1.000  H
  C745     1.0000 0.69937  0.84403  0.44811  Biso   1.000  C
  C746     1.0000 0.65277  0.76473  0.45832  Biso   1.000  C
  C747     1.0000 0.72427  0.91303  0.46373  Biso   1.000  C
  C748     1.0000 0.63107  0.75453  0.48415  Biso   1.000  C
  H372     1.0000 0.63577  0.71753  0.44763  Biso   1.000  H
  C749     1.0000 0.70257  0.90283  0.48953  Biso   1.000  C
  H373     1.0000 0.75607  0.96723  0.45673  Biso   1.000  H
  C750     1.0000 0.65597  0.82353  0.49977  Biso   1.000  C
  H374     1.0000 0.59927  0.70033  0.49113  Biso   1.000  H
  H375     1.0000 0.71957  0.95003  0.50023  Biso   1.000  H
  C751     1.0000 0.62477  0.79763  0.52812  Biso   1.000  C
  C752     1.0000 0.60697  0.72573  0.54133  Biso   1.000  C
  C753     1.0000 0.61087  0.85693  0.53973  Biso   1.000  C
  C754     1.0000 0.57547  0.71313  0.56613  Biso   1.000  C
  H376     1.0000 0.61647  0.68523  0.53343  Biso   1.000  H
  C755     1.0000 0.57937  0.84433  0.56453  Biso   1.000  C
  H377     1.0000 0.62307  0.90613  0.53073  Biso   1.000  H
  C756     1.0000 0.56157  0.77243  0.57773  Biso   1.000  C
  H378     1.0000 0.54007  0.76383  0.59473  Biso   1.000  H
  Cu55     1.0000 0.84537  0.71403  0.24289  Biso   1.000  Cu
  Cu56     1.0000 0.79887  0.62023  0.28443  Biso   1.000  Cu
  O271     1.0000 0.87967  0.78933  0.20783  Biso   1.000  O
  O272     1.0000 0.76077  0.55063  0.31813  Biso   1.000  O
  O273     1.0000 0.90927  0.70103  0.29753  Biso   1.000  O
  O274     1.0000 0.94867  0.78083  0.26263  Biso   1.000  O
  C757     1.0000 0.95517  0.76413  0.28463  Biso   1.000  C
  C758     1.0000 0.03027  0.83123  0.29863  Biso   1.000  C
  C759     1.0000 0.09327  0.89853  0.28562  Biso   1.000  C
  H379     1.0000 0.08977  0.90303  0.26753  Biso   1.000  H
  C760     1.0000 0.16127  0.95883  0.29903  Biso   1.000  C
  C761     1.0000 0.16627  0.95203  0.32543  Biso   1.000  C
  H380     1.0000 0.21277  0.99333  0.33463  Biso   1.000  H
  C762     1.0000 0.10337  0.88493  0.33848  Biso   1.000  C
  C763     1.0000 0.03527  0.82443  0.32503  Biso   1.000  C
  H381     1.0000 0.99227  0.77853  0.33393  Biso   1.000  H
  C764     1.0000 0.22887  0.03563  0.28583  Biso   1.000  C
  O275     1.0000 0.21527  0.03943  0.26303  Biso   1.000  O
  O276     1.0000 0.28997  0.08323  0.30013  Biso   1.000  O
  C765     1.0000 0.10947  0.87683  0.36841  Biso   1.000  C
  C766     1.0000 0.17687  0.93673  0.38217  Biso   1.000  C
  H382     1.0000 0.22007  0.98313  0.37353  Biso   1.000  H
  C767     1.0000 0.18097  0.92863  0.40857  Biso   1.000  C
  H383     1.0000 0.22707  0.96953  0.41793  Biso   1.000  H
  C768     1.0000 0.11777  0.86063  0.42123  Biso   1.000  C
  C769     1.0000 0.05037  0.80073  0.40747  Biso   1.000  C
  H384     1.0000 0.00707  0.75413  0.41613  Biso   1.000  H
  C770     1.0000 0.04617  0.80873  0.38106  Biso   1.000  C
  H385     1.0000 0.00007  0.76773  0.37163  Biso   1.000  H
  C771     1.0000 0.13447  0.85243  0.44920  Biso   1.000  C
  C772     1.0000 0.17007  0.91903  0.46613  Biso   1.000  C
  H386     1.0000 0.18517  0.97313  0.46023  Biso   1.000  H
  C773     1.0000 0.18337  0.90643  0.49156  Biso   1.000  C
  H387     1.0000 0.20777  0.95203  0.50313  Biso   1.000  H
  C774     1.0000 0.16127  0.82733  0.50010  Biso   1.000  C
  C775     1.0000 0.12567  0.76063  0.48323  Biso   1.000  C
  H388     1.0000 0.11047  0.70653  0.48903  Biso   1.000  H
  C776     1.0000 0.11227  0.77323  0.45774  Biso   1.000  C
  H389     1.0000 0.08787  0.72753  0.44613  Biso   1.000  H
  C777     1.0000 0.17137  0.80083  0.52796  Biso   1.000  C
  C778     1.0000 0.11857  0.72693  0.54053  Biso   1.000  C
  H390     1.0000 0.06857  0.68693  0.53243  Biso   1.000  H
  C779     1.0000 0.13897  0.71153  0.56473  Biso   1.000  C
  C780     1.0000 0.21217  0.77013  0.57653  Biso   1.000  C
  H391     1.0000 0.22607  0.75953  0.59303  Biso   1.000  H
  C781     1.0000 0.26497  0.84403  0.56393  Biso   1.000  C
  C782     1.0000 0.24457  0.85943  0.53973  Biso   1.000  C
  H392     1.0000 0.28067  0.90993  0.53113  Biso   1.000  H
  C783     1.0000 0.08487  0.62873  0.57763  Biso   1.000  C
  O277     1.0000 0.02687  0.57863  0.56373  Biso   1.000  O
  O278     1.0000 0.10547  0.61533  0.59923  Biso   1.000  O
  C784     1.0000 0.34197  0.90243  0.57683  Biso   1.000  C
  O279     1.0000 0.35827  0.88963  0.59983  Biso   1.000  O
  O280     1.0000 0.39817  0.96523  0.56403  Biso   1.000  O
  Cu57     1.0000 0.46683  0.51307  0.61737  Biso   1.000  Cu
  O281     1.0000 0.18133  0.95157  0.93377  Biso   1.000  O
  Cu58     1.0000 0.51253  0.46487  0.57552  Biso   1.000  Cu
  O282     1.0000 0.42443  0.54607  0.64977  Biso   1.000  O
  O283     1.0000 0.42853  0.39987  0.62897  Biso   1.000  O
  O284     1.0000 0.43813  0.02297  0.62827  Biso   1.000  O
  O285     1.0000 0.19613  0.22107  0.93357  Biso   1.000  O
  C785     1.0000 0.21513  0.96627  0.91167  Biso   1.000  C
  O286     1.0000 0.21763  0.91067  0.89737  Biso   1.000  O
  O287     1.0000 0.54933  0.43167  0.53967  Biso   1.000  O
  O288     1.0000 0.46873  0.36137  0.59477  Biso   1.000  O
  O289     1.0000 0.46593  0.09957  0.59367  Biso   1.000  O
  O290     1.0000 0.23573  0.29917  0.89857  Biso   1.000  O
  C786     1.0000 0.44903  0.35487  0.61707  Biso   1.000  C
  C787     1.0000 0.45023  0.08867  0.61647  Biso   1.000  C
  C788     1.0000 0.22563  0.23837  0.91087  Biso   1.000  C
  C789     1.0000 0.44073  0.28107  0.63147  Biso   1.000  C
  C790     1.0000 0.42833  0.27397  0.65787  Biso   1.000  C
  C791     1.0000 0.44723  0.22007  0.61802  Biso   1.000  C
  C792     1.0000 0.42243  0.20587  0.67083  Biso   1.000  C
  H393     1.0000 0.42393  0.31567  0.66707  Biso   1.000  H
  C793     1.0000 0.44133  0.15197  0.63097  Biso   1.000  C
  H394     1.0000 0.45573  0.22497  0.59997  Biso   1.000  H
  C794     1.0000 0.40513  0.19537  0.70038  Biso   1.000  C
  C795     1.0000 0.42893  0.14497  0.65737  Biso   1.000  C
  C796     1.0000 0.40023  0.25677  0.71412  Biso   1.000  C
  C797     1.0000 0.40083  0.12777  0.71317  Biso   1.000  C
  H395     1.0000 0.42493  0.09837  0.66617  Biso   1.000  H
  C798     1.0000 0.39113  0.25067  0.74065  Biso   1.000  C
  H396     1.0000 0.40313  0.30297  0.70537  Biso   1.000  H
  H397     1.0000 0.40413  0.08577  0.70377  Biso   1.000  H
  C799     1.0000 0.39173  0.12167  0.73970  Biso   1.000  C
  H398     1.0000 0.38783  0.29267  0.75007  Biso   1.000  H
  C800     1.0000 0.38683  0.18317  0.75344  Biso   1.000  C
  H399     1.0000 0.38883  0.07547  0.74847  Biso   1.000  H
  C801     1.0000 0.36603  0.17737  0.78145  Biso   1.000  C
  C802     1.0000 0.31943  0.09807  0.79166  Biso   1.000  C
  C803     1.0000 0.39093  0.24637  0.79707  Biso   1.000  C
  C804     1.0000 0.29773  0.08787  0.81749  Biso   1.000  C
  H400     1.0000 0.30243  0.05087  0.78097  Biso   1.000  H
  C805     1.0000 0.36923  0.23617  0.82287  Biso   1.000  C
  H401     1.0000 0.42273  0.30057  0.79007  Biso   1.000  H
  C806     1.0000 0.32263  0.15687  0.83311  Biso   1.000  C
  H402     1.0000 0.26593  0.03367  0.82447  Biso   1.000  H
  H403     1.0000 0.38623  0.28337  0.83357  Biso   1.000  H
  C807     1.0000 0.29143  0.13097  0.86146  Biso   1.000  C
  C808     1.0000 0.27363  0.05907  0.87467  Biso   1.000  C
  C809     1.0000 0.27753  0.19027  0.87307  Biso   1.000  C
  C810     1.0000 0.24213  0.04647  0.89947  Biso   1.000  C
  H404     1.0000 0.28313  0.01857  0.86677  Biso   1.000  H
  C811     1.0000 0.24603  0.17767  0.89787  Biso   1.000  C
  H405     1.0000 0.28973  0.23947  0.86407  Biso   1.000  H
  C812     1.0000 0.22823  0.10577  0.91107  Biso   1.000  C
  H406     1.0000 0.20673  0.09717  0.92807  Biso   1.000  H
  Cu59     1.0000 0.51203  0.04737  0.57623  Biso   1.000  Cu
  Cu60     1.0000 0.46553  0.95357  0.61777  Biso   1.000  Cu
  O291     1.0000 0.54633  0.12267  0.54117  Biso   1.000  O
  O292     1.0000 0.42743  0.88397  0.65147  Biso   1.000  O
  O293     1.0000 0.57593  0.03437  0.63087  Biso   1.000  O
  O294     1.0000 0.61533  0.11417  0.59597  Biso   1.000  O
  C813     1.0000 0.62183  0.09747  0.61797  Biso   1.000  C
  C814     1.0000 0.69693  0.16457  0.63197  Biso   1.000  C
  C815     1.0000 0.75993  0.23187  0.61896  Biso   1.000  C
  H407     1.0000 0.75643  0.23637  0.60087  Biso   1.000  H
  C816     1.0000 0.82793  0.29217  0.63237  Biso   1.000  C
  C817     1.0000 0.83293  0.28537  0.65877  Biso   1.000  C
  H408     1.0000 0.87943  0.32667  0.66797  Biso   1.000  H
  C818     1.0000 0.77003  0.21827  0.67182  Biso   1.000  C
  C819     1.0000 0.70193  0.15777  0.65837  Biso   1.000  C
  H409     1.0000 0.65893  0.11187  0.66727  Biso   1.000  H
  C820     1.0000 0.89553  0.36897  0.61917  Biso   1.000  C
  O295     1.0000 0.88193  0.37277  0.59637  Biso   1.000  O
  O296     1.0000 0.95663  0.41657  0.63347  Biso   1.000  O
  C821     1.0000 0.77613  0.21017  0.70175  Biso   1.000  C
  C822     1.0000 0.84353  0.27007  0.71551  Biso   1.000  C
  H410     1.0000 0.88673  0.31647  0.70687  Biso   1.000  H
  C823     1.0000 0.84763  0.26197  0.74191  Biso   1.000  C
  H411     1.0000 0.89373  0.30287  0.75127  Biso   1.000  H
  C824     1.0000 0.78443  0.19397  0.75457  Biso   1.000  C
  C825     1.0000 0.71703  0.13407  0.74081  Biso   1.000  C
  H412     1.0000 0.67373  0.08747  0.74947  Biso   1.000  H
  C826     1.0000 0.71283  0.14207  0.71440  Biso   1.000  C
  H413     1.0000 0.66673  0.10107  0.70497  Biso   1.000  H
  C827     1.0000 0.80113  0.18577  0.78254  Biso   1.000  C
  C828     1.0000 0.83673  0.25237  0.79947  Biso   1.000  C
  H414     1.0000 0.85183  0.30647  0.79357  Biso   1.000  H
  C829     1.0000 0.85003  0.23977  0.82490  Biso   1.000  C
  H415     1.0000 0.87443  0.28537  0.83647  Biso   1.000  H
  C830     1.0000 0.82793  0.16067  0.83344  Biso   1.000  C
  C831     1.0000 0.79233  0.09397  0.81657  Biso   1.000  C
  H416     1.0000 0.77713  0.03987  0.82237  Biso   1.000  H
  C832     1.0000 0.77893  0.10657  0.79108  Biso   1.000  C
  H417     1.0000 0.75453  0.06087  0.77947  Biso   1.000  H
  C833     1.0000 0.83803  0.13417  0.86130  Biso   1.000  C
  C834     1.0000 0.78523  0.06027  0.87387  Biso   1.000  C
  H418     1.0000 0.73523  0.02027  0.86577  Biso   1.000  H
  C835     1.0000 0.80563  0.04487  0.89807  Biso   1.000  C
  C836     1.0000 0.87883  0.10347  0.90987  Biso   1.000  C
  H419     1.0000 0.89273  0.09287  0.92637  Biso   1.000  H
  C837     1.0000 0.93163  0.17737  0.89727  Biso   1.000  C
  C838     1.0000 0.91123  0.19277  0.87307  Biso   1.000  C
  H420     1.0000 0.94733  0.24327  0.86447  Biso   1.000  H
  C839     1.0000 0.75153  0.96207  0.91097  Biso   1.000  C
  O297     1.0000 0.69353  0.91197  0.89707  Biso   1.000  O
  O298     1.0000 0.77213  0.94867  0.93257  Biso   1.000  O
  C840     1.0000 0.00863  0.23577  0.91017  Biso   1.000  C
  O299     1.0000 0.02493  0.22297  0.93317  Biso   1.000  O
  O300     1.0000 0.06483  0.29857  0.89737  Biso   1.000  O
  Cu61     1.0000 0.15360  0.28710  0.95070  Biso   1.000  Cu
  O301     1.0000 0.71510  0.56310  0.26710  Biso   1.000  O
  Cu62     1.0000 0.20180  0.38100  0.90885  Biso   1.000  Cu
  O302     1.0000 0.12060  0.21170  0.98310  Biso   1.000  O
  O303     1.0000 0.26680  0.36200  0.96230  Biso   1.000  O
  O304     1.0000 0.64370  0.74850  0.96160  Biso   1.000  O
  O305     1.0000 0.44560  0.30840  0.26690  Biso   1.000  O
  C841     1.0000 0.70040  0.58220  0.24500  Biso   1.000  C
  O306     1.0000 0.75600  0.64030  0.23070  Biso   1.000  O
  O307     1.0000 0.23500  0.45100  0.87300  Biso   1.000  O
  O308     1.0000 0.30530  0.44070  0.92810  Biso   1.000  O
  O309     1.0000 0.56710  0.69970  0.92700  Biso   1.000  O
  O310     1.0000 0.36750  0.26990  0.23190  Biso   1.000  O
  C842     1.0000 0.31180  0.42750  0.95040  Biso   1.000  C
  C843     1.0000 0.57800  0.69490  0.94980  Biso   1.000  C
  C844     1.0000 0.42830  0.32060  0.24420  Biso   1.000  C
  C845     1.0000 0.38560  0.49300  0.96480  Biso   1.000  C
  C846     1.0000 0.39270  0.48770  0.99120  Biso   1.000  C
  C847     1.0000 0.44660  0.56050  0.95135  Biso   1.000  C
  C848     1.0000 0.46080  0.54990  0.00416  Biso   1.000  C
  H421     1.0000 0.35100  0.44160  0.00040  Biso   1.000  H
  C849     1.0000 0.51470  0.62270  0.96430  Biso   1.000  C
  H422     1.0000 0.44170  0.56410  0.93330  Biso   1.000  H
  C850     1.0000 0.47130  0.54310  0.03371  Biso   1.000  C
  C851     1.0000 0.52170  0.61730  0.99070  Biso   1.000  C
  C852     1.0000 0.40990  0.47680  0.04745  Biso   1.000  C
  C853     1.0000 0.53890  0.60640  0.04650  Biso   1.000  C
  H423     1.0000 0.56830  0.65990  0.99950  Biso   1.000  H
  C854     1.0000 0.41600  0.47380  0.07398  Biso   1.000  C
  H424     1.0000 0.36370  0.43350  0.03870  Biso   1.000  H
  H425     1.0000 0.58090  0.65170  0.03710  Biso   1.000  H
  C855     1.0000 0.54500  0.60340  0.07303  Biso   1.000  C
  H426     1.0000 0.37400  0.42850  0.08340  Biso   1.000  H
  C856     1.0000 0.48350  0.53700  0.08677  Biso   1.000  C
  H427     1.0000 0.59120  0.64670  0.08180  Biso   1.000  H
  C857     1.0000 0.48930  0.52200  0.11478  Biso   1.000  C
  C858     1.0000 0.56860  0.55470  0.12499  Biso   1.000  C
  C859     1.0000 0.42030  0.47790  0.13040  Biso   1.000  C
  C860     1.0000 0.57880  0.54320  0.15082  Biso   1.000  C
  H428     1.0000 0.61580  0.58490  0.11430  Biso   1.000  H
  C861     1.0000 0.43050  0.46640  0.15620  Biso   1.000  C
  H429     1.0000 0.36610  0.45550  0.12340  Biso   1.000  H
  C862     1.0000 0.50980  0.49910  0.16644  Biso   1.000  C
  H430     1.0000 0.63300  0.56560  0.15780  Biso   1.000  H
  H431     1.0000 0.38330  0.43620  0.16690  Biso   1.000  H
  C863     1.0000 0.53570  0.49380  0.19479  Biso   1.000  C
  C864     1.0000 0.60760  0.54790  0.20800  Biso   1.000  C
  C865     1.0000 0.47640  0.42060  0.20640  Biso   1.000  C
  C866     1.0000 0.62020  0.52900  0.23280  Biso   1.000  C
  H432     1.0000 0.64810  0.59790  0.20010  Biso   1.000  H
  C867     1.0000 0.48900  0.40170  0.23120  Biso   1.000  C
  H433     1.0000 0.42720  0.38360  0.19740  Biso   1.000  H
  C868     1.0000 0.56090  0.45580  0.24440  Biso   1.000  C
  H434     1.0000 0.56950  0.44290  0.26140  Biso   1.000  H
  Cu63     1.0000 0.61930  0.79800  0.90956  Biso   1.000  Cu
  Cu64     1.0000 0.71310  0.84530  0.95110  Biso   1.000  Cu
  O311     1.0000 0.54400  0.75700  0.87450  Biso   1.000  O
  O312     1.0000 0.78270  0.87680  0.98480  Biso   1.000  O
  O313     1.0000 0.63230  0.87490  0.96420  Biso   1.000  O
  O314     1.0000 0.55250  0.83450  0.92930  Biso   1.000  O
  C869     1.0000 0.56920  0.85770  0.95130  Biso   1.000  C
  C870     1.0000 0.50210  0.86570  0.96530  Biso   1.000  C
  C871     1.0000 0.43480  0.86140  0.95229  Biso   1.000  C
  H435     1.0000 0.43030  0.85340  0.93420  Biso   1.000  H
  C872     1.0000 0.37450  0.86910  0.96570  Biso   1.000  C
  C873     1.0000 0.38130  0.88090  0.99210  Biso   1.000  C
  H436     1.0000 0.34000  0.88610  0.00130  Biso   1.000  H
  C874     1.0000 0.44840  0.88510  0.00515  Biso   1.000  C
  C875     1.0000 0.50890  0.87750  0.99170  Biso   1.000  C
  H437     1.0000 0.55480  0.88040  0.00060  Biso   1.000  H
  C876     1.0000 0.29770  0.85990  0.95250  Biso   1.000  C
  O315     1.0000 0.29390  0.84250  0.92970  Biso   1.000  O
  O316     1.0000 0.25010  0.87340  0.96680  Biso   1.000  O
  C877     1.0000 0.45650  0.89930  0.03508  Biso   1.000  C
  C878     1.0000 0.39660  0.90680  0.04884  Biso   1.000  C
  H438     1.0000 0.35020  0.90360  0.04020  Biso   1.000  H
  C879     1.0000 0.40470  0.91900  0.07524  Biso   1.000  C
  H439     1.0000 0.36380  0.92420  0.08460  Biso   1.000  H
  C880     1.0000 0.47270  0.92380  0.08790  Biso   1.000  C
  C881     1.0000 0.53260  0.91630  0.07414  Biso   1.000  C
  H440     1.0000 0.57920  0.91960  0.08280  Biso   1.000  H
  C882     1.0000 0.52460  0.90410  0.04773  Biso   1.000  C
  H441     1.0000 0.56560  0.89900  0.03830  Biso   1.000  H
  C883     1.0000 0.48090  0.94870  0.11587  Biso   1.000  C
  C884     1.0000 0.41430  0.91770  0.13280  Biso   1.000  C
  H442     1.0000 0.36020  0.87870  0.12690  Biso   1.000  H
  C885     1.0000 0.42690  0.94360  0.15823  Biso   1.000  C
  H443     1.0000 0.38130  0.92240  0.16980  Biso   1.000  H
  C886     1.0000 0.50600  0.00060  0.16677  Biso   1.000  C
  C887     1.0000 0.57270  0.03170  0.14990  Biso   1.000  C
  H444     1.0000 0.62680  0.07060  0.15570  Biso   1.000  H
  C888     1.0000 0.56010  0.00570  0.12441  Biso   1.000  C
  H445     1.0000 0.60580  0.02700  0.11280  Biso   1.000  H
  C889     1.0000 0.53250  0.03720  0.19463  Biso   1.000  C
  C890     1.0000 0.60640  0.05830  0.20720  Biso   1.000  C
  H446     1.0000 0.64640  0.04830  0.19910  Biso   1.000  H
  C891     1.0000 0.62180  0.09410  0.23140  Biso   1.000  C
  C892     1.0000 0.56320  0.10870  0.24320  Biso   1.000  C
  H447     1.0000 0.57380  0.13320  0.25970  Biso   1.000  H
  C893     1.0000 0.48930  0.08760  0.23060  Biso   1.000  C
  C894     1.0000 0.47390  0.05180  0.20640  Biso   1.000  C
  H448     1.0000 0.42340  0.03740  0.19780  Biso   1.000  H
  C895     1.0000 0.70460  0.12280  0.24430  Biso   1.000  C
  O317     1.0000 0.75470  0.11490  0.23040  Biso   1.000  O
  O318     1.0000 0.71800  0.15680  0.26590  Biso   1.000  O
  C896     1.0000 0.43090  0.10620  0.24350  Biso   1.000  C
  O319     1.0000 0.44370  0.13530  0.26650  Biso   1.000  O
  O320     1.0000 0.36810  0.09960  0.23070  Biso   1.000  O
  Cu65     1.0000 0.82027  0.62043  0.28403  Biso   1.000  Cu
  O321     1.0000 0.38177  0.89643  0.60043  Biso   1.000  O
  Cu66     1.0000 0.86847  0.71433  0.24218  Biso   1.000  Cu
  O322     1.0000 0.78727  0.54503  0.31643  Biso   1.000  O
  O323     1.0000 0.93347  0.69533  0.29563  Biso   1.000  O
  O324     1.0000 0.31037  0.08183  0.29493  Biso   1.000  O
  O325     1.0000 0.11227  0.64173  0.60023  Biso   1.000  O
  C897     1.0000 0.36707  0.91553  0.57833  Biso   1.000  C
  O326     1.0000 0.42267  0.97363  0.56403  Biso   1.000  O
  O327     1.0000 0.90167  0.78433  0.20633  Biso   1.000  O
  O328     1.0000 0.97197  0.77403  0.26143  Biso   1.000  O
  O329     1.0000 0.23377  0.03303  0.26033  Biso   1.000  O
  O330     1.0000 0.03417  0.60323  0.56523  Biso   1.000  O
  C898     1.0000 0.97847  0.76083  0.28373  Biso   1.000  C
  C899     1.0000 0.24467  0.02823  0.28313  Biso   1.000  C
  C900     1.0000 0.09497  0.65393  0.57753  Biso   1.000  C
  C901     1.0000 0.05227  0.82633  0.29813  Biso   1.000  C
  C902     1.0000 0.05937  0.82103  0.32453  Biso   1.000  C
  C903     1.0000 0.11327  0.89383  0.28468  Biso   1.000  C
  C904     1.0000 0.12747  0.88323  0.33749  Biso   1.000  C
  H449     1.0000 0.01767  0.77493  0.33373  Biso   1.000  H
  C905     1.0000 0.18137  0.95603  0.29763  Biso   1.000  C
  H450     1.0000 0.10837  0.89743  0.26663  Biso   1.000  H
  C906     1.0000 0.13797  0.87643  0.36704  Biso   1.000  C
  C907     1.0000 0.18837  0.95063  0.32403  Biso   1.000  C
  C908     1.0000 0.07657  0.81013  0.38078  Biso   1.000  C
  C909     1.0000 0.20557  0.93973  0.37983  Biso   1.000  C
  H451     1.0000 0.23497  0.99323  0.33283  Biso   1.000  H
  C910     1.0000 0.08267  0.80713  0.40731  Biso   1.000  C
  H452     1.0000 0.03037  0.76683  0.37203  Biso   1.000  H
  H453     1.0000 0.24757  0.98503  0.37043  Biso   1.000  H
  C911     1.0000 0.21167  0.93673  0.40636  Biso   1.000  C
  H454     1.0000 0.04067  0.76183  0.41673  Biso   1.000  H
  C912     1.0000 0.15017  0.87033  0.42010  Biso   1.000  C
  H455     1.0000 0.25787  0.98003  0.41513  Biso   1.000  H
  C913     1.0000 0.15597  0.85533  0.44811  Biso   1.000  C
  C914     1.0000 0.23527  0.88803  0.45832  Biso   1.000  C
  C915     1.0000 0.08697  0.81123  0.46373  Biso   1.000  C
  C916     1.0000 0.24547  0.87653  0.48415  Biso   1.000  C
  H456     1.0000 0.28247  0.91823  0.44763  Biso   1.000  H
  C917     1.0000 0.09717  0.79973  0.48953  Biso   1.000  C
  H457     1.0000 0.03277  0.78883  0.45673  Biso   1.000  H
  C918     1.0000 0.17647  0.83243  0.49977  Biso   1.000  C
  H458     1.0000 0.29967  0.89893  0.49113  Biso   1.000  H
  H459     1.0000 0.04997  0.76953  0.50023  Biso   1.000  H
  C919     1.0000 0.20237  0.82713  0.52812  Biso   1.000  C
  C920     1.0000 0.27427  0.88123  0.54133  Biso   1.000  C
  C921     1.0000 0.14307  0.75393  0.53973  Biso   1.000  C
  C922     1.0000 0.28687  0.86233  0.56613  Biso   1.000  C
  H460     1.0000 0.31477  0.93123  0.53343  Biso   1.000  H
  C923     1.0000 0.15567  0.73503  0.56453  Biso   1.000  C
  H461     1.0000 0.09387  0.71693  0.53073  Biso   1.000  H
  C924     1.0000 0.22757  0.78913  0.57773  Biso   1.000  C
  H462     1.0000 0.23617  0.77623  0.59473  Biso   1.000  H
  Cu67     1.0000 0.28597  0.13133  0.24289  Biso   1.000  Cu
  Cu68     1.0000 0.37977  0.17863  0.28443  Biso   1.000  Cu
  O331     1.0000 0.21067  0.09033  0.20783  Biso   1.000  O
  O332     1.0000 0.44937  0.21013  0.31813  Biso   1.000  O
  O333     1.0000 0.29897  0.20823  0.29753  Biso   1.000  O
  O334     1.0000 0.21917  0.16783  0.26263  Biso   1.000  O
  C925     1.0000 0.23587  0.19103  0.28463  Biso   1.000  C
  C926     1.0000 0.16877  0.19903  0.29863  Biso   1.000  C
  C927     1.0000 0.10147  0.19473  0.28562  Biso   1.000  C
  H463     1.0000 0.09697  0.18673  0.26753  Biso   1.000  H
  C928     1.0000 0.04117  0.20243  0.29903  Biso   1.000  C
  C929     1.0000 0.04797  0.21423  0.32543  Biso   1.000  C
  H464     1.0000 0.00667  0.21943  0.33463  Biso   1.000  H
  C930     1.0000 0.11507  0.21843  0.33848  Biso   1.000  C
  C931     1.0000 0.17557  0.21083  0.32503  Biso   1.000  C
  H465     1.0000 0.22147  0.21373  0.33393  Biso   1.000  H
  C932     1.0000 0.96437  0.19323  0.28583  Biso   1.000  C
  O335     1.0000 0.96057  0.17583  0.26303  Biso   1.000  O
  O336     1.0000 0.91677  0.20673  0.30013  Biso   1.000  O
  C933     1.0000 0.12317  0.23263  0.36841  Biso   1.000  C
  C934     1.0000 0.06327  0.24013  0.38217  Biso   1.000  C
  H466     1.0000 0.01687  0.23693  0.37353  Biso   1.000  H
  C935     1.0000 0.07137  0.25233  0.40857  Biso   1.000  C
  H467     1.0000 0.03047  0.25753  0.41793  Biso   1.000  H
  C936     1.0000 0.13937  0.25713  0.42123  Biso   1.000  C
  C937     1.0000 0.19927  0.24963  0.40747  Biso   1.000  C
  H468     1.0000 0.24587  0.25293  0.41613  Biso   1.000  H
  C938     1.0000 0.19127  0.23743  0.38106  Biso   1.000  C
  H469     1.0000 0.23227  0.23233  0.37163  Biso   1.000  H
  C939     1.0000 0.14757  0.28203  0.44920  Biso   1.000  C
  C940     1.0000 0.08097  0.25103  0.46613  Biso   1.000  C
  H470     1.0000 0.02687  0.21203  0.46023  Biso   1.000  H
  C941     1.0000 0.09357  0.27693  0.49156  Biso   1.000  C
  H471     1.0000 0.04797  0.25573  0.50313  Biso   1.000  H
  C942     1.0000 0.17267  0.33393  0.50010  Biso   1.000  C
  C943     1.0000 0.23937  0.36503  0.48323  Biso   1.000  C
  H472     1.0000 0.29347  0.40393  0.48903  Biso   1.000  H
  C944     1.0000 0.22677  0.33903  0.45774  Biso   1.000  C
  H473     1.0000 0.27247  0.36033  0.44613  Biso   1.000  H
  C945     1.0000 0.19917  0.37053  0.52796  Biso   1.000  C
  C946     1.0000 0.27307  0.39163  0.54053  Biso   1.000  C
  H474     1.0000 0.31307  0.38163  0.53243  Biso   1.000  H
  C947     1.0000 0.28847  0.42743  0.56473  Biso   1.000  C
  C948     1.0000 0.22987  0.44203  0.57653  Biso   1.000  C
  H475     1.0000 0.24047  0.46653  0.59303  Biso   1.000  H
  C949     1.0000 0.15597  0.42093  0.56393  Biso   1.000  C
  C950     1.0000 0.14057  0.38513  0.53973  Biso   1.000  C
  H476     1.0000 0.09007  0.37073  0.53113  Biso   1.000  H
  C951     1.0000 0.37127  0.45613  0.57763  Biso   1.000  C
  O337     1.0000 0.42137  0.44823  0.56373  Biso   1.000  O
  O338     1.0000 0.38467  0.49013  0.59923  Biso   1.000  O
  C952     1.0000 0.09757  0.43953  0.57683  Biso   1.000  C
  O339     1.0000 0.11037  0.46863  0.59983  Biso   1.000  O
  O340     1.0000 0.03477  0.43293  0.56403  Biso   1.000  O
  Cu69     1.0000 0.48693  0.95377  0.61737  Biso   1.000  Cu
  O341     1.0000 0.04843  0.22977  0.93377  Biso   1.000  O
  Cu70     1.0000 0.53513  0.04767  0.57552  Biso   1.000  Cu
  O342     1.0000 0.45393  0.87837  0.64977  Biso   1.000  O
  O343     1.0000 0.60013  0.02867  0.62897  Biso   1.000  O
  O344     1.0000 0.97703  0.41517  0.62827  Biso   1.000  O
  O345     1.0000 0.77893  0.97507  0.93357  Biso   1.000  O
  C953     1.0000 0.03373  0.24887  0.91167  Biso   1.000  C
  O346     1.0000 0.08933  0.30697  0.89737  Biso   1.000  O
  O347     1.0000 0.56833  0.11767  0.53967  Biso   1.000  O
  O348     1.0000 0.63863  0.10737  0.59477  Biso   1.000  O
  O349     1.0000 0.90043  0.36637  0.59367  Biso   1.000  O
  O350     1.0000 0.70083  0.93657  0.89857  Biso   1.000  O
  C954     1.0000 0.64513  0.09417  0.61707  Biso   1.000  C
  C955     1.0000 0.91133  0.36157  0.61647  Biso   1.000  C
  C956     1.0000 0.76163  0.98727  0.91087  Biso   1.000  C
  C957     1.0000 0.71893  0.15967  0.63147  Biso   1.000  C
  C958     1.0000 0.72603  0.15437  0.65787  Biso   1.000  C
  C959     1.0000 0.77993  0.22717  0.61802  Biso   1.000  C
  C960     1.0000 0.79413  0.21657  0.67083  Biso   1.000  C
  H477     1.0000 0.68433  0.10827  0.66707  Biso   1.000  H
  C961     1.0000 0.84803  0.28937  0.63097  Biso   1.000  C
  H478     1.0000 0.77503  0.23077  0.59997  Biso   1.000  H
  C962     1.0000 0.80463  0.20977  0.70038  Biso   1.000  C
  C963     1.0000 0.85503  0.28397  0.65737  Biso   1.000  C
  C964     1.0000 0.74323  0.14347  0.71412  Biso   1.000  C
  C965     1.0000 0.87223  0.27307  0.71317  Biso   1.000  C
  H479     1.0000 0.90163  0.32657  0.66617  Biso   1.000  H
  C966     1.0000 0.74933  0.14047  0.74065  Biso   1.000  C
  H480     1.0000 0.69703  0.10017  0.70537  Biso   1.000  H
  H481     1.0000 0.91423  0.31837  0.70377  Biso   1.000  H
  C967     1.0000 0.87833  0.27007  0.73970  Biso   1.000  C
  H482     1.0000 0.70733  0.09517  0.75007  Biso   1.000  H
  C968     1.0000 0.81683  0.20367  0.75344  Biso   1.000  C
  H483     1.0000 0.92453  0.31337  0.74847  Biso   1.000  H
  C969     1.0000 0.82263  0.18867  0.78145  Biso   1.000  C
  C970     1.0000 0.90193  0.22137  0.79166  Biso   1.000  C
  C971     1.0000 0.75363  0.14457  0.79707  Biso   1.000  C
  C972     1.0000 0.91213  0.20987  0.81749  Biso   1.000  C
  H484     1.0000 0.94913  0.25157  0.78097  Biso   1.000  H
  C973     1.0000 0.76383  0.13307  0.82287  Biso   1.000  C
  H485     1.0000 0.69943  0.12217  0.79007  Biso   1.000  H
  C974     1.0000 0.84313  0.16577  0.83311  Biso   1.000  C
  H486     1.0000 0.96633  0.23227  0.82447  Biso   1.000  H
  H487     1.0000 0.71663  0.10287  0.83357  Biso   1.000  H
  C975     1.0000 0.86903  0.16047  0.86146  Biso   1.000  C
  C976     1.0000 0.94093  0.21457  0.87467  Biso   1.000  C
  C977     1.0000 0.80973  0.08727  0.87307  Biso   1.000  C
  C978     1.0000 0.95353  0.19567  0.89947  Biso   1.000  C
  H488     1.0000 0.98143  0.26457  0.86677  Biso   1.000  H
  C979     1.0000 0.82233  0.06837  0.89787  Biso   1.000  C
  H489     1.0000 0.76053  0.05027  0.86407  Biso   1.000  H
  C980     1.0000 0.89423  0.12247  0.91107  Biso   1.000  C
  H490     1.0000 0.90283  0.10957  0.92807  Biso   1.000  H
  Cu71     1.0000 0.95263  0.46467  0.57623  Biso   1.000  Cu
  Cu72     1.0000 0.04643  0.51197  0.61777  Biso   1.000  Cu
  O351     1.0000 0.87733  0.42367  0.54117  Biso   1.000  O
  O352     1.0000 0.11603  0.54347  0.65147  Biso   1.000  O
  O353     1.0000 0.96563  0.54157  0.63087  Biso   1.000  O
  O354     1.0000 0.88583  0.50117  0.59597  Biso   1.000  O
  C981     1.0000 0.90253  0.52437  0.61797  Biso   1.000  C
  C982     1.0000 0.83543  0.53237  0.63197  Biso   1.000  C
  C983     1.0000 0.76813  0.52807  0.61896  Biso   1.000  C
  H491     1.0000 0.76363  0.52007  0.60087  Biso   1.000  H
  C984     1.0000 0.70783  0.53577  0.63237  Biso   1.000  C
  C985     1.0000 0.71463  0.54757  0.65877  Biso   1.000  C
  H492     1.0000 0.67333  0.55277  0.66797  Biso   1.000  H
  C986     1.0000 0.78173  0.55177  0.67182  Biso   1.000  C
  C987     1.0000 0.84223  0.54417  0.65837  Biso   1.000  C
  H493     1.0000 0.88813  0.54707  0.66727  Biso   1.000  H
  C988     1.0000 0.63103  0.52657  0.61917  Biso   1.000  C
  O355     1.0000 0.62723  0.50917  0.59637  Biso   1.000  O
  O356     1.0000 0.58343  0.54007  0.63347  Biso   1.000  O
  C989     1.0000 0.78983  0.56597  0.70175  Biso   1.000  C
  C990     1.0000 0.72993  0.57347  0.71551  Biso   1.000  C
  H494     1.0000 0.68353  0.57027  0.70687  Biso   1.000  H
  C991     1.0000 0.73803  0.58567  0.74191  Biso   1.000  C
  H495     1.0000 0.69713  0.59087  0.75127  Biso   1.000  H
  C992     1.0000 0.80603  0.59047  0.75457  Biso   1.000  C
  C993     1.0000 0.86593  0.58297  0.74081  Biso   1.000  C
  H496     1.0000 0.91253  0.58627  0.74947  Biso   1.000  H
  C994     1.0000 0.85793  0.57077  0.71440  Biso   1.000  C
  H497     1.0000 0.89893  0.56567  0.70497  Biso   1.000  H
  C995     1.0000 0.81423  0.61537  0.78254  Biso   1.000  C
  C996     1.0000 0.74763  0.58437  0.79947  Biso   1.000  C
  H498     1.0000 0.69353  0.54537  0.79357  Biso   1.000  H
  C997     1.0000 0.76023  0.61027  0.82490  Biso   1.000  C
  H499     1.0000 0.71463  0.58907  0.83647  Biso   1.000  H
  C998     1.0000 0.83933  0.66727  0.83344  Biso   1.000  C
  C999     1.0000 0.90603  0.69837  0.81657  Biso   1.000  C
  H500     1.0000 0.96013  0.73727  0.82237  Biso   1.000  H
  C1000    1.0000 0.89343  0.67237  0.79108  Biso   1.000  C
  H501     1.0000 0.93913  0.69367  0.77947  Biso   1.000  H
  C1001    1.0000 0.86583  0.70387  0.86130  Biso   1.000  C
  C1002    1.0000 0.93973  0.72497  0.87387  Biso   1.000  C
  H502     1.0000 0.97973  0.71497  0.86577  Biso   1.000  H
  C1003    1.0000 0.95513  0.76077  0.89807  Biso   1.000  C
  C1004    1.0000 0.89653  0.77537  0.90987  Biso   1.000  C
  H503     1.0000 0.90713  0.79987  0.92637  Biso   1.000  H
  C1005    1.0000 0.82263  0.75427  0.89727  Biso   1.000  C
  C1006    1.0000 0.80723  0.71847  0.87307  Biso   1.000  C
  H504     1.0000 0.75673  0.70407  0.86447  Biso   1.000  H
  C1007    1.0000 0.03793  0.78947  0.91097  Biso   1.000  C
  O357     1.0000 0.08803  0.78157  0.89707  Biso   1.000  O
  O358     1.0000 0.05133  0.82347  0.93257  Biso   1.000  O
  C1008    1.0000 0.76423  0.77287  0.91017  Biso   1.000  C
  O359     1.0000 0.77703  0.80197  0.93317  Biso   1.000  O
  O360     1.0000 0.70143  0.76627  0.89737  Biso   1.000  O
