data_image0
_cell_length_a       29.9342
_cell_length_b       21.16
_cell_length_c       19.5148
_cell_angle_alpha    90
_cell_angle_beta     93.935
_cell_angle_gamma    90

_symmetry_space_group_name_H-M    "P 1"
_symmetry_int_tables_number       1

loop_
  _symmetry_equiv_pos_as_xyz
  'x, y, z'

loop_
  _atom_site_label
  _atom_site_occupancy
  _atom_site_fract_x
  _atom_site_fract_y
  _atom_site_fract_z
  _atom_site_thermal_displace_type
  _atom_site_B_iso_or_equiv
  _atom_site_type_symbol
  Tb1      1.0000 0.22368  0.17422  0.44180  Biso   1.000  Tb
  Tb2      1.0000 0.31885  0.83086  0.53757  Biso   1.000  Tb
  O1       1.0000 0.22008  0.06790  0.48690  Biso   1.000  O
  O2       1.0000 0.15986  0.10070  0.42790  Biso   1.000  O
  O3       1.0000 0.24251  0.83890  0.53210  Biso   1.000  O
  O4       1.0000 0.18995  0.77110  0.49820  Biso   1.000  O
  O5       1.0000 0.87258  0.72300  0.11980  Biso   1.000  O
  O6       1.0000 0.80436  0.70790  0.14960  Biso   1.000  O
  O7       1.0000 0.81163  0.80930  0.45510  Biso   1.000  O
  O8       1.0000 0.76859  0.74540  0.38710  Biso   1.000  O
  O9       1.0000 0.34600  0.91090  0.61430  Biso   1.000  O
  O10      1.0000 0.31290  0.94480  0.52200  Biso   1.000  O
  O11      1.0000 0.28407  0.18580  0.52010  Biso   1.000  O
  O12      1.0000 0.32892  0.24480  0.58750  Biso   1.000  O
  O13      1.0000 0.38670  0.84160  0.48860  Biso   1.000  O
  O14      1.0000 0.28140  0.10860  0.40050  Biso   1.000  O
  C1       1.0000 0.18240  0.05720  0.45660  Biso   1.000  C
  C2       1.0000 0.16570  0.99080  0.45380  Biso   1.000  C
  C3       1.0000 0.12340  0.97780  0.42310  Biso   1.000  C
  H1       1.0000 0.10560  0.01070  0.40530  Biso   1.000  H
  C4       1.0000 0.10760  0.91660  0.41890  Biso   1.000  C
  C5       1.0000 0.13440  0.86720  0.44630  Biso   1.000  C
  H2       1.0000 0.12370  0.82590  0.44400  Biso   1.000  H
  C6       1.0000 0.17640  0.87910  0.47650  Biso   1.000  C
  C7       1.0000 0.19210  0.94130  0.48100  Biso   1.000  C
  H3       1.0000 0.22020  0.94980  0.50220  Biso   1.000  H
  C8       1.0000 0.20500  0.82590  0.50420  Biso   1.000  C
  C9       1.0000 0.06380  0.90170  0.38810  Biso   1.000  C
  C10      1.0000 0.02790  0.88450  0.36420  Biso   1.000  C
  C11      1.0000 0.98640  0.86370  0.34130  Biso   1.000  C
  C12      1.0000 0.95000  0.84320  0.32320  Biso   1.000  C
  C13      1.0000 0.90710  0.81480  0.30670  Biso   1.000  C
  C14      1.0000 0.89600  0.78710  0.24410  Biso   1.000  C
  H4       1.0000 0.91630  0.78820  0.21010  Biso   1.000  H
  C15      1.0000 0.85530  0.75800  0.23100  Biso   1.000  C
  C16      1.0000 0.82510  0.75590  0.28140  Biso   1.000  C
  H5       1.0000 0.79760  0.73600  0.27250  Biso   1.000  H
  C17      1.0000 0.83540  0.78330  0.34540  Biso   1.000  C
  C18      1.0000 0.87610  0.81240  0.35890  Biso   1.000  C
  H6       1.0000 0.88330  0.83050  0.40170  Biso   1.000  H
  C19      1.0000 0.84320  0.72740  0.16270  Biso   1.000  C
  C20      1.0000 0.80290  0.77930  0.39990  Biso   1.000  C
  C21      1.0000 0.33670  0.95640  0.57530  Biso   1.000  C
  C22      1.0000 0.35160  0.02150  0.59350  Biso   1.000  C
  C23      1.0000 0.39050  0.02970  0.63570  Biso   1.000  C
  H7       1.0000 0.40630  0.99460  0.65310  Biso   1.000  H
  C24      1.0000 0.40590  0.09080  0.65210  Biso   1.000  C
  C25      1.0000 0.38170  0.14290  0.62750  Biso   1.000  C
  H8       1.0000 0.39180  0.18350  0.63860  Biso   1.000  H
  C26      1.0000 0.34270  0.13490  0.58680  Biso   1.000  C
  C27      1.0000 0.32760  0.07430  0.56950  Biso   1.000  C
  H9       1.0000 0.30140  0.06910  0.54170  Biso   1.000  H
  C28      1.0000 0.31680  0.19220  0.56300  Biso   1.000  C
  C29      1.0000 0.44570  0.09720  0.69660  Biso   1.000  C
  C30      1.0000 0.48020  0.09930  0.73040  Biso   1.000  C
  C31      1.0000 0.42430  0.81870  0.50730  Biso   1.000  C
  H10      1.0000 0.42780  0.80210  0.55150  Biso   1.000  H
  C32      1.0000 0.45240  0.83810  0.39840  Biso   1.000  C
  H11      1.0000 0.43440  0.87560  0.39750  Biso   1.000  H
  H12      1.0000 0.43720  0.80580  0.37120  Biso   1.000  H
  H13      1.0000 0.48070  0.84720  0.38000  Biso   1.000  H
  C33      1.0000 0.49980  0.78270  0.49400  Biso   1.000  C
  H14      1.0000 0.49820  0.77320  0.54190  Biso   1.000  H
  H15      1.0000 0.52560  0.80850  0.48800  Biso   1.000  H
  H16      1.0000 0.50220  0.74400  0.46870  Biso   1.000  H
  C34      1.0000 0.29750  0.10040  0.34400  Biso   1.000  C
  H17      1.0000 0.29130  0.12920  0.30860  Biso   1.000  H
  C35      1.0000 0.35410  0.06440  0.27690  Biso   1.000  C
  H18      1.0000 0.33680  0.06500  0.23370  Biso   1.000  H
  H19      1.0000 0.37700  0.03270  0.27580  Biso   1.000  H
  H20      1.0000 0.36770  0.10500  0.28520  Biso   1.000  H
  C36      1.0000 0.35640  0.05040  0.39740  Biso   1.000  C
  H21      1.0000 0.34050  0.04010  0.43700  Biso   1.000  H
  H22      1.0000 0.36930  0.09180  0.40300  Biso   1.000  H
  H23      1.0000 0.37970  0.01990  0.39250  Biso   1.000  H
  N1       1.0000 0.46000  0.81600  0.46910  Biso   1.000  N
  N2       1.0000 0.32410  0.04940  0.33350  Biso   1.000  N
  O15      1.0000 0.36560  0.91280  0.59300  Biso   1.000  O
  O16      1.0000 0.30160  0.94700  0.54300  Biso   1.000  O
  O17      1.0000 0.38180  0.81670  0.47750  Biso   1.000  O
  O18      1.0000 0.27490  0.11050  0.38230  Biso   1.000  O
  C37      1.0000 0.33840  0.95570  0.57510  Biso   1.000  C
  C38      1.0000 0.40830  0.86270  0.48850  Biso   1.000  C
  H24      1.0000 0.40290  0.89620  0.51760  Biso   1.000  H
  C39      1.0000 0.44010  0.79510  0.41650  Biso   1.000  C
  H25      1.0000 0.46270  0.79000  0.38430  Biso   1.000  H
  H26      1.0000 0.41100  0.79370  0.39260  Biso   1.000  H
  H27      1.0000 0.44270  0.76160  0.44980  Biso   1.000  H
  C40      1.0000 0.48500  0.87710  0.46440  Biso   1.000  C
  H28      1.0000 0.48500  0.91140  0.49660  Biso   1.000  H
  H29      1.0000 0.49670  0.89150  0.42250  Biso   1.000  H
  H30      1.0000 0.50350  0.84350  0.48350  Biso   1.000  H
  C41      1.0000 0.30510  0.07080  0.38940  Biso   1.000  C
  H31      1.0000 0.30380  0.04120  0.42450  Biso   1.000  H
  C42      1.0000 0.32360  0.08080  0.27620  Biso   1.000  C
  H32      1.0000 0.31140  0.12270  0.27300  Biso   1.000  H
  H33      1.0000 0.30070  0.05070  0.26230  Biso   1.000  H
  H34      1.0000 0.34790  0.07730  0.24670  Biso   1.000  H
  C43      1.0000 0.36130  0.00390  0.35290  Biso   1.000  C
  H35      1.0000 0.37310  0.99650  0.39920  Biso   1.000  H
  H36      1.0000 0.38510  0.00170  0.32240  Biso   1.000  H
  H37      1.0000 0.33920  0.97250  0.34020  Biso   1.000  H
  N3       1.0000 0.44630  0.85760  0.45230  Biso   1.000  N
  N4       1.0000 0.34030  0.06790  0.34820  Biso   1.000  N
  Tb3      1.0000 0.72368  0.67422  0.44180  Biso   1.000  Tb
  Tb4      1.0000 0.81885  0.33086  0.53757  Biso   1.000  Tb
  O19      1.0000 0.72008  0.56790  0.48690  Biso   1.000  O
  O20      1.0000 0.65986  0.60070  0.42790  Biso   1.000  O
  O21      1.0000 0.74251  0.33890  0.53210  Biso   1.000  O
  O22      1.0000 0.68995  0.27110  0.49820  Biso   1.000  O
  O23      1.0000 0.37258  0.22300  0.11980  Biso   1.000  O
  O24      1.0000 0.30436  0.20790  0.14960  Biso   1.000  O
  O25      1.0000 0.31163  0.30930  0.45510  Biso   1.000  O
  O26      1.0000 0.26859  0.24540  0.38710  Biso   1.000  O
  O27      1.0000 0.84600  0.41090  0.61430  Biso   1.000  O
  O28      1.0000 0.81290  0.44480  0.52200  Biso   1.000  O
  O29      1.0000 0.78407  0.68580  0.52010  Biso   1.000  O
  O30      1.0000 0.82892  0.74480  0.58750  Biso   1.000  O
  O31      1.0000 0.88670  0.34160  0.48860  Biso   1.000  O
  O32      1.0000 0.78140  0.60860  0.40050  Biso   1.000  O
  C44      1.0000 0.68240  0.55720  0.45660  Biso   1.000  C
  C45      1.0000 0.66570  0.49080  0.45380  Biso   1.000  C
  C46      1.0000 0.62340  0.47780  0.42310  Biso   1.000  C
  H38      1.0000 0.60560  0.51070  0.40530  Biso   1.000  H
  C47      1.0000 0.60760  0.41660  0.41890  Biso   1.000  C
  C48      1.0000 0.63440  0.36720  0.44630  Biso   1.000  C
  H39      1.0000 0.62370  0.32590  0.44400  Biso   1.000  H
  C49      1.0000 0.67640  0.37910  0.47650  Biso   1.000  C
  C50      1.0000 0.69210  0.44130  0.48100  Biso   1.000  C
  H40      1.0000 0.72020  0.44980  0.50220  Biso   1.000  H
  C51      1.0000 0.70500  0.32590  0.50420  Biso   1.000  C
  C52      1.0000 0.56380  0.40170  0.38810  Biso   1.000  C
  C53      1.0000 0.52790  0.38450  0.36420  Biso   1.000  C
  C54      1.0000 0.48640  0.36370  0.34130  Biso   1.000  C
  C55      1.0000 0.45000  0.34320  0.32320  Biso   1.000  C
  C56      1.0000 0.40710  0.31480  0.30670  Biso   1.000  C
  C57      1.0000 0.39600  0.28710  0.24410  Biso   1.000  C
  H41      1.0000 0.41630  0.28820  0.21010  Biso   1.000  H
  C58      1.0000 0.35530  0.25800  0.23100  Biso   1.000  C
  C59      1.0000 0.32510  0.25590  0.28140  Biso   1.000  C
  H42      1.0000 0.29760  0.23600  0.27250  Biso   1.000  H
  C60      1.0000 0.33540  0.28330  0.34540  Biso   1.000  C
  C61      1.0000 0.37610  0.31240  0.35890  Biso   1.000  C
  H43      1.0000 0.38330  0.33050  0.40170  Biso   1.000  H
  C62      1.0000 0.34320  0.22740  0.16270  Biso   1.000  C
  C63      1.0000 0.30290  0.27930  0.39990  Biso   1.000  C
  C64      1.0000 0.83670  0.45640  0.57530  Biso   1.000  C
  C65      1.0000 0.85160  0.52150  0.59350  Biso   1.000  C
  C66      1.0000 0.89050  0.52970  0.63570  Biso   1.000  C
  H44      1.0000 0.90630  0.49460  0.65310  Biso   1.000  H
  C67      1.0000 0.90590  0.59080  0.65210  Biso   1.000  C
  C68      1.0000 0.88170  0.64290  0.62750  Biso   1.000  C
  H45      1.0000 0.89180  0.68350  0.63860  Biso   1.000  H
  C69      1.0000 0.84270  0.63490  0.58680  Biso   1.000  C
  C70      1.0000 0.82760  0.57430  0.56950  Biso   1.000  C
  H46      1.0000 0.80140  0.56910  0.54170  Biso   1.000  H
  C71      1.0000 0.81680  0.69220  0.56300  Biso   1.000  C
  C72      1.0000 0.94570  0.59720  0.69660  Biso   1.000  C
  C73      1.0000 0.98020  0.59930  0.73040  Biso   1.000  C
  C74      1.0000 0.92430  0.31870  0.50730  Biso   1.000  C
  H47      1.0000 0.92780  0.30210  0.55150  Biso   1.000  H
  C75      1.0000 0.95240  0.33810  0.39840  Biso   1.000  C
  H48      1.0000 0.93440  0.37560  0.39750  Biso   1.000  H
  H49      1.0000 0.93720  0.30580  0.37120  Biso   1.000  H
  H50      1.0000 0.98070  0.34720  0.38000  Biso   1.000  H
  C76      1.0000 0.99980  0.28270  0.49400  Biso   1.000  C
  H51      1.0000 0.99820  0.27320  0.54190  Biso   1.000  H
  H52      1.0000 0.02560  0.30850  0.48800  Biso   1.000  H
  H53      1.0000 0.00220  0.24400  0.46870  Biso   1.000  H
  C77      1.0000 0.79750  0.60040  0.34400  Biso   1.000  C
  H54      1.0000 0.79130  0.62920  0.30860  Biso   1.000  H
  C78      1.0000 0.85410  0.56440  0.27690  Biso   1.000  C
  H55      1.0000 0.83680  0.56500  0.23370  Biso   1.000  H
  H56      1.0000 0.87700  0.53270  0.27580  Biso   1.000  H
  H57      1.0000 0.86770  0.60500  0.28520  Biso   1.000  H
  C79      1.0000 0.85640  0.55040  0.39740  Biso   1.000  C
  H58      1.0000 0.84050  0.54010  0.43700  Biso   1.000  H
  H59      1.0000 0.86930  0.59180  0.40300  Biso   1.000  H
  H60      1.0000 0.87970  0.51990  0.39250  Biso   1.000  H
  N5       1.0000 0.96000  0.31600  0.46910  Biso   1.000  N
  N6       1.0000 0.82410  0.54940  0.33350  Biso   1.000  N
  O33      1.0000 0.86560  0.41280  0.59300  Biso   1.000  O
  O34      1.0000 0.80160  0.44700  0.54300  Biso   1.000  O
  O35      1.0000 0.88180  0.31670  0.47750  Biso   1.000  O
  O36      1.0000 0.77490  0.61050  0.38230  Biso   1.000  O
  C80      1.0000 0.83840  0.45570  0.57510  Biso   1.000  C
  C81      1.0000 0.90830  0.36270  0.48850  Biso   1.000  C
  H61      1.0000 0.90290  0.39620  0.51760  Biso   1.000  H
  C82      1.0000 0.94010  0.29510  0.41650  Biso   1.000  C
  H62      1.0000 0.96270  0.29000  0.38430  Biso   1.000  H
  H63      1.0000 0.91100  0.29370  0.39260  Biso   1.000  H
  H64      1.0000 0.94270  0.26160  0.44980  Biso   1.000  H
  C83      1.0000 0.98500  0.37710  0.46440  Biso   1.000  C
  H65      1.0000 0.98500  0.41140  0.49660  Biso   1.000  H
  H66      1.0000 0.99670  0.39150  0.42250  Biso   1.000  H
  H67      1.0000 0.00350  0.34350  0.48350  Biso   1.000  H
  C84      1.0000 0.80510  0.57080  0.38940  Biso   1.000  C
  H68      1.0000 0.80380  0.54120  0.42450  Biso   1.000  H
  C85      1.0000 0.82360  0.58080  0.27620  Biso   1.000  C
  H69      1.0000 0.81140  0.62270  0.27300  Biso   1.000  H
  H70      1.0000 0.80070  0.55070  0.26230  Biso   1.000  H
  H71      1.0000 0.84790  0.57730  0.24670  Biso   1.000  H
  C86      1.0000 0.86130  0.50390  0.35290  Biso   1.000  C
  H72      1.0000 0.87310  0.49650  0.39920  Biso   1.000  H
  H73      1.0000 0.88510  0.50170  0.32240  Biso   1.000  H
  H74      1.0000 0.83920  0.47250  0.34020  Biso   1.000  H
  N7       1.0000 0.94630  0.35760  0.45230  Biso   1.000  N
  N8       1.0000 0.84030  0.56790  0.34820  Biso   1.000  N
  Tb5      1.0000 0.77632  0.17422  0.05820  Biso   1.000  Tb
  Tb6      1.0000 0.68115  0.83086  0.96243  Biso   1.000  Tb
  O37      1.0000 0.77992  0.06790  0.01310  Biso   1.000  O
  O38      1.0000 0.84014  0.10070  0.07210  Biso   1.000  O
  O39      1.0000 0.75749  0.83890  0.96790  Biso   1.000  O
  O40      1.0000 0.81005  0.77110  0.00180  Biso   1.000  O
  O41      1.0000 0.12742  0.72300  0.38020  Biso   1.000  O
  O42      1.0000 0.19564  0.70790  0.35040  Biso   1.000  O
  O43      1.0000 0.18837  0.80930  0.04490  Biso   1.000  O
  O44      1.0000 0.23141  0.74540  0.11290  Biso   1.000  O
  O45      1.0000 0.65400  0.91090  0.88570  Biso   1.000  O
  O46      1.0000 0.68710  0.94480  0.97800  Biso   1.000  O
  O47      1.0000 0.71593  0.18580  0.97990  Biso   1.000  O
  O48      1.0000 0.67108  0.24480  0.91250  Biso   1.000  O
  O49      1.0000 0.61330  0.84160  0.01140  Biso   1.000  O
  O50      1.0000 0.71860  0.10860  0.09950  Biso   1.000  O
  C87      1.0000 0.81760  0.05720  0.04340  Biso   1.000  C
  C88      1.0000 0.83430  0.99080  0.04620  Biso   1.000  C
  C89      1.0000 0.87660  0.97780  0.07690  Biso   1.000  C
  H75      1.0000 0.89440  0.01070  0.09470  Biso   1.000  H
  C90      1.0000 0.89240  0.91660  0.08110  Biso   1.000  C
  C91      1.0000 0.86560  0.86720  0.05370  Biso   1.000  C
  H76      1.0000 0.87630  0.82590  0.05600  Biso   1.000  H
  C92      1.0000 0.82360  0.87910  0.02350  Biso   1.000  C
  C93      1.0000 0.80790  0.94130  0.01900  Biso   1.000  C
  H77      1.0000 0.77980  0.94980  0.99780  Biso   1.000  H
  C94      1.0000 0.79500  0.82590  0.99580  Biso   1.000  C
  C95      1.0000 0.93620  0.90170  0.11190  Biso   1.000  C
  C96      1.0000 0.97210  0.88450  0.13580  Biso   1.000  C
  C97      1.0000 0.01360  0.86370  0.15870  Biso   1.000  C
  C98      1.0000 0.05000  0.84320  0.17680  Biso   1.000  C
  C99      1.0000 0.09290  0.81480  0.19330  Biso   1.000  C
  C100     1.0000 0.10400  0.78710  0.25590  Biso   1.000  C
  H78      1.0000 0.08370  0.78820  0.28990  Biso   1.000  H
  C101     1.0000 0.14470  0.75800  0.26900  Biso   1.000  C
  C102     1.0000 0.17490  0.75590  0.21860  Biso   1.000  C
  H79      1.0000 0.20240  0.73600  0.22750  Biso   1.000  H
  C103     1.0000 0.16460  0.78330  0.15460  Biso   1.000  C
  C104     1.0000 0.12390  0.81240  0.14110  Biso   1.000  C
  H80      1.0000 0.11670  0.83050  0.09830  Biso   1.000  H
  C105     1.0000 0.15680  0.72740  0.33730  Biso   1.000  C
  C106     1.0000 0.19710  0.77930  0.10010  Biso   1.000  C
  C107     1.0000 0.66330  0.95640  0.92470  Biso   1.000  C
  C108     1.0000 0.64840  0.02150  0.90650  Biso   1.000  C
  C109     1.0000 0.60950  0.02970  0.86430  Biso   1.000  C
  H81      1.0000 0.59370  0.99460  0.84690  Biso   1.000  H
  C110     1.0000 0.59410  0.09080  0.84790  Biso   1.000  C
  C111     1.0000 0.61830  0.14290  0.87250  Biso   1.000  C
  H82      1.0000 0.60820  0.18350  0.86140  Biso   1.000  H
  C112     1.0000 0.65730  0.13490  0.91320  Biso   1.000  C
  C113     1.0000 0.67240  0.07430  0.93050  Biso   1.000  C
  H83      1.0000 0.69860  0.06910  0.95830  Biso   1.000  H
  C114     1.0000 0.68320  0.19220  0.93700  Biso   1.000  C
  C115     1.0000 0.55430  0.09720  0.80340  Biso   1.000  C
  C116     1.0000 0.51980  0.09930  0.76960  Biso   1.000  C
  C117     1.0000 0.57570  0.81870  0.99270  Biso   1.000  C
  H84      1.0000 0.57220  0.80210  0.94850  Biso   1.000  H
  C118     1.0000 0.54760  0.83810  0.10160  Biso   1.000  C
  H85      1.0000 0.56560  0.87560  0.10250  Biso   1.000  H
  H86      1.0000 0.56280  0.80580  0.12880  Biso   1.000  H
  H87      1.0000 0.51930  0.84720  0.12000  Biso   1.000  H
  C119     1.0000 0.50020  0.78270  0.00600  Biso   1.000  C
  H88      1.0000 0.50180  0.77320  0.95810  Biso   1.000  H
  H89      1.0000 0.47440  0.80850  0.01200  Biso   1.000  H
  H90      1.0000 0.49780  0.74400  0.03130  Biso   1.000  H
  C120     1.0000 0.70250  0.10040  0.15600  Biso   1.000  C
  H91      1.0000 0.70870  0.12920  0.19140  Biso   1.000  H
  C121     1.0000 0.64590  0.06440  0.22310  Biso   1.000  C
  H92      1.0000 0.66320  0.06500  0.26630  Biso   1.000  H
  H93      1.0000 0.62300  0.03270  0.22420  Biso   1.000  H
  H94      1.0000 0.63230  0.10500  0.21480  Biso   1.000  H
  C122     1.0000 0.64360  0.05040  0.10260  Biso   1.000  C
  H95      1.0000 0.65950  0.04010  0.06300  Biso   1.000  H
  H96      1.0000 0.63070  0.09180  0.09700  Biso   1.000  H
  H97      1.0000 0.62030  0.01990  0.10750  Biso   1.000  H
  N9       1.0000 0.54000  0.81600  0.03090  Biso   1.000  N
  N10      1.0000 0.67590  0.04940  0.16650  Biso   1.000  N
  O51      1.0000 0.63440  0.91280  0.90700  Biso   1.000  O
  O52      1.0000 0.69840  0.94700  0.95700  Biso   1.000  O
  O53      1.0000 0.61820  0.81670  0.02250  Biso   1.000  O
  O54      1.0000 0.72510  0.11050  0.11770  Biso   1.000  O
  C123     1.0000 0.66160  0.95570  0.92490  Biso   1.000  C
  C124     1.0000 0.59170  0.86270  0.01150  Biso   1.000  C
  H98      1.0000 0.59710  0.89620  0.98240  Biso   1.000  H
  C125     1.0000 0.55990  0.79510  0.08350  Biso   1.000  C
  H99      1.0000 0.53730  0.79000  0.11570  Biso   1.000  H
  H100     1.0000 0.58900  0.79370  0.10740  Biso   1.000  H
  H101     1.0000 0.55730  0.76160  0.05020  Biso   1.000  H
  C126     1.0000 0.51500  0.87710  0.03560  Biso   1.000  C
  H102     1.0000 0.51500  0.91140  0.00340  Biso   1.000  H
  H103     1.0000 0.50330  0.89150  0.07750  Biso   1.000  H
  H104     1.0000 0.49650  0.84350  0.01650  Biso   1.000  H
  C127     1.0000 0.69490  0.07080  0.11060  Biso   1.000  C
  H105     1.0000 0.69620  0.04120  0.07550  Biso   1.000  H
  C128     1.0000 0.67640  0.08080  0.22380  Biso   1.000  C
  H106     1.0000 0.68860  0.12270  0.22700  Biso   1.000  H
  H107     1.0000 0.69930  0.05070  0.23770  Biso   1.000  H
  H108     1.0000 0.65210  0.07730  0.25330  Biso   1.000  H
  C129     1.0000 0.63870  0.00390  0.14710  Biso   1.000  C
  H109     1.0000 0.62690  0.99650  0.10080  Biso   1.000  H
  H110     1.0000 0.61490  0.00170  0.17760  Biso   1.000  H
  H111     1.0000 0.66080  0.97250  0.15980  Biso   1.000  H
  N11      1.0000 0.55370  0.85760  0.04770  Biso   1.000  N
  N12      1.0000 0.65970  0.06790  0.15180  Biso   1.000  N
  Tb7      1.0000 0.27632  0.67422  0.05820  Biso   1.000  Tb
  Tb8      1.0000 0.18115  0.33086  0.96243  Biso   1.000  Tb
  O55      1.0000 0.27992  0.56790  0.01310  Biso   1.000  O
  O56      1.0000 0.34014  0.60070  0.07210  Biso   1.000  O
  O57      1.0000 0.25749  0.33890  0.96790  Biso   1.000  O
  O58      1.0000 0.31005  0.27110  0.00180  Biso   1.000  O
  O59      1.0000 0.62742  0.22300  0.38020  Biso   1.000  O
  O60      1.0000 0.69564  0.20790  0.35040  Biso   1.000  O
  O61      1.0000 0.68837  0.30930  0.04490  Biso   1.000  O
  O62      1.0000 0.73141  0.24540  0.11290  Biso   1.000  O
  O63      1.0000 0.15400  0.41090  0.88570  Biso   1.000  O
  O64      1.0000 0.18710  0.44480  0.97800  Biso   1.000  O
  O65      1.0000 0.21593  0.68580  0.97990  Biso   1.000  O
  O66      1.0000 0.17108  0.74480  0.91250  Biso   1.000  O
  O67      1.0000 0.11330  0.34160  0.01140  Biso   1.000  O
  O68      1.0000 0.21860  0.60860  0.09950  Biso   1.000  O
  C130     1.0000 0.31760  0.55720  0.04340  Biso   1.000  C
  C131     1.0000 0.33430  0.49080  0.04620  Biso   1.000  C
  C132     1.0000 0.37660  0.47780  0.07690  Biso   1.000  C
  H112     1.0000 0.39440  0.51070  0.09470  Biso   1.000  H
  C133     1.0000 0.39240  0.41660  0.08110  Biso   1.000  C
  C134     1.0000 0.36560  0.36720  0.05370  Biso   1.000  C
  H113     1.0000 0.37630  0.32590  0.05600  Biso   1.000  H
  C135     1.0000 0.32360  0.37910  0.02350  Biso   1.000  C
  C136     1.0000 0.30790  0.44130  0.01900  Biso   1.000  C
  H114     1.0000 0.27980  0.44980  0.99780  Biso   1.000  H
  C137     1.0000 0.29500  0.32590  0.99580  Biso   1.000  C
  C138     1.0000 0.43620  0.40170  0.11190  Biso   1.000  C
  C139     1.0000 0.47210  0.38450  0.13580  Biso   1.000  C
  C140     1.0000 0.51360  0.36370  0.15870  Biso   1.000  C
  C141     1.0000 0.55000  0.34320  0.17680  Biso   1.000  C
  C142     1.0000 0.59290  0.31480  0.19330  Biso   1.000  C
  C143     1.0000 0.60400  0.28710  0.25590  Biso   1.000  C
  H115     1.0000 0.58370  0.28820  0.28990  Biso   1.000  H
  C144     1.0000 0.64470  0.25800  0.26900  Biso   1.000  C
  C145     1.0000 0.67490  0.25590  0.21860  Biso   1.000  C
  H116     1.0000 0.70240  0.23600  0.22750  Biso   1.000  H
  C146     1.0000 0.66460  0.28330  0.15460  Biso   1.000  C
  C147     1.0000 0.62390  0.31240  0.14110  Biso   1.000  C
  H117     1.0000 0.61670  0.33050  0.09830  Biso   1.000  H
  C148     1.0000 0.65680  0.22740  0.33730  Biso   1.000  C
  C149     1.0000 0.69710  0.27930  0.10010  Biso   1.000  C
  C150     1.0000 0.16330  0.45640  0.92470  Biso   1.000  C
  C151     1.0000 0.14840  0.52150  0.90650  Biso   1.000  C
  C152     1.0000 0.10950  0.52970  0.86430  Biso   1.000  C
  H118     1.0000 0.09370  0.49460  0.84690  Biso   1.000  H
  C153     1.0000 0.09410  0.59080  0.84790  Biso   1.000  C
  C154     1.0000 0.11830  0.64290  0.87250  Biso   1.000  C
  H119     1.0000 0.10820  0.68350  0.86140  Biso   1.000  H
  C155     1.0000 0.15730  0.63490  0.91320  Biso   1.000  C
  C156     1.0000 0.17240  0.57430  0.93050  Biso   1.000  C
  H120     1.0000 0.19860  0.56910  0.95830  Biso   1.000  H
  C157     1.0000 0.18320  0.69220  0.93700  Biso   1.000  C
  C158     1.0000 0.05430  0.59720  0.80340  Biso   1.000  C
  C159     1.0000 0.01980  0.59930  0.76960  Biso   1.000  C
  C160     1.0000 0.07570  0.31870  0.99270  Biso   1.000  C
  H121     1.0000 0.07220  0.30210  0.94850  Biso   1.000  H
  C161     1.0000 0.04760  0.33810  0.10160  Biso   1.000  C
  H122     1.0000 0.06560  0.37560  0.10250  Biso   1.000  H
  H123     1.0000 0.06280  0.30580  0.12880  Biso   1.000  H
  H124     1.0000 0.01930  0.34720  0.12000  Biso   1.000  H
  C162     1.0000 0.00020  0.28270  0.00600  Biso   1.000  C
  H125     1.0000 0.00180  0.27320  0.95810  Biso   1.000  H
  H126     1.0000 0.97440  0.30850  0.01200  Biso   1.000  H
  H127     1.0000 0.99780  0.24400  0.03130  Biso   1.000  H
  C163     1.0000 0.20250  0.60040  0.15600  Biso   1.000  C
  H128     1.0000 0.20870  0.62920  0.19140  Biso   1.000  H
  C164     1.0000 0.14590  0.56440  0.22310  Biso   1.000  C
  H129     1.0000 0.16320  0.56500  0.26630  Biso   1.000  H
  H130     1.0000 0.12300  0.53270  0.22420  Biso   1.000  H
  H131     1.0000 0.13230  0.60500  0.21480  Biso   1.000  H
  C165     1.0000 0.14360  0.55040  0.10260  Biso   1.000  C
  H132     1.0000 0.15950  0.54010  0.06300  Biso   1.000  H
  H133     1.0000 0.13070  0.59180  0.09700  Biso   1.000  H
  H134     1.0000 0.12030  0.51990  0.10750  Biso   1.000  H
  N13      1.0000 0.04000  0.31600  0.03090  Biso   1.000  N
  N14      1.0000 0.17590  0.54940  0.16650  Biso   1.000  N
  O69      1.0000 0.13440  0.41280  0.90700  Biso   1.000  O
  O70      1.0000 0.19840  0.44700  0.95700  Biso   1.000  O
  O71      1.0000 0.11820  0.31670  0.02250  Biso   1.000  O
  O72      1.0000 0.22510  0.61050  0.11770  Biso   1.000  O
  C166     1.0000 0.16160  0.45570  0.92490  Biso   1.000  C
  C167     1.0000 0.09170  0.36270  0.01150  Biso   1.000  C
  H135     1.0000 0.09710  0.39620  0.98240  Biso   1.000  H
  C168     1.0000 0.05990  0.29510  0.08350  Biso   1.000  C
  H136     1.0000 0.03730  0.29000  0.11570  Biso   1.000  H
  H137     1.0000 0.08900  0.29370  0.10740  Biso   1.000  H
  H138     1.0000 0.05730  0.26160  0.05020  Biso   1.000  H
  C169     1.0000 0.01500  0.37710  0.03560  Biso   1.000  C
  H139     1.0000 0.01500  0.41140  0.00340  Biso   1.000  H
  H140     1.0000 0.00330  0.39150  0.07750  Biso   1.000  H
  H141     1.0000 0.99650  0.34350  0.01650  Biso   1.000  H
  C170     1.0000 0.19490  0.57080  0.11060  Biso   1.000  C
  H142     1.0000 0.19620  0.54120  0.07550  Biso   1.000  H
  C171     1.0000 0.17640  0.58080  0.22380  Biso   1.000  C
  H143     1.0000 0.18860  0.62270  0.22700  Biso   1.000  H
  H144     1.0000 0.19930  0.55070  0.23770  Biso   1.000  H
  H145     1.0000 0.15210  0.57730  0.25330  Biso   1.000  H
  C172     1.0000 0.13870  0.50390  0.14710  Biso   1.000  C
  H146     1.0000 0.12690  0.49650  0.10080  Biso   1.000  H
  H147     1.0000 0.11490  0.50170  0.17760  Biso   1.000  H
  H148     1.0000 0.16080  0.47250  0.15980  Biso   1.000  H
  N15      1.0000 0.05370  0.35760  0.04770  Biso   1.000  N
  N16      1.0000 0.15970  0.56790  0.15180  Biso   1.000  N
  Tb9      1.0000 0.77632  0.82578  0.55820  Biso   1.000  Tb
  Tb10     1.0000 0.68115  0.16914  0.46243  Biso   1.000  Tb
  O73      1.0000 0.77992  0.93210  0.51310  Biso   1.000  O
  O74      1.0000 0.84014  0.89930  0.57210  Biso   1.000  O
  O75      1.0000 0.75749  0.16110  0.46790  Biso   1.000  O
  O76      1.0000 0.81005  0.22890  0.50180  Biso   1.000  O
  O77      1.0000 0.12742  0.27700  0.88020  Biso   1.000  O
  O78      1.0000 0.19564  0.29210  0.85040  Biso   1.000  O
  O79      1.0000 0.18837  0.19070  0.54490  Biso   1.000  O
  O80      1.0000 0.23141  0.25460  0.61290  Biso   1.000  O
  O81      1.0000 0.65400  0.08910  0.38570  Biso   1.000  O
  O82      1.0000 0.68710  0.05520  0.47800  Biso   1.000  O
  O83      1.0000 0.71593  0.81420  0.47990  Biso   1.000  O
  O84      1.0000 0.67108  0.75520  0.41250  Biso   1.000  O
  O85      1.0000 0.61330  0.15840  0.51140  Biso   1.000  O
  O86      1.0000 0.71860  0.89140  0.59950  Biso   1.000  O
  C173     1.0000 0.81760  0.94280  0.54340  Biso   1.000  C
  C174     1.0000 0.83430  0.00920  0.54620  Biso   1.000  C
  C175     1.0000 0.87660  0.02220  0.57690  Biso   1.000  C
  H149     1.0000 0.89440  0.98930  0.59470  Biso   1.000  H
  C176     1.0000 0.89240  0.08340  0.58110  Biso   1.000  C
  C177     1.0000 0.86560  0.13280  0.55370  Biso   1.000  C
  H150     1.0000 0.87630  0.17410  0.55600  Biso   1.000  H
  C178     1.0000 0.82360  0.12090  0.52350  Biso   1.000  C
  C179     1.0000 0.80790  0.05870  0.51900  Biso   1.000  C
  H151     1.0000 0.77980  0.05020  0.49780  Biso   1.000  H
  C180     1.0000 0.79500  0.17410  0.49580  Biso   1.000  C
  C181     1.0000 0.93620  0.09830  0.61190  Biso   1.000  C
  C182     1.0000 0.97210  0.11550  0.63580  Biso   1.000  C
  C183     1.0000 0.01360  0.13630  0.65870  Biso   1.000  C
  C184     1.0000 0.05000  0.15680  0.67680  Biso   1.000  C
  C185     1.0000 0.09290  0.18520  0.69330  Biso   1.000  C
  C186     1.0000 0.10400  0.21290  0.75590  Biso   1.000  C
  H152     1.0000 0.08370  0.21180  0.78990  Biso   1.000  H
  C187     1.0000 0.14470  0.24200  0.76900  Biso   1.000  C
  C188     1.0000 0.17490  0.24410  0.71860  Biso   1.000  C
  H153     1.0000 0.20240  0.26400  0.72750  Biso   1.000  H
  C189     1.0000 0.16460  0.21670  0.65460  Biso   1.000  C
  C190     1.0000 0.12390  0.18760  0.64110  Biso   1.000  C
  H154     1.0000 0.11670  0.16950  0.59830  Biso   1.000  H
  C191     1.0000 0.15680  0.27260  0.83730  Biso   1.000  C
  C192     1.0000 0.19710  0.22070  0.60010  Biso   1.000  C
  C193     1.0000 0.66330  0.04360  0.42470  Biso   1.000  C
  C194     1.0000 0.64840  0.97850  0.40650  Biso   1.000  C
  C195     1.0000 0.60950  0.97030  0.36430  Biso   1.000  C
  H155     1.0000 0.59370  0.00540  0.34690  Biso   1.000  H
  C196     1.0000 0.59410  0.90920  0.34790  Biso   1.000  C
  C197     1.0000 0.61830  0.85710  0.37250  Biso   1.000  C
  H156     1.0000 0.60820  0.81650  0.36140  Biso   1.000  H
  C198     1.0000 0.65730  0.86510  0.41320  Biso   1.000  C
  C199     1.0000 0.67240  0.92570  0.43050  Biso   1.000  C
  H157     1.0000 0.69860  0.93090  0.45830  Biso   1.000  H
  C200     1.0000 0.68320  0.80780  0.43700  Biso   1.000  C
  C201     1.0000 0.55430  0.90280  0.30340  Biso   1.000  C
  C202     1.0000 0.51980  0.90070  0.26960  Biso   1.000  C
  C203     1.0000 0.57570  0.18130  0.49270  Biso   1.000  C
  H158     1.0000 0.57220  0.19790  0.44850  Biso   1.000  H
  C204     1.0000 0.54760  0.16190  0.60160  Biso   1.000  C
  H159     1.0000 0.56560  0.12440  0.60250  Biso   1.000  H
  H160     1.0000 0.56280  0.19420  0.62880  Biso   1.000  H
  H161     1.0000 0.51930  0.15280  0.62000  Biso   1.000  H
  C205     1.0000 0.50020  0.21730  0.50600  Biso   1.000  C
  H162     1.0000 0.50180  0.22680  0.45810  Biso   1.000  H
  H163     1.0000 0.47440  0.19150  0.51200  Biso   1.000  H
  H164     1.0000 0.49780  0.25600  0.53130  Biso   1.000  H
  C206     1.0000 0.70250  0.89960  0.65600  Biso   1.000  C
  H165     1.0000 0.70870  0.87080  0.69140  Biso   1.000  H
  C207     1.0000 0.64590  0.93560  0.72310  Biso   1.000  C
  H166     1.0000 0.66320  0.93500  0.76630  Biso   1.000  H
  H167     1.0000 0.62300  0.96730  0.72420  Biso   1.000  H
  H168     1.0000 0.63230  0.89500  0.71480  Biso   1.000  H
  C208     1.0000 0.64360  0.94960  0.60260  Biso   1.000  C
  H169     1.0000 0.65950  0.95990  0.56300  Biso   1.000  H
  H170     1.0000 0.63070  0.90820  0.59700  Biso   1.000  H
  H171     1.0000 0.62030  0.98010  0.60750  Biso   1.000  H
  N17      1.0000 0.54000  0.18400  0.53090  Biso   1.000  N
  N18      1.0000 0.67590  0.95060  0.66650  Biso   1.000  N
  O87      1.0000 0.63440  0.08720  0.40700  Biso   1.000  O
  O88      1.0000 0.69840  0.05300  0.45700  Biso   1.000  O
  O89      1.0000 0.61820  0.18330  0.52250  Biso   1.000  O
  O90      1.0000 0.72510  0.88950  0.61770  Biso   1.000  O
  C209     1.0000 0.66160  0.04430  0.42490  Biso   1.000  C
  C210     1.0000 0.59170  0.13730  0.51150  Biso   1.000  C
  H172     1.0000 0.59710  0.10380  0.48240  Biso   1.000  H
  C211     1.0000 0.55990  0.20490  0.58350  Biso   1.000  C
  H173     1.0000 0.53730  0.21000  0.61570  Biso   1.000  H
  H174     1.0000 0.58900  0.20630  0.60740  Biso   1.000  H
  H175     1.0000 0.55730  0.23840  0.55020  Biso   1.000  H
  C212     1.0000 0.51500  0.12290  0.53560  Biso   1.000  C
  H176     1.0000 0.51500  0.08860  0.50340  Biso   1.000  H
  H177     1.0000 0.50330  0.10850  0.57750  Biso   1.000  H
  H178     1.0000 0.49650  0.15650  0.51650  Biso   1.000  H
  C213     1.0000 0.69490  0.92920  0.61060  Biso   1.000  C
  H179     1.0000 0.69620  0.95880  0.57550  Biso   1.000  H
  C214     1.0000 0.67640  0.91920  0.72380  Biso   1.000  C
  H180     1.0000 0.68860  0.87730  0.72700  Biso   1.000  H
  H181     1.0000 0.69930  0.94930  0.73770  Biso   1.000  H
  H182     1.0000 0.65210  0.92270  0.75330  Biso   1.000  H
  C215     1.0000 0.63870  0.99610  0.64710  Biso   1.000  C
  H183     1.0000 0.62690  0.00350  0.60080  Biso   1.000  H
  H184     1.0000 0.61490  0.99830  0.67760  Biso   1.000  H
  H185     1.0000 0.66080  0.02750  0.65980  Biso   1.000  H
  N19      1.0000 0.55370  0.14240  0.54770  Biso   1.000  N
  N20      1.0000 0.65970  0.93210  0.65180  Biso   1.000  N
  Tb11     1.0000 0.27632  0.32578  0.55820  Biso   1.000  Tb
  Tb12     1.0000 0.18115  0.66914  0.46243  Biso   1.000  Tb
  O91      1.0000 0.27992  0.43210  0.51310  Biso   1.000  O
  O92      1.0000 0.34014  0.39930  0.57210  Biso   1.000  O
  O93      1.0000 0.25749  0.66110  0.46790  Biso   1.000  O
  O94      1.0000 0.31005  0.72890  0.50180  Biso   1.000  O
  O95      1.0000 0.62742  0.77700  0.88020  Biso   1.000  O
  O96      1.0000 0.69564  0.79210  0.85040  Biso   1.000  O
  O97      1.0000 0.68837  0.69070  0.54490  Biso   1.000  O
  O98      1.0000 0.73141  0.75460  0.61290  Biso   1.000  O
  O99      1.0000 0.15400  0.58910  0.38570  Biso   1.000  O
  O100     1.0000 0.18710  0.55520  0.47800  Biso   1.000  O
  O101     1.0000 0.21593  0.31420  0.47990  Biso   1.000  O
  O102     1.0000 0.17108  0.25520  0.41250  Biso   1.000  O
  O103     1.0000 0.11330  0.65840  0.51140  Biso   1.000  O
  O104     1.0000 0.21860  0.39140  0.59950  Biso   1.000  O
  C216     1.0000 0.31760  0.44280  0.54340  Biso   1.000  C
  C217     1.0000 0.33430  0.50920  0.54620  Biso   1.000  C
  C218     1.0000 0.37660  0.52220  0.57690  Biso   1.000  C
  H186     1.0000 0.39440  0.48930  0.59470  Biso   1.000  H
  C219     1.0000 0.39240  0.58340  0.58110  Biso   1.000  C
  C220     1.0000 0.36560  0.63280  0.55370  Biso   1.000  C
  H187     1.0000 0.37630  0.67410  0.55600  Biso   1.000  H
  C221     1.0000 0.32360  0.62090  0.52350  Biso   1.000  C
  C222     1.0000 0.30790  0.55870  0.51900  Biso   1.000  C
  H188     1.0000 0.27980  0.55020  0.49780  Biso   1.000  H
  C223     1.0000 0.29500  0.67410  0.49580  Biso   1.000  C
  C224     1.0000 0.43620  0.59830  0.61190  Biso   1.000  C
  C225     1.0000 0.47210  0.61550  0.63580  Biso   1.000  C
  C226     1.0000 0.51360  0.63630  0.65870  Biso   1.000  C
  C227     1.0000 0.55000  0.65680  0.67680  Biso   1.000  C
  C228     1.0000 0.59290  0.68520  0.69330  Biso   1.000  C
  C229     1.0000 0.60400  0.71290  0.75590  Biso   1.000  C
  H189     1.0000 0.58370  0.71180  0.78990  Biso   1.000  H
  C230     1.0000 0.64470  0.74200  0.76900  Biso   1.000  C
  C231     1.0000 0.67490  0.74410  0.71860  Biso   1.000  C
  H190     1.0000 0.70240  0.76400  0.72750  Biso   1.000  H
  C232     1.0000 0.66460  0.71670  0.65460  Biso   1.000  C
  C233     1.0000 0.62390  0.68760  0.64110  Biso   1.000  C
  H191     1.0000 0.61670  0.66950  0.59830  Biso   1.000  H
  C234     1.0000 0.65680  0.77260  0.83730  Biso   1.000  C
  C235     1.0000 0.69710  0.72070  0.60010  Biso   1.000  C
  C236     1.0000 0.16330  0.54360  0.42470  Biso   1.000  C
  C237     1.0000 0.14840  0.47850  0.40650  Biso   1.000  C
  C238     1.0000 0.10950  0.47030  0.36430  Biso   1.000  C
  H192     1.0000 0.09370  0.50540  0.34690  Biso   1.000  H
  C239     1.0000 0.09410  0.40920  0.34790  Biso   1.000  C
  C240     1.0000 0.11830  0.35710  0.37250  Biso   1.000  C
  H193     1.0000 0.10820  0.31650  0.36140  Biso   1.000  H
  C241     1.0000 0.15730  0.36510  0.41320  Biso   1.000  C
  C242     1.0000 0.17240  0.42570  0.43050  Biso   1.000  C
  H194     1.0000 0.19860  0.43090  0.45830  Biso   1.000  H
  C243     1.0000 0.18320  0.30780  0.43700  Biso   1.000  C
  C244     1.0000 0.05430  0.40280  0.30340  Biso   1.000  C
  C245     1.0000 0.01980  0.40070  0.26960  Biso   1.000  C
  C246     1.0000 0.07570  0.68130  0.49270  Biso   1.000  C
  H195     1.0000 0.07220  0.69790  0.44850  Biso   1.000  H
  C247     1.0000 0.04760  0.66190  0.60160  Biso   1.000  C
  H196     1.0000 0.06560  0.62440  0.60250  Biso   1.000  H
  H197     1.0000 0.06280  0.69420  0.62880  Biso   1.000  H
  H198     1.0000 0.01930  0.65280  0.62000  Biso   1.000  H
  C248     1.0000 0.00020  0.71730  0.50600  Biso   1.000  C
  H199     1.0000 0.00180  0.72680  0.45810  Biso   1.000  H
  H200     1.0000 0.97440  0.69150  0.51200  Biso   1.000  H
  H201     1.0000 0.99780  0.75600  0.53130  Biso   1.000  H
  C249     1.0000 0.20250  0.39960  0.65600  Biso   1.000  C
  H202     1.0000 0.20870  0.37080  0.69140  Biso   1.000  H
  C250     1.0000 0.14590  0.43560  0.72310  Biso   1.000  C
  H203     1.0000 0.16320  0.43500  0.76630  Biso   1.000  H
  H204     1.0000 0.12300  0.46730  0.72420  Biso   1.000  H
  H205     1.0000 0.13230  0.39500  0.71480  Biso   1.000  H
  C251     1.0000 0.14360  0.44960  0.60260  Biso   1.000  C
  H206     1.0000 0.15950  0.45990  0.56300  Biso   1.000  H
  H207     1.0000 0.13070  0.40820  0.59700  Biso   1.000  H
  H208     1.0000 0.12030  0.48010  0.60750  Biso   1.000  H
  N21      1.0000 0.04000  0.68400  0.53090  Biso   1.000  N
  N22      1.0000 0.17590  0.45060  0.66650  Biso   1.000  N
  O105     1.0000 0.13440  0.58720  0.40700  Biso   1.000  O
  O106     1.0000 0.19840  0.55300  0.45700  Biso   1.000  O
  O107     1.0000 0.11820  0.68330  0.52250  Biso   1.000  O
  O108     1.0000 0.22510  0.38950  0.61770  Biso   1.000  O
  C252     1.0000 0.16160  0.54430  0.42490  Biso   1.000  C
  C253     1.0000 0.09170  0.63730  0.51150  Biso   1.000  C
  H209     1.0000 0.09710  0.60380  0.48240  Biso   1.000  H
  C254     1.0000 0.05990  0.70490  0.58350  Biso   1.000  C
  H210     1.0000 0.03730  0.71000  0.61570  Biso   1.000  H
  H211     1.0000 0.08900  0.70630  0.60740  Biso   1.000  H
  H212     1.0000 0.05730  0.73840  0.55020  Biso   1.000  H
  C255     1.0000 0.01500  0.62290  0.53560  Biso   1.000  C
  H213     1.0000 0.01500  0.58860  0.50340  Biso   1.000  H
  H214     1.0000 0.00330  0.60850  0.57750  Biso   1.000  H
  H215     1.0000 0.99650  0.65650  0.51650  Biso   1.000  H
  C256     1.0000 0.19490  0.42920  0.61060  Biso   1.000  C
  H216     1.0000 0.19620  0.45880  0.57550  Biso   1.000  H
  C257     1.0000 0.17640  0.41920  0.72380  Biso   1.000  C
  H217     1.0000 0.18860  0.37730  0.72700  Biso   1.000  H
  H218     1.0000 0.19930  0.44930  0.73770  Biso   1.000  H
  H219     1.0000 0.15210  0.42270  0.75330  Biso   1.000  H
  C258     1.0000 0.13870  0.49610  0.64710  Biso   1.000  C
  H220     1.0000 0.12690  0.50350  0.60080  Biso   1.000  H
  H221     1.0000 0.11490  0.49830  0.67760  Biso   1.000  H
  H222     1.0000 0.16080  0.52750  0.65980  Biso   1.000  H
  N23      1.0000 0.05370  0.64240  0.54770  Biso   1.000  N
  N24      1.0000 0.15970  0.43210  0.65180  Biso   1.000  N
  Tb13     1.0000 0.22368  0.82578  0.94180  Biso   1.000  Tb
  Tb14     1.0000 0.31885  0.16914  0.03757  Biso   1.000  Tb
  O109     1.0000 0.22008  0.93210  0.98690  Biso   1.000  O
  O110     1.0000 0.15986  0.89930  0.92790  Biso   1.000  O
  O111     1.0000 0.24251  0.16110  0.03210  Biso   1.000  O
  O112     1.0000 0.18995  0.22890  0.99820  Biso   1.000  O
  O113     1.0000 0.87258  0.27700  0.61980  Biso   1.000  O
  O114     1.0000 0.80436  0.29210  0.64960  Biso   1.000  O
  O115     1.0000 0.81163  0.19070  0.95510  Biso   1.000  O
  O116     1.0000 0.76859  0.25460  0.88710  Biso   1.000  O
  O117     1.0000 0.34600  0.08910  0.11430  Biso   1.000  O
  O118     1.0000 0.31290  0.05520  0.02200  Biso   1.000  O
  O119     1.0000 0.28407  0.81420  0.02010  Biso   1.000  O
  O120     1.0000 0.32892  0.75520  0.08750  Biso   1.000  O
  O121     1.0000 0.38670  0.15840  0.98860  Biso   1.000  O
  O122     1.0000 0.28140  0.89140  0.90050  Biso   1.000  O
  C259     1.0000 0.18240  0.94280  0.95660  Biso   1.000  C
  C260     1.0000 0.16570  0.00920  0.95380  Biso   1.000  C
  C261     1.0000 0.12340  0.02220  0.92310  Biso   1.000  C
  H223     1.0000 0.10560  0.98930  0.90530  Biso   1.000  H
  C262     1.0000 0.10760  0.08340  0.91890  Biso   1.000  C
  C263     1.0000 0.13440  0.13280  0.94630  Biso   1.000  C
  H224     1.0000 0.12370  0.17410  0.94400  Biso   1.000  H
  C264     1.0000 0.17640  0.12090  0.97650  Biso   1.000  C
  C265     1.0000 0.19210  0.05870  0.98100  Biso   1.000  C
  H225     1.0000 0.22020  0.05020  0.00220  Biso   1.000  H
  C266     1.0000 0.20500  0.17410  0.00420  Biso   1.000  C
  C267     1.0000 0.06380  0.09830  0.88810  Biso   1.000  C
  C268     1.0000 0.02790  0.11550  0.86420  Biso   1.000  C
  C269     1.0000 0.98640  0.13630  0.84130  Biso   1.000  C
  C270     1.0000 0.95000  0.15680  0.82320  Biso   1.000  C
  C271     1.0000 0.90710  0.18520  0.80670  Biso   1.000  C
  C272     1.0000 0.89600  0.21290  0.74410  Biso   1.000  C
  H226     1.0000 0.91630  0.21180  0.71010  Biso   1.000  H
  C273     1.0000 0.85530  0.24200  0.73100  Biso   1.000  C
  C274     1.0000 0.82510  0.24410  0.78140  Biso   1.000  C
  H227     1.0000 0.79760  0.26400  0.77250  Biso   1.000  H
  C275     1.0000 0.83540  0.21670  0.84540  Biso   1.000  C
  C276     1.0000 0.87610  0.18760  0.85890  Biso   1.000  C
  H228     1.0000 0.88330  0.16950  0.90170  Biso   1.000  H
  C277     1.0000 0.84320  0.27260  0.66270  Biso   1.000  C
  C278     1.0000 0.80290  0.22070  0.89990  Biso   1.000  C
  C279     1.0000 0.33670  0.04360  0.07530  Biso   1.000  C
  C280     1.0000 0.35160  0.97850  0.09350  Biso   1.000  C
  C281     1.0000 0.39050  0.97030  0.13570  Biso   1.000  C
  H229     1.0000 0.40630  0.00540  0.15310  Biso   1.000  H
  C282     1.0000 0.40590  0.90920  0.15210  Biso   1.000  C
  C283     1.0000 0.38170  0.85710  0.12750  Biso   1.000  C
  H230     1.0000 0.39180  0.81650  0.13860  Biso   1.000  H
  C284     1.0000 0.34270  0.86510  0.08680  Biso   1.000  C
  C285     1.0000 0.32760  0.92570  0.06950  Biso   1.000  C
  H231     1.0000 0.30140  0.93090  0.04170  Biso   1.000  H
  C286     1.0000 0.31680  0.80780  0.06300  Biso   1.000  C
  C287     1.0000 0.44570  0.90280  0.19660  Biso   1.000  C
  C288     1.0000 0.48020  0.90070  0.23040  Biso   1.000  C
  C289     1.0000 0.42430  0.18130  0.00730  Biso   1.000  C
  H232     1.0000 0.42780  0.19790  0.05150  Biso   1.000  H
  C290     1.0000 0.45240  0.16190  0.89840  Biso   1.000  C
  H233     1.0000 0.43440  0.12440  0.89750  Biso   1.000  H
  H234     1.0000 0.43720  0.19420  0.87120  Biso   1.000  H
  H235     1.0000 0.48070  0.15280  0.88000  Biso   1.000  H
  C291     1.0000 0.49980  0.21730  0.99400  Biso   1.000  C
  H236     1.0000 0.49820  0.22680  0.04190  Biso   1.000  H
  H237     1.0000 0.52560  0.19150  0.98800  Biso   1.000  H
  H238     1.0000 0.50220  0.25600  0.96870  Biso   1.000  H
  C292     1.0000 0.29750  0.89960  0.84400  Biso   1.000  C
  H239     1.0000 0.29130  0.87080  0.80860  Biso   1.000  H
  C293     1.0000 0.35410  0.93560  0.77690  Biso   1.000  C
  H240     1.0000 0.33680  0.93500  0.73370  Biso   1.000  H
  H241     1.0000 0.37700  0.96730  0.77580  Biso   1.000  H
  H242     1.0000 0.36770  0.89500  0.78520  Biso   1.000  H
  C294     1.0000 0.35640  0.94960  0.89740  Biso   1.000  C
  H243     1.0000 0.34050  0.95990  0.93700  Biso   1.000  H
  H244     1.0000 0.36930  0.90820  0.90300  Biso   1.000  H
  H245     1.0000 0.37970  0.98010  0.89250  Biso   1.000  H
  N25      1.0000 0.46000  0.18400  0.96910  Biso   1.000  N
  N26      1.0000 0.32410  0.95060  0.83350  Biso   1.000  N
  O123     1.0000 0.36560  0.08720  0.09300  Biso   1.000  O
  O124     1.0000 0.30160  0.05300  0.04300  Biso   1.000  O
  O125     1.0000 0.38180  0.18330  0.97750  Biso   1.000  O
  O126     1.0000 0.27490  0.88950  0.88230  Biso   1.000  O
  C295     1.0000 0.33840  0.04430  0.07510  Biso   1.000  C
  C296     1.0000 0.40830  0.13730  0.98850  Biso   1.000  C
  H246     1.0000 0.40290  0.10380  0.01760  Biso   1.000  H
  C297     1.0000 0.44010  0.20490  0.91650  Biso   1.000  C
  H247     1.0000 0.46270  0.21000  0.88430  Biso   1.000  H
  H248     1.0000 0.41100  0.20630  0.89260  Biso   1.000  H
  H249     1.0000 0.44270  0.23840  0.94980  Biso   1.000  H
  C298     1.0000 0.48500  0.12290  0.96440  Biso   1.000  C
  H250     1.0000 0.48500  0.08860  0.99660  Biso   1.000  H
  H251     1.0000 0.49670  0.10850  0.92250  Biso   1.000  H
  H252     1.0000 0.50350  0.15650  0.98350  Biso   1.000  H
  C299     1.0000 0.30510  0.92920  0.88940  Biso   1.000  C
  H253     1.0000 0.30380  0.95880  0.92450  Biso   1.000  H
  C300     1.0000 0.32360  0.91920  0.77620  Biso   1.000  C
  H254     1.0000 0.31140  0.87730  0.77300  Biso   1.000  H
  H255     1.0000 0.30070  0.94930  0.76230  Biso   1.000  H
  H256     1.0000 0.34790  0.92270  0.74670  Biso   1.000  H
  C301     1.0000 0.36130  0.99610  0.85290  Biso   1.000  C
  H257     1.0000 0.37310  0.00350  0.89920  Biso   1.000  H
  H258     1.0000 0.38510  0.99830  0.82240  Biso   1.000  H
  H259     1.0000 0.33920  0.02750  0.84020  Biso   1.000  H
  N27      1.0000 0.44630  0.14240  0.95230  Biso   1.000  N
  N28      1.0000 0.34030  0.93210  0.84820  Biso   1.000  N
  Tb15     1.0000 0.72368  0.32578  0.94180  Biso   1.000  Tb
  Tb16     1.0000 0.81885  0.66914  0.03757  Biso   1.000  Tb
  O127     1.0000 0.72008  0.43210  0.98690  Biso   1.000  O
  O128     1.0000 0.65986  0.39930  0.92790  Biso   1.000  O
  O129     1.0000 0.74251  0.66110  0.03210  Biso   1.000  O
  O130     1.0000 0.68995  0.72890  0.99820  Biso   1.000  O
  O131     1.0000 0.37258  0.77700  0.61980  Biso   1.000  O
  O132     1.0000 0.30436  0.79210  0.64960  Biso   1.000  O
  O133     1.0000 0.31163  0.69070  0.95510  Biso   1.000  O
  O134     1.0000 0.26859  0.75460  0.88710  Biso   1.000  O
  O135     1.0000 0.84600  0.58910  0.11430  Biso   1.000  O
  O136     1.0000 0.81290  0.55520  0.02200  Biso   1.000  O
  O137     1.0000 0.78407  0.31420  0.02010  Biso   1.000  O
  O138     1.0000 0.82892  0.25520  0.08750  Biso   1.000  O
  O139     1.0000 0.88670  0.65840  0.98860  Biso   1.000  O
  O140     1.0000 0.78140  0.39140  0.90050  Biso   1.000  O
  C302     1.0000 0.68240  0.44280  0.95660  Biso   1.000  C
  C303     1.0000 0.66570  0.50920  0.95380  Biso   1.000  C
  C304     1.0000 0.62340  0.52220  0.92310  Biso   1.000  C
  H260     1.0000 0.60560  0.48930  0.90530  Biso   1.000  H
  C305     1.0000 0.60760  0.58340  0.91890  Biso   1.000  C
  C306     1.0000 0.63440  0.63280  0.94630  Biso   1.000  C
  H261     1.0000 0.62370  0.67410  0.94400  Biso   1.000  H
  C307     1.0000 0.67640  0.62090  0.97650  Biso   1.000  C
  C308     1.0000 0.69210  0.55870  0.98100  Biso   1.000  C
  H262     1.0000 0.72020  0.55020  0.00220  Biso   1.000  H
  C309     1.0000 0.70500  0.67410  0.00420  Biso   1.000  C
  C310     1.0000 0.56380  0.59830  0.88810  Biso   1.000  C
  C311     1.0000 0.52790  0.61550  0.86420  Biso   1.000  C
  C312     1.0000 0.48640  0.63630  0.84130  Biso   1.000  C
  C313     1.0000 0.45000  0.65680  0.82320  Biso   1.000  C
  C314     1.0000 0.40710  0.68520  0.80670  Biso   1.000  C
  C315     1.0000 0.39600  0.71290  0.74410  Biso   1.000  C
  H263     1.0000 0.41630  0.71180  0.71010  Biso   1.000  H
  C316     1.0000 0.35530  0.74200  0.73100  Biso   1.000  C
  C317     1.0000 0.32510  0.74410  0.78140  Biso   1.000  C
  H264     1.0000 0.29760  0.76400  0.77250  Biso   1.000  H
  C318     1.0000 0.33540  0.71670  0.84540  Biso   1.000  C
  C319     1.0000 0.37610  0.68760  0.85890  Biso   1.000  C
  H265     1.0000 0.38330  0.66950  0.90170  Biso   1.000  H
  C320     1.0000 0.34320  0.77260  0.66270  Biso   1.000  C
  C321     1.0000 0.30290  0.72070  0.89990  Biso   1.000  C
  C322     1.0000 0.83670  0.54360  0.07530  Biso   1.000  C
  C323     1.0000 0.85160  0.47850  0.09350  Biso   1.000  C
  C324     1.0000 0.89050  0.47030  0.13570  Biso   1.000  C
  H266     1.0000 0.90630  0.50540  0.15310  Biso   1.000  H
  C325     1.0000 0.90590  0.40920  0.15210  Biso   1.000  C
  C326     1.0000 0.88170  0.35710  0.12750  Biso   1.000  C
  H267     1.0000 0.89180  0.31650  0.13860  Biso   1.000  H
  C327     1.0000 0.84270  0.36510  0.08680  Biso   1.000  C
  C328     1.0000 0.82760  0.42570  0.06950  Biso   1.000  C
  H268     1.0000 0.80140  0.43090  0.04170  Biso   1.000  H
  C329     1.0000 0.81680  0.30780  0.06300  Biso   1.000  C
  C330     1.0000 0.94570  0.40280  0.19660  Biso   1.000  C
  C331     1.0000 0.98020  0.40070  0.23040  Biso   1.000  C
  C332     1.0000 0.92430  0.68130  0.00730  Biso   1.000  C
  H269     1.0000 0.92780  0.69790  0.05150  Biso   1.000  H
  C333     1.0000 0.95240  0.66190  0.89840  Biso   1.000  C
  H270     1.0000 0.93440  0.62440  0.89750  Biso   1.000  H
  H271     1.0000 0.93720  0.69420  0.87120  Biso   1.000  H
  H272     1.0000 0.98070  0.65280  0.88000  Biso   1.000  H
  C334     1.0000 0.99980  0.71730  0.99400  Biso   1.000  C
  H273     1.0000 0.99820  0.72680  0.04190  Biso   1.000  H
  H274     1.0000 0.02560  0.69150  0.98800  Biso   1.000  H
  H275     1.0000 0.00220  0.75600  0.96870  Biso   1.000  H
  C335     1.0000 0.79750  0.39960  0.84400  Biso   1.000  C
  H276     1.0000 0.79130  0.37080  0.80860  Biso   1.000  H
  C336     1.0000 0.85410  0.43560  0.77690  Biso   1.000  C
  H277     1.0000 0.83680  0.43500  0.73370  Biso   1.000  H
  H278     1.0000 0.87700  0.46730  0.77580  Biso   1.000  H
  H279     1.0000 0.86770  0.39500  0.78520  Biso   1.000  H
  C337     1.0000 0.85640  0.44960  0.89740  Biso   1.000  C
  H280     1.0000 0.84050  0.45990  0.93700  Biso   1.000  H
  H281     1.0000 0.86930  0.40820  0.90300  Biso   1.000  H
  H282     1.0000 0.87970  0.48010  0.89250  Biso   1.000  H
  N29      1.0000 0.96000  0.68400  0.96910  Biso   1.000  N
  N30      1.0000 0.82410  0.45060  0.83350  Biso   1.000  N
  O141     1.0000 0.86560  0.58720  0.09300  Biso   1.000  O
  O142     1.0000 0.80160  0.55300  0.04300  Biso   1.000  O
  O143     1.0000 0.88180  0.68330  0.97750  Biso   1.000  O
  O144     1.0000 0.77490  0.38950  0.88230  Biso   1.000  O
  C338     1.0000 0.83840  0.54430  0.07510  Biso   1.000  C
  C339     1.0000 0.90830  0.63730  0.98850  Biso   1.000  C
  H283     1.0000 0.90290  0.60380  0.01760  Biso   1.000  H
  C340     1.0000 0.94010  0.70490  0.91650  Biso   1.000  C
  H284     1.0000 0.96270  0.71000  0.88430  Biso   1.000  H
  H285     1.0000 0.91100  0.70630  0.89260  Biso   1.000  H
  H286     1.0000 0.94270  0.73840  0.94980  Biso   1.000  H
  C341     1.0000 0.98500  0.62290  0.96440  Biso   1.000  C
  H287     1.0000 0.98500  0.58860  0.99660  Biso   1.000  H
  H288     1.0000 0.99670  0.60850  0.92250  Biso   1.000  H
  H289     1.0000 0.00350  0.65650  0.98350  Biso   1.000  H
  C342     1.0000 0.80510  0.42920  0.88940  Biso   1.000  C
  H290     1.0000 0.80380  0.45880  0.92450  Biso   1.000  H
  C343     1.0000 0.82360  0.41920  0.77620  Biso   1.000  C
  H291     1.0000 0.81140  0.37730  0.77300  Biso   1.000  H
  H292     1.0000 0.80070  0.44930  0.76230  Biso   1.000  H
  H293     1.0000 0.84790  0.42270  0.74670  Biso   1.000  H
  C344     1.0000 0.86130  0.49610  0.85290  Biso   1.000  C
  H294     1.0000 0.87310  0.50350  0.89920  Biso   1.000  H
  H295     1.0000 0.88510  0.49830  0.82240  Biso   1.000  H
  H296     1.0000 0.83920  0.52750  0.84020  Biso   1.000  H
  N31      1.0000 0.94630  0.64240  0.95230  Biso   1.000  N
  N32      1.0000 0.84030  0.43210  0.84820  Biso   1.000  N
