data_image0
_cell_length_a       61.1492
_cell_length_b       15.5084
_cell_length_c       17.77
_cell_angle_alpha    90
_cell_angle_beta     95.6666
_cell_angle_gamma    90

_symmetry_space_group_name_H-M    "P 1"
_symmetry_int_tables_number       1

loop_
  _symmetry_equiv_pos_as_xyz
  'x, y, z'

loop_
  _atom_site_label
  _atom_site_occupancy
  _atom_site_fract_x
  _atom_site_fract_y
  _atom_site_fract_z
  _atom_site_thermal_displace_type
  _atom_site_B_iso_or_equiv
  _atom_site_type_symbol
  Cu1      1.0000 0.15451  0.05627  0.52131  Biso   1.000  Cu
  Cu2      1.0000 0.29270  0.19371  0.63561  Biso   1.000  Cu
  O1       1.0000 0.13848  0.09700  0.42010  Biso   1.000  O
  O2       1.0000 0.29820  0.13890  0.54008  Biso   1.000  O
  O3       1.0000 0.17086  0.01790  0.62100  Biso   1.000  O
  O4       1.0000 0.15147  0.18200  0.57570  Biso   1.000  O
  O5       1.0000 0.16038  0.92630  0.47860  Biso   1.000  O
  O6       1.0000 0.12716  0.01560  0.55620  Biso   1.000  O
  O7       1.0000 0.28512  0.25790  0.72620  Biso   1.000  O
  O8       1.0000 0.32721  0.19380  0.69190  Biso   1.000  O
  O9       1.0000 0.01348  0.11130  0.47030  Biso   1.000  O
  O10      1.0000 0.97427  0.01640  0.40820  Biso   1.000  O
  O11      1.0000 0.02457  0.74550  0.19050  Biso   1.000  O
  O12      1.0000 0.98638  0.64020  0.18070  Biso   1.000  O
  N1       1.0000 0.01845  0.93450  0.42820  Biso   1.000  N
  N2       1.0000 0.01829  0.83890  0.32520  Biso   1.000  N
  N3       1.0000 0.11733  0.09990  0.40690  Biso   1.000  N
  N4       1.0000 0.20347  0.19220  0.41690  Biso   1.000  N
  N5       1.0000 0.18273  0.09230  0.47980  Biso   1.000  N
  N6       1.0000 0.29994  0.05600  0.53220  Biso   1.000  N
  C1       1.0000 0.04004  0.94800  0.42580  Biso   1.000  C
  H1       1.0000 0.04750  0.98570  0.46190  Biso   1.000  H
  C2       1.0000 0.00845  0.87970  0.37870  Biso   1.000  C
  H2       1.0000 0.99330  0.86880  0.38160  Biso   1.000  H
  C3       1.0000 0.03972  0.85370  0.32240  Biso   1.000  C
  H3       1.0000 0.04700  0.82540  0.28460  Biso   1.000  H
  C4       1.0000 0.05185  0.90910  0.37300  Biso   1.000  C
  C5       1.0000 0.07549  0.92630  0.36600  Biso   1.000  C
  C6       1.0000 0.08492  0.00430  0.39020  Biso   1.000  C
  H4       1.0000 0.07630  0.04620  0.41300  Biso   1.000  H
  C7       1.0000 0.10686  0.02140  0.38150  Biso   1.000  C
  C8       1.0000 0.11941  0.96050  0.34740  Biso   1.000  C
  H5       1.0000 0.13430  0.97220  0.34070  Biso   1.000  H
  C9       1.0000 0.11011  0.88380  0.32340  Biso   1.000  C
  H6       1.0000 0.11870  0.84230  0.30020  Biso   1.000  H
  C10      1.0000 0.08837  0.86580  0.33270  Biso   1.000  C
  H7       1.0000 0.08220  0.81190  0.31640  Biso   1.000  H
  C11      1.0000 0.10604  0.18530  0.41330  Biso   1.000  C
  C12      1.0000 0.08997  0.19880  0.34320  Biso   1.000  C
  H8       1.0000 0.07870  0.15360  0.34050  Biso   1.000  H
  H9       1.0000 0.09790  0.19630  0.29790  Biso   1.000  H
  H10      1.0000 0.08290  0.25540  0.34590  Biso   1.000  H
  C13      1.0000 0.09511  0.18800  0.48740  Biso   1.000  C
  H11      1.0000 0.08380  0.14330  0.48650  Biso   1.000  H
  H12      1.0000 0.08840  0.24470  0.49290  Biso   1.000  H
  H13      1.0000 0.10620  0.17780  0.53010  Biso   1.000  H
  C14      1.0000 0.12379  0.25520  0.41650  Biso   1.000  C
  H14      1.0000 0.13100  0.25410  0.36960  Biso   1.000  H
  H15      1.0000 0.13470  0.24440  0.45960  Biso   1.000  H
  H16      1.0000 0.11700  0.31180  0.42230  Biso   1.000  H
  C15      1.0000 0.22100  0.14070  0.42730  Biso   1.000  C
  H17      1.0000 0.23410  0.15700  0.40650  Biso   1.000  H
  C16      1.0000 0.18479  0.16630  0.44350  Biso   1.000  C
  H18      1.0000 0.17230  0.20300  0.43610  Biso   1.000  H
  C17      1.0000 0.20061  0.04170  0.49300  Biso   1.000  C
  H19      1.0000 0.19950  0.98940  0.52020  Biso   1.000  H
  C18      1.0000 0.22068  0.06380  0.46770  Biso   1.000  C
  C19      1.0000 0.24091  0.01280  0.48570  Biso   1.000  C
  C20      1.0000 0.26094  0.05480  0.49850  Biso   1.000  C
  H20      1.0000 0.26150  0.11580  0.49350  Biso   1.000  H
  C21      1.0000 0.28025  0.00890  0.51850  Biso   1.000  C
  C22      1.0000 0.27919  0.91920  0.52630  Biso   1.000  C
  H21      1.0000 0.29210  0.88690  0.54100  Biso   1.000  H
  C23      1.0000 0.25933  0.87850  0.51250  Biso   1.000  C
  H22      1.0000 0.25880  0.81750  0.51700  Biso   1.000  H
  C24      1.0000 0.24016  0.92290  0.49240  Biso   1.000  C
  H23      1.0000 0.22660  0.89300  0.48320  Biso   1.000  H
  C25      1.0000 0.32295  0.01870  0.53550  Biso   1.000  C
  C26      1.0000 0.32454  0.96530  0.46410  Biso   1.000  C
  H24      1.0000 0.31450  0.91620  0.46390  Biso   1.000  H
  H25      1.0000 0.32060  0.00120  0.41950  Biso   1.000  H
  H26      1.0000 0.33960  0.94420  0.46320  Biso   1.000  H
  C27      1.0000 0.33894  0.09440  0.53510  Biso   1.000  C
  H27      1.0000 0.33590  0.12720  0.48810  Biso   1.000  H
  H28      1.0000 0.33720  0.13210  0.57840  Biso   1.000  H
  H29      1.0000 0.35400  0.07260  0.53850  Biso   1.000  H
  C28      1.0000 0.32821  0.96870  0.60910  Biso   1.000  C
  H30      1.0000 0.31790  0.92040  0.61090  Biso   1.000  H
  H31      1.0000 0.34330  0.94640  0.61150  Biso   1.000  H
  H32      1.0000 0.32680  0.00700  0.65220  Biso   1.000  H
  C29      1.0000 0.17870  0.99630  0.75010  Biso   1.000  C
  C30      1.0000 0.16951  0.05130  0.68520  Biso   1.000  C
  C31      1.0000 0.16065  0.13130  0.70170  Biso   1.000  C
  H33      1.0000 0.15980  0.14610  0.75320  Biso   1.000  H
  C32      1.0000 0.15306  0.19020  0.64640  Biso   1.000  C
  C33      1.0000 0.14626  0.27890  0.67280  Biso   1.000  C
  C34      1.0000 0.15498  0.78030  0.45660  Biso   1.000  C
  C35      1.0000 0.14826  0.86480  0.49140  Biso   1.000  C
  C36      1.0000 0.12988  0.86470  0.53280  Biso   1.000  C
  H34      1.0000 0.12310  0.81100  0.54180  Biso   1.000  H
  C37      1.0000 0.12124  0.93790  0.56100  Biso   1.000  C
  C38      1.0000 0.10109  0.93010  0.60420  Biso   1.000  C
  C39      1.0000 0.28161  0.29120  0.85130  Biso   1.000  C
  C40      1.0000 0.29529  0.25520  0.79160  Biso   1.000  C
  C41      1.0000 0.31625  0.22620  0.81310  Biso   1.000  C
  H35      1.0000 0.32120  0.22510  0.86550  Biso   1.000  H
  C42      1.0000 0.33052  0.19860  0.76230  Biso   1.000  C
  C43      1.0000 0.35381  0.17270  0.79330  Biso   1.000  C
  C44      1.0000 0.02225  0.23180  0.40320  Biso   1.000  C
  C45      1.0000 0.00763  0.15470  0.41190  Biso   1.000  C
  C46      1.0000 0.99018  0.14060  0.35730  Biso   1.000  C
  H36      1.0000 0.98840  0.17910  0.31550  Biso   1.000  H
  C47      1.0000 0.97515  0.07350  0.35970  Biso   1.000  C
  C48      1.0000 0.95706  0.07050  0.29360  Biso   1.000  C
  C49      1.0000 0.05365  0.70190  0.12550  Biso   1.000  C
  C50      1.0000 0.03075  0.68450  0.14960  Biso   1.000  C
  C51      1.0000 0.01960  0.61110  0.12650  Biso   1.000  C
  H37      1.0000 0.02660  0.57020  0.09720  Biso   1.000  H
  C52      1.0000 0.99832  0.59410  0.14450  Biso   1.000  C
  C53      1.0000 0.98740  0.50180  0.11010  Biso   1.000  C
  F1       1.0000 0.20163  0.99190  0.75150  Biso   1.000  F
  F2       1.0000 0.17453  0.02000  0.81610  Biso   1.000  F
  F3       1.0000 0.17290  0.92060  0.75380  Biso   1.000  F
  F4       1.0000 0.19708  0.96040  0.73830  Biso   1.000  F
  F5       1.0000 0.18145  0.04250  0.82040  Biso   1.000  F
  F6       1.0000 0.16460  0.92330  0.74950  Biso   1.000  F
  F7       1.0000 0.14270  0.27690  0.74300  Biso   1.000  F
  F8       1.0000 0.13320  0.32270  0.62090  Biso   1.000  F
  F9       1.0000 0.16500  0.32850  0.69640  Biso   1.000  F
  F10      1.0000 0.14550  0.29330  0.74220  Biso   1.000  F
  F11      1.0000 0.12130  0.26910  0.67850  Biso   1.000  F
  F12      1.0000 0.15550  0.34200  0.64770  Biso   1.000  F
  F13      1.0000 0.15640  0.29920  0.74330  Biso   1.000  F
  F14      1.0000 0.16620  0.33150  0.66190  Biso   1.000  F
  F15      1.0000 0.12670  0.29890  0.63220  Biso   1.000  F
  F16      1.0000 0.13330  0.28040  0.72840  Biso   1.000  F
  F17      1.0000 0.14250  0.33870  0.62760  Biso   1.000  F
  F18      1.0000 0.15969  0.79170  0.38560  Biso   1.000  F
  F19      1.0000 0.16900  0.73850  0.49680  Biso   1.000  F
  F20      1.0000 0.14009  0.71480  0.46330  Biso   1.000  F
  F21      1.0000 0.15100  0.71170  0.49450  Biso   1.000  F
  F22      1.0000 0.15050  0.77500  0.38630  Biso   1.000  F
  F23      1.0000 0.17590  0.75440  0.48990  Biso   1.000  F
  F24      1.0000 0.13840  0.73680  0.42340  Biso   1.000  F
  F25      1.0000 0.17810  0.77260  0.46470  Biso   1.000  F
  F26      1.0000 0.10500  0.92230  0.67170  Biso   1.000  F
  F27      1.0000 0.08850  0.86180  0.58680  Biso   1.000  F
  F28      1.0000 0.08600  0.00070  0.58630  Biso   1.000  F
  F29      1.0000 0.08405  0.97350  0.57040  Biso   1.000  F
  F30      1.0000 0.10650  0.95340  0.67760  Biso   1.000  F
  F31      1.0000 0.09550  0.83740  0.60750  Biso   1.000  F
  F32      1.0000 0.09780  0.85640  0.63490  Biso   1.000  F
  F33      1.0000 0.08350  0.94010  0.56410  Biso   1.000  F
  F34      1.0000 0.10250  0.98250  0.66710  Biso   1.000  F
  F35      1.0000 0.25975  0.26290  0.84110  Biso   1.000  F
  F36      1.0000 0.28770  0.26420  0.92150  Biso   1.000  F
  F37      1.0000 0.28010  0.37450  0.85220  Biso   1.000  F
  F38      1.0000 0.20330  0.14570  0.10690  Biso   1.000  F
  F39      1.0000 0.22820  0.13220  0.16980  Biso   1.000  F
  F40      1.0000 0.22120  0.26830  0.09940  Biso   1.000  F
  F41      1.0000 0.23420  0.16970  0.17230  Biso   1.000  F
  F42      1.0000 0.23520  0.26890  0.13730  Biso   1.000  F
  F43      1.0000 0.20780  0.19360  0.08050  Biso   1.000  F
  F44      1.0000 0.35620  0.16740  0.86950  Biso   1.000  F
  F45      1.0000 0.36630  0.14710  0.75300  Biso   1.000  F
  F46      1.0000 0.36697  0.25360  0.78460  Biso   1.000  F
  F47      1.0000 0.14080  0.30700  0.13480  Biso   1.000  F
  F48      1.0000 0.14180  0.40720  0.22770  Biso   1.000  F
  F49      1.0000 0.13080  0.28740  0.22760  Biso   1.000  F
  F50      1.0000 0.14850  0.43070  0.20210  Biso   1.000  F
  F51      1.0000 0.14290  0.36860  0.14460  Biso   1.000  F
  F52      1.0000 0.13740  0.38820  0.25210  Biso   1.000  F
  F53      1.0000 0.01800  0.29510  0.44600  Biso   1.000  F
  F54      1.0000 0.02070  0.26340  0.33010  Biso   1.000  F
  F55      1.0000 0.04356  0.21660  0.42390  Biso   1.000  F
  F56      1.0000 0.04293  0.20430  0.40080  Biso   1.000  F
  F57      1.0000 0.02100  0.28620  0.46540  Biso   1.000  F
  F58      1.0000 0.01625  0.28080  0.34460  Biso   1.000  F
  F59      1.0000 0.96317  0.08270  0.22710  Biso   1.000  F
  F60      1.0000 0.94629  0.98470  0.29600  Biso   1.000  F
  F61      1.0000 0.94112  0.12330  0.30310  Biso   1.000  F
  F62      1.0000 0.96781  0.05100  0.23060  Biso   1.000  F
  F63      1.0000 0.94229  0.02050  0.29430  Biso   1.000  F
  F64      1.0000 0.94670  0.15490  0.28620  Biso   1.000  F
  F65      1.0000 0.05849  0.65100  0.06770  Biso   1.000  F
  F66      1.0000 0.05742  0.77420  0.10580  Biso   1.000  F
  F67      1.0000 0.06754  0.68610  0.19290  Biso   1.000  F
  F68      1.0000 0.06200  0.63260  0.09380  Biso   1.000  F
  F69      1.0000 0.05157  0.78120  0.08030  Biso   1.000  F
  F70      1.0000 0.06845  0.72040  0.17940  Biso   1.000  F
  F71      1.0000 0.00430  0.44350  0.11580  Biso   1.000  F
  F72      1.0000 0.97500  0.47600  0.16210  Biso   1.000  F
  F73      1.0000 0.97600  0.51860  0.04860  Biso   1.000  F
  F74      1.0000 0.98850  0.45510  0.18440  Biso   1.000  F
  F75      1.0000 0.99870  0.46460  0.06990  Biso   1.000  F
  F76      1.0000 0.96810  0.51020  0.10370  Biso   1.000  F
  Cu3      1.0000 0.65451  0.55627  0.52131  Biso   1.000  Cu
  Cu4      1.0000 0.79270  0.69371  0.63561  Biso   1.000  Cu
  O13      1.0000 0.63848  0.59700  0.42010  Biso   1.000  O
  O14      1.0000 0.79820  0.63890  0.54008  Biso   1.000  O
  O15      1.0000 0.67086  0.51790  0.62100  Biso   1.000  O
  O16      1.0000 0.65147  0.68200  0.57570  Biso   1.000  O
  O17      1.0000 0.66038  0.42630  0.47860  Biso   1.000  O
  O18      1.0000 0.62716  0.51560  0.55620  Biso   1.000  O
  O19      1.0000 0.78512  0.75790  0.72620  Biso   1.000  O
  O20      1.0000 0.82721  0.69380  0.69190  Biso   1.000  O
  O21      1.0000 0.51348  0.61130  0.47030  Biso   1.000  O
  O22      1.0000 0.47427  0.51640  0.40820  Biso   1.000  O
  O23      1.0000 0.52457  0.24550  0.19050  Biso   1.000  O
  O24      1.0000 0.48638  0.14020  0.18070  Biso   1.000  O
  N7       1.0000 0.51845  0.43450  0.42820  Biso   1.000  N
  N8       1.0000 0.51829  0.33890  0.32520  Biso   1.000  N
  N9       1.0000 0.61733  0.59990  0.40690  Biso   1.000  N
  N10      1.0000 0.70347  0.69220  0.41690  Biso   1.000  N
  N11      1.0000 0.68273  0.59230  0.47980  Biso   1.000  N
  N12      1.0000 0.79994  0.55600  0.53220  Biso   1.000  N
  C54      1.0000 0.54004  0.44800  0.42580  Biso   1.000  C
  H38      1.0000 0.54750  0.48570  0.46190  Biso   1.000  H
  C55      1.0000 0.50845  0.37970  0.37870  Biso   1.000  C
  H39      1.0000 0.49330  0.36880  0.38160  Biso   1.000  H
  C56      1.0000 0.53972  0.35370  0.32240  Biso   1.000  C
  H40      1.0000 0.54700  0.32540  0.28460  Biso   1.000  H
  C57      1.0000 0.55185  0.40910  0.37300  Biso   1.000  C
  C58      1.0000 0.57549  0.42630  0.36600  Biso   1.000  C
  C59      1.0000 0.58492  0.50430  0.39020  Biso   1.000  C
  H41      1.0000 0.57630  0.54620  0.41300  Biso   1.000  H
  C60      1.0000 0.60686  0.52140  0.38150  Biso   1.000  C
  C61      1.0000 0.61941  0.46050  0.34740  Biso   1.000  C
  H42      1.0000 0.63430  0.47220  0.34070  Biso   1.000  H
  C62      1.0000 0.61011  0.38380  0.32340  Biso   1.000  C
  H43      1.0000 0.61870  0.34230  0.30020  Biso   1.000  H
  C63      1.0000 0.58837  0.36580  0.33270  Biso   1.000  C
  H44      1.0000 0.58220  0.31190  0.31640  Biso   1.000  H
  C64      1.0000 0.60604  0.68530  0.41330  Biso   1.000  C
  C65      1.0000 0.58997  0.69880  0.34320  Biso   1.000  C
  H45      1.0000 0.57870  0.65360  0.34050  Biso   1.000  H
  H46      1.0000 0.59790  0.69630  0.29790  Biso   1.000  H
  H47      1.0000 0.58290  0.75540  0.34590  Biso   1.000  H
  C66      1.0000 0.59511  0.68800  0.48740  Biso   1.000  C
  H48      1.0000 0.58380  0.64330  0.48650  Biso   1.000  H
  H49      1.0000 0.58840  0.74470  0.49290  Biso   1.000  H
  H50      1.0000 0.60620  0.67780  0.53010  Biso   1.000  H
  C67      1.0000 0.62379  0.75520  0.41650  Biso   1.000  C
  H51      1.0000 0.63100  0.75410  0.36960  Biso   1.000  H
  H52      1.0000 0.63470  0.74440  0.45960  Biso   1.000  H
  H53      1.0000 0.61700  0.81180  0.42230  Biso   1.000  H
  C68      1.0000 0.72100  0.64070  0.42730  Biso   1.000  C
  H54      1.0000 0.73410  0.65700  0.40650  Biso   1.000  H
  C69      1.0000 0.68479  0.66630  0.44350  Biso   1.000  C
  H55      1.0000 0.67230  0.70300  0.43610  Biso   1.000  H
  C70      1.0000 0.70061  0.54170  0.49300  Biso   1.000  C
  H56      1.0000 0.69950  0.48940  0.52020  Biso   1.000  H
  C71      1.0000 0.72068  0.56380  0.46770  Biso   1.000  C
  C72      1.0000 0.74091  0.51280  0.48570  Biso   1.000  C
  C73      1.0000 0.76094  0.55480  0.49850  Biso   1.000  C
  H57      1.0000 0.76150  0.61580  0.49350  Biso   1.000  H
  C74      1.0000 0.78025  0.50890  0.51850  Biso   1.000  C
  C75      1.0000 0.77919  0.41920  0.52630  Biso   1.000  C
  H58      1.0000 0.79210  0.38690  0.54100  Biso   1.000  H
  C76      1.0000 0.75933  0.37850  0.51250  Biso   1.000  C
  H59      1.0000 0.75880  0.31750  0.51700  Biso   1.000  H
  C77      1.0000 0.74016  0.42290  0.49240  Biso   1.000  C
  H60      1.0000 0.72660  0.39300  0.48320  Biso   1.000  H
  C78      1.0000 0.82295  0.51870  0.53550  Biso   1.000  C
  C79      1.0000 0.82454  0.46530  0.46410  Biso   1.000  C
  H61      1.0000 0.81450  0.41620  0.46390  Biso   1.000  H
  H62      1.0000 0.82060  0.50120  0.41950  Biso   1.000  H
  H63      1.0000 0.83960  0.44420  0.46320  Biso   1.000  H
  C80      1.0000 0.83894  0.59440  0.53510  Biso   1.000  C
  H64      1.0000 0.83590  0.62720  0.48810  Biso   1.000  H
  H65      1.0000 0.83720  0.63210  0.57840  Biso   1.000  H
  H66      1.0000 0.85400  0.57260  0.53850  Biso   1.000  H
  C81      1.0000 0.82821  0.46870  0.60910  Biso   1.000  C
  H67      1.0000 0.81790  0.42040  0.61090  Biso   1.000  H
  H68      1.0000 0.84330  0.44640  0.61150  Biso   1.000  H
  H69      1.0000 0.82680  0.50700  0.65220  Biso   1.000  H
  C82      1.0000 0.67870  0.49630  0.75010  Biso   1.000  C
  C83      1.0000 0.66951  0.55130  0.68520  Biso   1.000  C
  C84      1.0000 0.66065  0.63130  0.70170  Biso   1.000  C
  H70      1.0000 0.65980  0.64610  0.75320  Biso   1.000  H
  C85      1.0000 0.65306  0.69020  0.64640  Biso   1.000  C
  C86      1.0000 0.64626  0.77890  0.67280  Biso   1.000  C
  C87      1.0000 0.65498  0.28030  0.45660  Biso   1.000  C
  C88      1.0000 0.64826  0.36480  0.49140  Biso   1.000  C
  C89      1.0000 0.62988  0.36470  0.53280  Biso   1.000  C
  H71      1.0000 0.62310  0.31100  0.54180  Biso   1.000  H
  C90      1.0000 0.62124  0.43790  0.56100  Biso   1.000  C
  C91      1.0000 0.60109  0.43010  0.60420  Biso   1.000  C
  C92      1.0000 0.78161  0.79120  0.85130  Biso   1.000  C
  C93      1.0000 0.79529  0.75520  0.79160  Biso   1.000  C
  C94      1.0000 0.81625  0.72620  0.81310  Biso   1.000  C
  H72      1.0000 0.82120  0.72510  0.86550  Biso   1.000  H
  C95      1.0000 0.83052  0.69860  0.76230  Biso   1.000  C
  C96      1.0000 0.85381  0.67270  0.79330  Biso   1.000  C
  C97      1.0000 0.52225  0.73180  0.40320  Biso   1.000  C
  C98      1.0000 0.50763  0.65470  0.41190  Biso   1.000  C
  C99      1.0000 0.49018  0.64060  0.35730  Biso   1.000  C
  H73      1.0000 0.48840  0.67910  0.31550  Biso   1.000  H
  C100     1.0000 0.47515  0.57350  0.35970  Biso   1.000  C
  C101     1.0000 0.45706  0.57050  0.29360  Biso   1.000  C
  C102     1.0000 0.55365  0.20190  0.12550  Biso   1.000  C
  C103     1.0000 0.53075  0.18450  0.14960  Biso   1.000  C
  C104     1.0000 0.51960  0.11110  0.12650  Biso   1.000  C
  H74      1.0000 0.52660  0.07020  0.09720  Biso   1.000  H
  C105     1.0000 0.49832  0.09410  0.14450  Biso   1.000  C
  C106     1.0000 0.48740  0.00180  0.11010  Biso   1.000  C
  F77      1.0000 0.70163  0.49190  0.75150  Biso   1.000  F
  F78      1.0000 0.67453  0.52000  0.81610  Biso   1.000  F
  F79      1.0000 0.67290  0.42060  0.75380  Biso   1.000  F
  F80      1.0000 0.69708  0.46040  0.73830  Biso   1.000  F
  F81      1.0000 0.68145  0.54250  0.82040  Biso   1.000  F
  F82      1.0000 0.66460  0.42330  0.74950  Biso   1.000  F
  F83      1.0000 0.64270  0.77690  0.74300  Biso   1.000  F
  F84      1.0000 0.63320  0.82270  0.62090  Biso   1.000  F
  F85      1.0000 0.66500  0.82850  0.69640  Biso   1.000  F
  F86      1.0000 0.64550  0.79330  0.74220  Biso   1.000  F
  F87      1.0000 0.62130  0.76910  0.67850  Biso   1.000  F
  F88      1.0000 0.65550  0.84200  0.64770  Biso   1.000  F
  F89      1.0000 0.65640  0.79920  0.74330  Biso   1.000  F
  F90      1.0000 0.66620  0.83150  0.66190  Biso   1.000  F
  F91      1.0000 0.62670  0.79890  0.63220  Biso   1.000  F
  F92      1.0000 0.63330  0.78040  0.72840  Biso   1.000  F
  F93      1.0000 0.64250  0.83870  0.62760  Biso   1.000  F
  F94      1.0000 0.65969  0.29170  0.38560  Biso   1.000  F
  F95      1.0000 0.66900  0.23850  0.49680  Biso   1.000  F
  F96      1.0000 0.64009  0.21480  0.46330  Biso   1.000  F
  F97      1.0000 0.65100  0.21170  0.49450  Biso   1.000  F
  F98      1.0000 0.65050  0.27500  0.38630  Biso   1.000  F
  F99      1.0000 0.67590  0.25440  0.48990  Biso   1.000  F
  F100     1.0000 0.63840  0.23680  0.42340  Biso   1.000  F
  F101     1.0000 0.67810  0.27260  0.46470  Biso   1.000  F
  F102     1.0000 0.60500  0.42230  0.67170  Biso   1.000  F
  F103     1.0000 0.58850  0.36180  0.58680  Biso   1.000  F
  F104     1.0000 0.58600  0.50070  0.58630  Biso   1.000  F
  F105     1.0000 0.58405  0.47350  0.57040  Biso   1.000  F
  F106     1.0000 0.60650  0.45340  0.67760  Biso   1.000  F
  F107     1.0000 0.59550  0.33740  0.60750  Biso   1.000  F
  F108     1.0000 0.59780  0.35640  0.63490  Biso   1.000  F
  F109     1.0000 0.58350  0.44010  0.56410  Biso   1.000  F
  F110     1.0000 0.60250  0.48250  0.66710  Biso   1.000  F
  F111     1.0000 0.75975  0.76290  0.84110  Biso   1.000  F
  F112     1.0000 0.78770  0.76420  0.92150  Biso   1.000  F
  F113     1.0000 0.78010  0.87450  0.85220  Biso   1.000  F
  F114     1.0000 0.70330  0.64570  0.10690  Biso   1.000  F
  F115     1.0000 0.72820  0.63220  0.16980  Biso   1.000  F
  F116     1.0000 0.72120  0.76830  0.09940  Biso   1.000  F
  F117     1.0000 0.73420  0.66970  0.17230  Biso   1.000  F
  F118     1.0000 0.73520  0.76890  0.13730  Biso   1.000  F
  F119     1.0000 0.70780  0.69360  0.08050  Biso   1.000  F
  F120     1.0000 0.85620  0.66740  0.86950  Biso   1.000  F
  F121     1.0000 0.86630  0.64710  0.75300  Biso   1.000  F
  F122     1.0000 0.86697  0.75360  0.78460  Biso   1.000  F
  F123     1.0000 0.64080  0.80700  0.13480  Biso   1.000  F
  F124     1.0000 0.64180  0.90720  0.22770  Biso   1.000  F
  F125     1.0000 0.63080  0.78740  0.22760  Biso   1.000  F
  F126     1.0000 0.64850  0.93070  0.20210  Biso   1.000  F
  F127     1.0000 0.64290  0.86860  0.14460  Biso   1.000  F
  F128     1.0000 0.63740  0.88820  0.25210  Biso   1.000  F
  F129     1.0000 0.51800  0.79510  0.44600  Biso   1.000  F
  F130     1.0000 0.52070  0.76340  0.33010  Biso   1.000  F
  F131     1.0000 0.54356  0.71660  0.42390  Biso   1.000  F
  F132     1.0000 0.54293  0.70430  0.40080  Biso   1.000  F
  F133     1.0000 0.52100  0.78620  0.46540  Biso   1.000  F
  F134     1.0000 0.51625  0.78080  0.34460  Biso   1.000  F
  F135     1.0000 0.46317  0.58270  0.22710  Biso   1.000  F
  F136     1.0000 0.44629  0.48470  0.29600  Biso   1.000  F
  F137     1.0000 0.44112  0.62330  0.30310  Biso   1.000  F
  F138     1.0000 0.46781  0.55100  0.23060  Biso   1.000  F
  F139     1.0000 0.44229  0.52050  0.29430  Biso   1.000  F
  F140     1.0000 0.44670  0.65490  0.28620  Biso   1.000  F
  F141     1.0000 0.55849  0.15100  0.06770  Biso   1.000  F
  F142     1.0000 0.55742  0.27420  0.10580  Biso   1.000  F
  F143     1.0000 0.56754  0.18610  0.19290  Biso   1.000  F
  F144     1.0000 0.56200  0.13260  0.09380  Biso   1.000  F
  F145     1.0000 0.55157  0.28120  0.08030  Biso   1.000  F
  F146     1.0000 0.56845  0.22040  0.17940  Biso   1.000  F
  F147     1.0000 0.50430  0.94350  0.11580  Biso   1.000  F
  F148     1.0000 0.47500  0.97600  0.16210  Biso   1.000  F
  F149     1.0000 0.47600  0.01860  0.04860  Biso   1.000  F
  F150     1.0000 0.48850  0.95510  0.18440  Biso   1.000  F
  F151     1.0000 0.49870  0.96460  0.06990  Biso   1.000  F
  F152     1.0000 0.46810  0.01020  0.10370  Biso   1.000  F
  Cu5      1.0000 0.84549  0.05627  0.97869  Biso   1.000  Cu
  Cu6      1.0000 0.70730  0.19371  0.86439  Biso   1.000  Cu
  O25      1.0000 0.86152  0.09700  0.07990  Biso   1.000  O
  O26      1.0000 0.70180  0.13890  0.95992  Biso   1.000  O
  O27      1.0000 0.82914  0.01790  0.87900  Biso   1.000  O
  O28      1.0000 0.84853  0.18200  0.92430  Biso   1.000  O
  O29      1.0000 0.83962  0.92630  0.02140  Biso   1.000  O
  O30      1.0000 0.87284  0.01560  0.94380  Biso   1.000  O
  O31      1.0000 0.71488  0.25790  0.77380  Biso   1.000  O
  O32      1.0000 0.67279  0.19380  0.80810  Biso   1.000  O
  O33      1.0000 0.98652  0.11130  0.02970  Biso   1.000  O
  O34      1.0000 0.02573  0.01640  0.09180  Biso   1.000  O
  O35      1.0000 0.97543  0.74550  0.30950  Biso   1.000  O
  O36      1.0000 0.01362  0.64020  0.31930  Biso   1.000  O
  N13      1.0000 0.98155  0.93450  0.07180  Biso   1.000  N
  N14      1.0000 0.98171  0.83890  0.17480  Biso   1.000  N
  N15      1.0000 0.88267  0.09990  0.09310  Biso   1.000  N
  N16      1.0000 0.79653  0.19220  0.08310  Biso   1.000  N
  N17      1.0000 0.81727  0.09230  0.02020  Biso   1.000  N
  N18      1.0000 0.70006  0.05600  0.96780  Biso   1.000  N
  C107     1.0000 0.95996  0.94800  0.07420  Biso   1.000  C
  H75      1.0000 0.95250  0.98570  0.03810  Biso   1.000  H
  C108     1.0000 0.99155  0.87970  0.12130  Biso   1.000  C
  H76      1.0000 0.00670  0.86880  0.11840  Biso   1.000  H
  C109     1.0000 0.96028  0.85370  0.17760  Biso   1.000  C
  H77      1.0000 0.95300  0.82540  0.21540  Biso   1.000  H
  C110     1.0000 0.94815  0.90910  0.12700  Biso   1.000  C
  C111     1.0000 0.92451  0.92630  0.13400  Biso   1.000  C
  C112     1.0000 0.91508  0.00430  0.10980  Biso   1.000  C
  H78      1.0000 0.92370  0.04620  0.08700  Biso   1.000  H
  C113     1.0000 0.89314  0.02140  0.11850  Biso   1.000  C
  C114     1.0000 0.88059  0.96050  0.15260  Biso   1.000  C
  H79      1.0000 0.86570  0.97220  0.15930  Biso   1.000  H
  C115     1.0000 0.88989  0.88380  0.17660  Biso   1.000  C
  H80      1.0000 0.88130  0.84230  0.19980  Biso   1.000  H
  C116     1.0000 0.91163  0.86580  0.16730  Biso   1.000  C
  H81      1.0000 0.91780  0.81190  0.18360  Biso   1.000  H
  C117     1.0000 0.89396  0.18530  0.08670  Biso   1.000  C
  C118     1.0000 0.91003  0.19880  0.15680  Biso   1.000  C
  H82      1.0000 0.92130  0.15360  0.15950  Biso   1.000  H
  H83      1.0000 0.90210  0.19630  0.20210  Biso   1.000  H
  H84      1.0000 0.91710  0.25540  0.15410  Biso   1.000  H
  C119     1.0000 0.90489  0.18800  0.01260  Biso   1.000  C
  H85      1.0000 0.91620  0.14330  0.01350  Biso   1.000  H
  H86      1.0000 0.91160  0.24470  0.00710  Biso   1.000  H
  H87      1.0000 0.89380  0.17780  0.96990  Biso   1.000  H
  C120     1.0000 0.87621  0.25520  0.08350  Biso   1.000  C
  H88      1.0000 0.86900  0.25410  0.13040  Biso   1.000  H
  H89      1.0000 0.86530  0.24440  0.04040  Biso   1.000  H
  H90      1.0000 0.88300  0.31180  0.07770  Biso   1.000  H
  C121     1.0000 0.77900  0.14070  0.07270  Biso   1.000  C
  H91      1.0000 0.76590  0.15700  0.09350  Biso   1.000  H
  C122     1.0000 0.81521  0.16630  0.05650  Biso   1.000  C
  H92      1.0000 0.82770  0.20300  0.06390  Biso   1.000  H
  C123     1.0000 0.79939  0.04170  0.00700  Biso   1.000  C
  H93      1.0000 0.80050  0.98940  0.97980  Biso   1.000  H
  C124     1.0000 0.77932  0.06380  0.03230  Biso   1.000  C
  C125     1.0000 0.75909  0.01280  0.01430  Biso   1.000  C
  C126     1.0000 0.73906  0.05480  0.00150  Biso   1.000  C
  H94      1.0000 0.73850  0.11580  0.00650  Biso   1.000  H
  C127     1.0000 0.71975  0.00890  0.98150  Biso   1.000  C
  C128     1.0000 0.72081  0.91920  0.97370  Biso   1.000  C
  H95      1.0000 0.70790  0.88690  0.95900  Biso   1.000  H
  C129     1.0000 0.74067  0.87850  0.98750  Biso   1.000  C
  H96      1.0000 0.74120  0.81750  0.98300  Biso   1.000  H
  C130     1.0000 0.75984  0.92290  0.00760  Biso   1.000  C
  H97      1.0000 0.77340  0.89300  0.01680  Biso   1.000  H
  C131     1.0000 0.67705  0.01870  0.96450  Biso   1.000  C
  C132     1.0000 0.67546  0.96530  0.03590  Biso   1.000  C
  H98      1.0000 0.68550  0.91620  0.03610  Biso   1.000  H
  H99      1.0000 0.67940  0.00120  0.08050  Biso   1.000  H
  H100     1.0000 0.66040  0.94420  0.03680  Biso   1.000  H
  C133     1.0000 0.66106  0.09440  0.96490  Biso   1.000  C
  H101     1.0000 0.66410  0.12720  0.01190  Biso   1.000  H
  H102     1.0000 0.66280  0.13210  0.92160  Biso   1.000  H
  H103     1.0000 0.64600  0.07260  0.96150  Biso   1.000  H
  C134     1.0000 0.67179  0.96870  0.89090  Biso   1.000  C
  H104     1.0000 0.68210  0.92040  0.88910  Biso   1.000  H
  H105     1.0000 0.65670  0.94640  0.88850  Biso   1.000  H
  H106     1.0000 0.67320  0.00700  0.84780  Biso   1.000  H
  C135     1.0000 0.82130  0.99630  0.74990  Biso   1.000  C
  C136     1.0000 0.83049  0.05130  0.81480  Biso   1.000  C
  C137     1.0000 0.83935  0.13130  0.79830  Biso   1.000  C
  H107     1.0000 0.84020  0.14610  0.74680  Biso   1.000  H
  C138     1.0000 0.84694  0.19020  0.85360  Biso   1.000  C
  C139     1.0000 0.85374  0.27890  0.82720  Biso   1.000  C
  C140     1.0000 0.84502  0.78030  0.04340  Biso   1.000  C
  C141     1.0000 0.85174  0.86480  0.00860  Biso   1.000  C
  C142     1.0000 0.87012  0.86470  0.96720  Biso   1.000  C
  H108     1.0000 0.87690  0.81100  0.95820  Biso   1.000  H
  C143     1.0000 0.87876  0.93790  0.93900  Biso   1.000  C
  C144     1.0000 0.89891  0.93010  0.89580  Biso   1.000  C
  C145     1.0000 0.71839  0.29120  0.64870  Biso   1.000  C
  C146     1.0000 0.70471  0.25520  0.70840  Biso   1.000  C
  C147     1.0000 0.68375  0.22620  0.68690  Biso   1.000  C
  H109     1.0000 0.67880  0.22510  0.63450  Biso   1.000  H
  C148     1.0000 0.66948  0.19860  0.73770  Biso   1.000  C
  C149     1.0000 0.64619  0.17270  0.70670  Biso   1.000  C
  C150     1.0000 0.97775  0.23180  0.09680  Biso   1.000  C
  C151     1.0000 0.99237  0.15470  0.08810  Biso   1.000  C
  C152     1.0000 0.00982  0.14060  0.14270  Biso   1.000  C
  H110     1.0000 0.01160  0.17910  0.18450  Biso   1.000  H
  C153     1.0000 0.02485  0.07350  0.14030  Biso   1.000  C
  C154     1.0000 0.04294  0.07050  0.20640  Biso   1.000  C
  C155     1.0000 0.94635  0.70190  0.37450  Biso   1.000  C
  C156     1.0000 0.96925  0.68450  0.35040  Biso   1.000  C
  C157     1.0000 0.98040  0.61110  0.37350  Biso   1.000  C
  H111     1.0000 0.97340  0.57020  0.40280  Biso   1.000  H
  C158     1.0000 0.00168  0.59410  0.35550  Biso   1.000  C
  C159     1.0000 0.01260  0.50180  0.38990  Biso   1.000  C
  F153     1.0000 0.79837  0.99190  0.74850  Biso   1.000  F
  F154     1.0000 0.82547  0.02000  0.68390  Biso   1.000  F
  F155     1.0000 0.82710  0.92060  0.74620  Biso   1.000  F
  F156     1.0000 0.80292  0.96040  0.76170  Biso   1.000  F
  F157     1.0000 0.81855  0.04250  0.67960  Biso   1.000  F
  F158     1.0000 0.83540  0.92330  0.75050  Biso   1.000  F
  F159     1.0000 0.85730  0.27690  0.75700  Biso   1.000  F
  F160     1.0000 0.86680  0.32270  0.87910  Biso   1.000  F
  F161     1.0000 0.83500  0.32850  0.80360  Biso   1.000  F
  F162     1.0000 0.85450  0.29330  0.75780  Biso   1.000  F
  F163     1.0000 0.87870  0.26910  0.82150  Biso   1.000  F
  F164     1.0000 0.84450  0.34200  0.85230  Biso   1.000  F
  F165     1.0000 0.84360  0.29920  0.75670  Biso   1.000  F
  F166     1.0000 0.83380  0.33150  0.83810  Biso   1.000  F
  F167     1.0000 0.87330  0.29890  0.86780  Biso   1.000  F
  F168     1.0000 0.86670  0.28040  0.77160  Biso   1.000  F
  F169     1.0000 0.85750  0.33870  0.87240  Biso   1.000  F
  F170     1.0000 0.84031  0.79170  0.11440  Biso   1.000  F
  F171     1.0000 0.83100  0.73850  0.00320  Biso   1.000  F
  F172     1.0000 0.85991  0.71480  0.03670  Biso   1.000  F
  F173     1.0000 0.84900  0.71170  0.00550  Biso   1.000  F
  F174     1.0000 0.84950  0.77500  0.11370  Biso   1.000  F
  F175     1.0000 0.82410  0.75440  0.01010  Biso   1.000  F
  F176     1.0000 0.86160  0.73680  0.07660  Biso   1.000  F
  F177     1.0000 0.82190  0.77260  0.03530  Biso   1.000  F
  F178     1.0000 0.89500  0.92230  0.82830  Biso   1.000  F
  F179     1.0000 0.91150  0.86180  0.91320  Biso   1.000  F
  F180     1.0000 0.91400  0.00070  0.91370  Biso   1.000  F
  F181     1.0000 0.91595  0.97350  0.92960  Biso   1.000  F
  F182     1.0000 0.89350  0.95340  0.82240  Biso   1.000  F
  F183     1.0000 0.90450  0.83740  0.89250  Biso   1.000  F
  F184     1.0000 0.90220  0.85640  0.86510  Biso   1.000  F
  F185     1.0000 0.91650  0.94010  0.93590  Biso   1.000  F
  F186     1.0000 0.89750  0.98250  0.83290  Biso   1.000  F
  F187     1.0000 0.74025  0.26290  0.65890  Biso   1.000  F
  F188     1.0000 0.71230  0.26420  0.57850  Biso   1.000  F
  F189     1.0000 0.71990  0.37450  0.64780  Biso   1.000  F
  F190     1.0000 0.79670  0.14570  0.39310  Biso   1.000  F
  F191     1.0000 0.77180  0.13220  0.33020  Biso   1.000  F
  F192     1.0000 0.77880  0.26830  0.40060  Biso   1.000  F
  F193     1.0000 0.76580  0.16970  0.32770  Biso   1.000  F
  F194     1.0000 0.76480  0.26890  0.36270  Biso   1.000  F
  F195     1.0000 0.79220  0.19360  0.41950  Biso   1.000  F
  F196     1.0000 0.64380  0.16740  0.63050  Biso   1.000  F
  F197     1.0000 0.63370  0.14710  0.74700  Biso   1.000  F
  F198     1.0000 0.63303  0.25360  0.71540  Biso   1.000  F
  F199     1.0000 0.85920  0.30700  0.36520  Biso   1.000  F
  F200     1.0000 0.85820  0.40720  0.27230  Biso   1.000  F
  F201     1.0000 0.86920  0.28740  0.27240  Biso   1.000  F
  F202     1.0000 0.85150  0.43070  0.29790  Biso   1.000  F
  F203     1.0000 0.85710  0.36860  0.35540  Biso   1.000  F
  F204     1.0000 0.86260  0.38820  0.24790  Biso   1.000  F
  F205     1.0000 0.98200  0.29510  0.05400  Biso   1.000  F
  F206     1.0000 0.97930  0.26340  0.16990  Biso   1.000  F
  F207     1.0000 0.95644  0.21660  0.07610  Biso   1.000  F
  F208     1.0000 0.95707  0.20430  0.09920  Biso   1.000  F
  F209     1.0000 0.97900  0.28620  0.03460  Biso   1.000  F
  F210     1.0000 0.98375  0.28080  0.15540  Biso   1.000  F
  F211     1.0000 0.03683  0.08270  0.27290  Biso   1.000  F
  F212     1.0000 0.05371  0.98470  0.20400  Biso   1.000  F
  F213     1.0000 0.05888  0.12330  0.19690  Biso   1.000  F
  F214     1.0000 0.03219  0.05100  0.26940  Biso   1.000  F
  F215     1.0000 0.05771  0.02050  0.20570  Biso   1.000  F
  F216     1.0000 0.05330  0.15490  0.21380  Biso   1.000  F
  F217     1.0000 0.94151  0.65100  0.43230  Biso   1.000  F
  F218     1.0000 0.94258  0.77420  0.39420  Biso   1.000  F
  F219     1.0000 0.93246  0.68610  0.30710  Biso   1.000  F
  F220     1.0000 0.93800  0.63260  0.40620  Biso   1.000  F
  F221     1.0000 0.94843  0.78120  0.41970  Biso   1.000  F
  F222     1.0000 0.93155  0.72040  0.32060  Biso   1.000  F
  F223     1.0000 0.99570  0.44350  0.38420  Biso   1.000  F
  F224     1.0000 0.02500  0.47600  0.33790  Biso   1.000  F
  F225     1.0000 0.02400  0.51860  0.45140  Biso   1.000  F
  F226     1.0000 0.01150  0.45510  0.31560  Biso   1.000  F
  F227     1.0000 0.00130  0.46460  0.43010  Biso   1.000  F
  F228     1.0000 0.03190  0.51020  0.39630  Biso   1.000  F
  Cu7      1.0000 0.34549  0.55627  0.97869  Biso   1.000  Cu
  Cu8      1.0000 0.20730  0.69371  0.86439  Biso   1.000  Cu
  O37      1.0000 0.36152  0.59700  0.07990  Biso   1.000  O
  O38      1.0000 0.20180  0.63890  0.95992  Biso   1.000  O
  O39      1.0000 0.32914  0.51790  0.87900  Biso   1.000  O
  O40      1.0000 0.34853  0.68200  0.92430  Biso   1.000  O
  O41      1.0000 0.33962  0.42630  0.02140  Biso   1.000  O
  O42      1.0000 0.37284  0.51560  0.94380  Biso   1.000  O
  O43      1.0000 0.21488  0.75790  0.77380  Biso   1.000  O
  O44      1.0000 0.17279  0.69380  0.80810  Biso   1.000  O
  O45      1.0000 0.48652  0.61130  0.02970  Biso   1.000  O
  O46      1.0000 0.52573  0.51640  0.09180  Biso   1.000  O
  O47      1.0000 0.47543  0.24550  0.30950  Biso   1.000  O
  O48      1.0000 0.51362  0.14020  0.31930  Biso   1.000  O
  N19      1.0000 0.48155  0.43450  0.07180  Biso   1.000  N
  N20      1.0000 0.48171  0.33890  0.17480  Biso   1.000  N
  N21      1.0000 0.38267  0.59990  0.09310  Biso   1.000  N
  N22      1.0000 0.29653  0.69220  0.08310  Biso   1.000  N
  N23      1.0000 0.31727  0.59230  0.02020  Biso   1.000  N
  N24      1.0000 0.20006  0.55600  0.96780  Biso   1.000  N
  C160     1.0000 0.45996  0.44800  0.07420  Biso   1.000  C
  H112     1.0000 0.45250  0.48570  0.03810  Biso   1.000  H
  C161     1.0000 0.49155  0.37970  0.12130  Biso   1.000  C
  H113     1.0000 0.50670  0.36880  0.11840  Biso   1.000  H
  C162     1.0000 0.46028  0.35370  0.17760  Biso   1.000  C
  H114     1.0000 0.45300  0.32540  0.21540  Biso   1.000  H
  C163     1.0000 0.44815  0.40910  0.12700  Biso   1.000  C
  C164     1.0000 0.42451  0.42630  0.13400  Biso   1.000  C
  C165     1.0000 0.41508  0.50430  0.10980  Biso   1.000  C
  H115     1.0000 0.42370  0.54620  0.08700  Biso   1.000  H
  C166     1.0000 0.39314  0.52140  0.11850  Biso   1.000  C
  C167     1.0000 0.38059  0.46050  0.15260  Biso   1.000  C
  H116     1.0000 0.36570  0.47220  0.15930  Biso   1.000  H
  C168     1.0000 0.38989  0.38380  0.17660  Biso   1.000  C
  H117     1.0000 0.38130  0.34230  0.19980  Biso   1.000  H
  C169     1.0000 0.41163  0.36580  0.16730  Biso   1.000  C
  H118     1.0000 0.41780  0.31190  0.18360  Biso   1.000  H
  C170     1.0000 0.39396  0.68530  0.08670  Biso   1.000  C
  C171     1.0000 0.41003  0.69880  0.15680  Biso   1.000  C
  H119     1.0000 0.42130  0.65360  0.15950  Biso   1.000  H
  H120     1.0000 0.40210  0.69630  0.20210  Biso   1.000  H
  H121     1.0000 0.41710  0.75540  0.15410  Biso   1.000  H
  C172     1.0000 0.40489  0.68800  0.01260  Biso   1.000  C
  H122     1.0000 0.41620  0.64330  0.01350  Biso   1.000  H
  H123     1.0000 0.41160  0.74470  0.00710  Biso   1.000  H
  H124     1.0000 0.39380  0.67780  0.96990  Biso   1.000  H
  C173     1.0000 0.37621  0.75520  0.08350  Biso   1.000  C
  H125     1.0000 0.36900  0.75410  0.13040  Biso   1.000  H
  H126     1.0000 0.36530  0.74440  0.04040  Biso   1.000  H
  H127     1.0000 0.38300  0.81180  0.07770  Biso   1.000  H
  C174     1.0000 0.27900  0.64070  0.07270  Biso   1.000  C
  H128     1.0000 0.26590  0.65700  0.09350  Biso   1.000  H
  C175     1.0000 0.31521  0.66630  0.05650  Biso   1.000  C
  H129     1.0000 0.32770  0.70300  0.06390  Biso   1.000  H
  C176     1.0000 0.29939  0.54170  0.00700  Biso   1.000  C
  H130     1.0000 0.30050  0.48940  0.97980  Biso   1.000  H
  C177     1.0000 0.27932  0.56380  0.03230  Biso   1.000  C
  C178     1.0000 0.25909  0.51280  0.01430  Biso   1.000  C
  C179     1.0000 0.23906  0.55480  0.00150  Biso   1.000  C
  H131     1.0000 0.23850  0.61580  0.00650  Biso   1.000  H
  C180     1.0000 0.21975  0.50890  0.98150  Biso   1.000  C
  C181     1.0000 0.22081  0.41920  0.97370  Biso   1.000  C
  H132     1.0000 0.20790  0.38690  0.95900  Biso   1.000  H
  C182     1.0000 0.24067  0.37850  0.98750  Biso   1.000  C
  H133     1.0000 0.24120  0.31750  0.98300  Biso   1.000  H
  C183     1.0000 0.25984  0.42290  0.00760  Biso   1.000  C
  H134     1.0000 0.27340  0.39300  0.01680  Biso   1.000  H
  C184     1.0000 0.17705  0.51870  0.96450  Biso   1.000  C
  C185     1.0000 0.17546  0.46530  0.03590  Biso   1.000  C
  H135     1.0000 0.18550  0.41620  0.03610  Biso   1.000  H
  H136     1.0000 0.17940  0.50120  0.08050  Biso   1.000  H
  H137     1.0000 0.16040  0.44420  0.03680  Biso   1.000  H
  C186     1.0000 0.16106  0.59440  0.96490  Biso   1.000  C
  H138     1.0000 0.16410  0.62720  0.01190  Biso   1.000  H
  H139     1.0000 0.16280  0.63210  0.92160  Biso   1.000  H
  H140     1.0000 0.14600  0.57260  0.96150  Biso   1.000  H
  C187     1.0000 0.17179  0.46870  0.89090  Biso   1.000  C
  H141     1.0000 0.18210  0.42040  0.88910  Biso   1.000  H
  H142     1.0000 0.15670  0.44640  0.88850  Biso   1.000  H
  H143     1.0000 0.17320  0.50700  0.84780  Biso   1.000  H
  C188     1.0000 0.32130  0.49630  0.74990  Biso   1.000  C
  C189     1.0000 0.33049  0.55130  0.81480  Biso   1.000  C
  C190     1.0000 0.33935  0.63130  0.79830  Biso   1.000  C
  H144     1.0000 0.34020  0.64610  0.74680  Biso   1.000  H
  C191     1.0000 0.34694  0.69020  0.85360  Biso   1.000  C
  C192     1.0000 0.35374  0.77890  0.82720  Biso   1.000  C
  C193     1.0000 0.34502  0.28030  0.04340  Biso   1.000  C
  C194     1.0000 0.35174  0.36480  0.00860  Biso   1.000  C
  C195     1.0000 0.37012  0.36470  0.96720  Biso   1.000  C
  H145     1.0000 0.37690  0.31100  0.95820  Biso   1.000  H
  C196     1.0000 0.37876  0.43790  0.93900  Biso   1.000  C
  C197     1.0000 0.39891  0.43010  0.89580  Biso   1.000  C
  C198     1.0000 0.21839  0.79120  0.64870  Biso   1.000  C
  C199     1.0000 0.20471  0.75520  0.70840  Biso   1.000  C
  C200     1.0000 0.18375  0.72620  0.68690  Biso   1.000  C
  H146     1.0000 0.17880  0.72510  0.63450  Biso   1.000  H
  C201     1.0000 0.16948  0.69860  0.73770  Biso   1.000  C
  C202     1.0000 0.14619  0.67270  0.70670  Biso   1.000  C
  C203     1.0000 0.47775  0.73180  0.09680  Biso   1.000  C
  C204     1.0000 0.49237  0.65470  0.08810  Biso   1.000  C
  C205     1.0000 0.50982  0.64060  0.14270  Biso   1.000  C
  H147     1.0000 0.51160  0.67910  0.18450  Biso   1.000  H
  C206     1.0000 0.52485  0.57350  0.14030  Biso   1.000  C
  C207     1.0000 0.54294  0.57050  0.20640  Biso   1.000  C
  C208     1.0000 0.44635  0.20190  0.37450  Biso   1.000  C
  C209     1.0000 0.46925  0.18450  0.35040  Biso   1.000  C
  C210     1.0000 0.48040  0.11110  0.37350  Biso   1.000  C
  H148     1.0000 0.47340  0.07020  0.40280  Biso   1.000  H
  C211     1.0000 0.50168  0.09410  0.35550  Biso   1.000  C
  C212     1.0000 0.51260  0.00180  0.38990  Biso   1.000  C
  F229     1.0000 0.29837  0.49190  0.74850  Biso   1.000  F
  F230     1.0000 0.32547  0.52000  0.68390  Biso   1.000  F
  F231     1.0000 0.32710  0.42060  0.74620  Biso   1.000  F
  F232     1.0000 0.30292  0.46040  0.76170  Biso   1.000  F
  F233     1.0000 0.31855  0.54250  0.67960  Biso   1.000  F
  F234     1.0000 0.33540  0.42330  0.75050  Biso   1.000  F
  F235     1.0000 0.35730  0.77690  0.75700  Biso   1.000  F
  F236     1.0000 0.36680  0.82270  0.87910  Biso   1.000  F
  F237     1.0000 0.33500  0.82850  0.80360  Biso   1.000  F
  F238     1.0000 0.35450  0.79330  0.75780  Biso   1.000  F
  F239     1.0000 0.37870  0.76910  0.82150  Biso   1.000  F
  F240     1.0000 0.34450  0.84200  0.85230  Biso   1.000  F
  F241     1.0000 0.34360  0.79920  0.75670  Biso   1.000  F
  F242     1.0000 0.33380  0.83150  0.83810  Biso   1.000  F
  F243     1.0000 0.37330  0.79890  0.86780  Biso   1.000  F
  F244     1.0000 0.36670  0.78040  0.77160  Biso   1.000  F
  F245     1.0000 0.35750  0.83870  0.87240  Biso   1.000  F
  F246     1.0000 0.34031  0.29170  0.11440  Biso   1.000  F
  F247     1.0000 0.33100  0.23850  0.00320  Biso   1.000  F
  F248     1.0000 0.35991  0.21480  0.03670  Biso   1.000  F
  F249     1.0000 0.34900  0.21170  0.00550  Biso   1.000  F
  F250     1.0000 0.34950  0.27500  0.11370  Biso   1.000  F
  F251     1.0000 0.32410  0.25440  0.01010  Biso   1.000  F
  F252     1.0000 0.36160  0.23680  0.07660  Biso   1.000  F
  F253     1.0000 0.32190  0.27260  0.03530  Biso   1.000  F
  F254     1.0000 0.39500  0.42230  0.82830  Biso   1.000  F
  F255     1.0000 0.41150  0.36180  0.91320  Biso   1.000  F
  F256     1.0000 0.41400  0.50070  0.91370  Biso   1.000  F
  F257     1.0000 0.41595  0.47350  0.92960  Biso   1.000  F
  F258     1.0000 0.39350  0.45340  0.82240  Biso   1.000  F
  F259     1.0000 0.40450  0.33740  0.89250  Biso   1.000  F
  F260     1.0000 0.40220  0.35640  0.86510  Biso   1.000  F
  F261     1.0000 0.41650  0.44010  0.93590  Biso   1.000  F
  F262     1.0000 0.39750  0.48250  0.83290  Biso   1.000  F
  F263     1.0000 0.24025  0.76290  0.65890  Biso   1.000  F
  F264     1.0000 0.21230  0.76420  0.57850  Biso   1.000  F
  F265     1.0000 0.21990  0.87450  0.64780  Biso   1.000  F
  F266     1.0000 0.29670  0.64570  0.39310  Biso   1.000  F
  F267     1.0000 0.27180  0.63220  0.33020  Biso   1.000  F
  F268     1.0000 0.27880  0.76830  0.40060  Biso   1.000  F
  F269     1.0000 0.26580  0.66970  0.32770  Biso   1.000  F
  F270     1.0000 0.26480  0.76890  0.36270  Biso   1.000  F
  F271     1.0000 0.29220  0.69360  0.41950  Biso   1.000  F
  F272     1.0000 0.14380  0.66740  0.63050  Biso   1.000  F
  F273     1.0000 0.13370  0.64710  0.74700  Biso   1.000  F
  F274     1.0000 0.13303  0.75360  0.71540  Biso   1.000  F
  F275     1.0000 0.35920  0.80700  0.36520  Biso   1.000  F
  F276     1.0000 0.35820  0.90720  0.27230  Biso   1.000  F
  F277     1.0000 0.36920  0.78740  0.27240  Biso   1.000  F
  F278     1.0000 0.35150  0.93070  0.29790  Biso   1.000  F
  F279     1.0000 0.35710  0.86860  0.35540  Biso   1.000  F
  F280     1.0000 0.36260  0.88820  0.24790  Biso   1.000  F
  F281     1.0000 0.48200  0.79510  0.05400  Biso   1.000  F
  F282     1.0000 0.47930  0.76340  0.16990  Biso   1.000  F
  F283     1.0000 0.45644  0.71660  0.07610  Biso   1.000  F
  F284     1.0000 0.45707  0.70430  0.09920  Biso   1.000  F
  F285     1.0000 0.47900  0.78620  0.03460  Biso   1.000  F
  F286     1.0000 0.48375  0.78080  0.15540  Biso   1.000  F
  F287     1.0000 0.53683  0.58270  0.27290  Biso   1.000  F
  F288     1.0000 0.55371  0.48470  0.20400  Biso   1.000  F
  F289     1.0000 0.55888  0.62330  0.19690  Biso   1.000  F
  F290     1.0000 0.53219  0.55100  0.26940  Biso   1.000  F
  F291     1.0000 0.55771  0.52050  0.20570  Biso   1.000  F
  F292     1.0000 0.55330  0.65490  0.21380  Biso   1.000  F
  F293     1.0000 0.44151  0.15100  0.43230  Biso   1.000  F
  F294     1.0000 0.44258  0.27420  0.39420  Biso   1.000  F
  F295     1.0000 0.43246  0.18610  0.30710  Biso   1.000  F
  F296     1.0000 0.43800  0.13260  0.40620  Biso   1.000  F
  F297     1.0000 0.44843  0.28120  0.41970  Biso   1.000  F
  F298     1.0000 0.43155  0.22040  0.32060  Biso   1.000  F
  F299     1.0000 0.49570  0.94350  0.38420  Biso   1.000  F
  F300     1.0000 0.52500  0.97600  0.33790  Biso   1.000  F
  F301     1.0000 0.52400  0.01860  0.45140  Biso   1.000  F
  F302     1.0000 0.51150  0.95510  0.31560  Biso   1.000  F
  F303     1.0000 0.50130  0.96460  0.43010  Biso   1.000  F
  F304     1.0000 0.53190  0.01020  0.39630  Biso   1.000  F
  Cu9      1.0000 0.84549  0.94373  0.47869  Biso   1.000  Cu
  Cu10     1.0000 0.70730  0.80629  0.36439  Biso   1.000  Cu
  O49      1.0000 0.86152  0.90300  0.57990  Biso   1.000  O
  O50      1.0000 0.70180  0.86110  0.45992  Biso   1.000  O
  O51      1.0000 0.82914  0.98210  0.37900  Biso   1.000  O
  O52      1.0000 0.84853  0.81800  0.42430  Biso   1.000  O
  O53      1.0000 0.83962  0.07370  0.52140  Biso   1.000  O
  O54      1.0000 0.87284  0.98440  0.44380  Biso   1.000  O
  O55      1.0000 0.71488  0.74210  0.27380  Biso   1.000  O
  O56      1.0000 0.67279  0.80620  0.30810  Biso   1.000  O
  O57      1.0000 0.98652  0.88870  0.52970  Biso   1.000  O
  O58      1.0000 0.02573  0.98360  0.59180  Biso   1.000  O
  O59      1.0000 0.97543  0.25450  0.80950  Biso   1.000  O
  O60      1.0000 0.01362  0.35980  0.81930  Biso   1.000  O
  N25      1.0000 0.98155  0.06550  0.57180  Biso   1.000  N
  N26      1.0000 0.98171  0.16110  0.67480  Biso   1.000  N
  N27      1.0000 0.88267  0.90010  0.59310  Biso   1.000  N
  N28      1.0000 0.79653  0.80780  0.58310  Biso   1.000  N
  N29      1.0000 0.81727  0.90770  0.52020  Biso   1.000  N
  N30      1.0000 0.70006  0.94400  0.46780  Biso   1.000  N
  C213     1.0000 0.95996  0.05200  0.57420  Biso   1.000  C
  H149     1.0000 0.95250  0.01430  0.53810  Biso   1.000  H
  C214     1.0000 0.99155  0.12030  0.62130  Biso   1.000  C
  H150     1.0000 0.00670  0.13120  0.61840  Biso   1.000  H
  C215     1.0000 0.96028  0.14630  0.67760  Biso   1.000  C
  H151     1.0000 0.95300  0.17460  0.71540  Biso   1.000  H
  C216     1.0000 0.94815  0.09090  0.62700  Biso   1.000  C
  C217     1.0000 0.92451  0.07370  0.63400  Biso   1.000  C
  C218     1.0000 0.91508  0.99570  0.60980  Biso   1.000  C
  H152     1.0000 0.92370  0.95380  0.58700  Biso   1.000  H
  C219     1.0000 0.89314  0.97860  0.61850  Biso   1.000  C
  C220     1.0000 0.88059  0.03950  0.65260  Biso   1.000  C
  H153     1.0000 0.86570  0.02780  0.65930  Biso   1.000  H
  C221     1.0000 0.88989  0.11620  0.67660  Biso   1.000  C
  H154     1.0000 0.88130  0.15770  0.69980  Biso   1.000  H
  C222     1.0000 0.91163  0.13420  0.66730  Biso   1.000  C
  H155     1.0000 0.91780  0.18810  0.68360  Biso   1.000  H
  C223     1.0000 0.89396  0.81470  0.58670  Biso   1.000  C
  C224     1.0000 0.91003  0.80120  0.65680  Biso   1.000  C
  H156     1.0000 0.92130  0.84640  0.65950  Biso   1.000  H
  H157     1.0000 0.90210  0.80370  0.70210  Biso   1.000  H
  H158     1.0000 0.91710  0.74460  0.65410  Biso   1.000  H
  C225     1.0000 0.90489  0.81200  0.51260  Biso   1.000  C
  H159     1.0000 0.91620  0.85670  0.51350  Biso   1.000  H
  H160     1.0000 0.91160  0.75530  0.50710  Biso   1.000  H
  H161     1.0000 0.89380  0.82220  0.46990  Biso   1.000  H
  C226     1.0000 0.87621  0.74480  0.58350  Biso   1.000  C
  H162     1.0000 0.86900  0.74590  0.63040  Biso   1.000  H
  H163     1.0000 0.86530  0.75560  0.54040  Biso   1.000  H
  H164     1.0000 0.88300  0.68820  0.57770  Biso   1.000  H
  C227     1.0000 0.77900  0.85930  0.57270  Biso   1.000  C
  H165     1.0000 0.76590  0.84300  0.59350  Biso   1.000  H
  C228     1.0000 0.81521  0.83370  0.55650  Biso   1.000  C
  H166     1.0000 0.82770  0.79700  0.56390  Biso   1.000  H
  C229     1.0000 0.79939  0.95830  0.50700  Biso   1.000  C
  H167     1.0000 0.80050  0.01060  0.47980  Biso   1.000  H
  C230     1.0000 0.77932  0.93620  0.53230  Biso   1.000  C
  C231     1.0000 0.75909  0.98720  0.51430  Biso   1.000  C
  C232     1.0000 0.73906  0.94520  0.50150  Biso   1.000  C
  H168     1.0000 0.73850  0.88420  0.50650  Biso   1.000  H
  C233     1.0000 0.71975  0.99110  0.48150  Biso   1.000  C
  C234     1.0000 0.72081  0.08080  0.47370  Biso   1.000  C
  H169     1.0000 0.70790  0.11310  0.45900  Biso   1.000  H
  C235     1.0000 0.74067  0.12150  0.48750  Biso   1.000  C
  H170     1.0000 0.74120  0.18250  0.48300  Biso   1.000  H
  C236     1.0000 0.75984  0.07710  0.50760  Biso   1.000  C
  H171     1.0000 0.77340  0.10700  0.51680  Biso   1.000  H
  C237     1.0000 0.67705  0.98130  0.46450  Biso   1.000  C
  C238     1.0000 0.67546  0.03470  0.53590  Biso   1.000  C
  H172     1.0000 0.68550  0.08380  0.53610  Biso   1.000  H
  H173     1.0000 0.67940  0.99880  0.58050  Biso   1.000  H
  H174     1.0000 0.66040  0.05580  0.53680  Biso   1.000  H
  C239     1.0000 0.66106  0.90560  0.46490  Biso   1.000  C
  H175     1.0000 0.66410  0.87280  0.51190  Biso   1.000  H
  H176     1.0000 0.66280  0.86790  0.42160  Biso   1.000  H
  H177     1.0000 0.64600  0.92740  0.46150  Biso   1.000  H
  C240     1.0000 0.67179  0.03130  0.39090  Biso   1.000  C
  H178     1.0000 0.68210  0.07960  0.38910  Biso   1.000  H
  H179     1.0000 0.65670  0.05360  0.38850  Biso   1.000  H
  H180     1.0000 0.67320  0.99300  0.34780  Biso   1.000  H
  C241     1.0000 0.82130  0.00370  0.24990  Biso   1.000  C
  C242     1.0000 0.83049  0.94870  0.31480  Biso   1.000  C
  C243     1.0000 0.83935  0.86870  0.29830  Biso   1.000  C
  H181     1.0000 0.84020  0.85390  0.24680  Biso   1.000  H
  C244     1.0000 0.84694  0.80980  0.35360  Biso   1.000  C
  C245     1.0000 0.85374  0.72110  0.32720  Biso   1.000  C
  C246     1.0000 0.84502  0.21970  0.54340  Biso   1.000  C
  C247     1.0000 0.85174  0.13520  0.50860  Biso   1.000  C
  C248     1.0000 0.87012  0.13530  0.46720  Biso   1.000  C
  H182     1.0000 0.87690  0.18900  0.45820  Biso   1.000  H
  C249     1.0000 0.87876  0.06210  0.43900  Biso   1.000  C
  C250     1.0000 0.89891  0.06990  0.39580  Biso   1.000  C
  C251     1.0000 0.71839  0.70880  0.14870  Biso   1.000  C
  C252     1.0000 0.70471  0.74480  0.20840  Biso   1.000  C
  C253     1.0000 0.68375  0.77380  0.18690  Biso   1.000  C
  H183     1.0000 0.67880  0.77490  0.13450  Biso   1.000  H
  C254     1.0000 0.66948  0.80140  0.23770  Biso   1.000  C
  C255     1.0000 0.64619  0.82730  0.20670  Biso   1.000  C
  C256     1.0000 0.97775  0.76820  0.59680  Biso   1.000  C
  C257     1.0000 0.99237  0.84530  0.58810  Biso   1.000  C
  C258     1.0000 0.00982  0.85940  0.64270  Biso   1.000  C
  H184     1.0000 0.01160  0.82090  0.68450  Biso   1.000  H
  C259     1.0000 0.02485  0.92650  0.64030  Biso   1.000  C
  C260     1.0000 0.04294  0.92950  0.70640  Biso   1.000  C
  C261     1.0000 0.94635  0.29810  0.87450  Biso   1.000  C
  C262     1.0000 0.96925  0.31550  0.85040  Biso   1.000  C
  C263     1.0000 0.98040  0.38890  0.87350  Biso   1.000  C
  H185     1.0000 0.97340  0.42980  0.90280  Biso   1.000  H
  C264     1.0000 0.00168  0.40590  0.85550  Biso   1.000  C
  C265     1.0000 0.01260  0.49820  0.88990  Biso   1.000  C
  F305     1.0000 0.79837  0.00810  0.24850  Biso   1.000  F
  F306     1.0000 0.82547  0.98000  0.18390  Biso   1.000  F
  F307     1.0000 0.82710  0.07940  0.24620  Biso   1.000  F
  F308     1.0000 0.80292  0.03960  0.26170  Biso   1.000  F
  F309     1.0000 0.81855  0.95750  0.17960  Biso   1.000  F
  F310     1.0000 0.83540  0.07670  0.25050  Biso   1.000  F
  F311     1.0000 0.85730  0.72310  0.25700  Biso   1.000  F
  F312     1.0000 0.86680  0.67730  0.37910  Biso   1.000  F
  F313     1.0000 0.83500  0.67150  0.30360  Biso   1.000  F
  F314     1.0000 0.85450  0.70670  0.25780  Biso   1.000  F
  F315     1.0000 0.87870  0.73090  0.32150  Biso   1.000  F
  F316     1.0000 0.84450  0.65800  0.35230  Biso   1.000  F
  F317     1.0000 0.84360  0.70080  0.25670  Biso   1.000  F
  F318     1.0000 0.83380  0.66850  0.33810  Biso   1.000  F
  F319     1.0000 0.87330  0.70110  0.36780  Biso   1.000  F
  F320     1.0000 0.86670  0.71960  0.27160  Biso   1.000  F
  F321     1.0000 0.85750  0.66130  0.37240  Biso   1.000  F
  F322     1.0000 0.84031  0.20830  0.61440  Biso   1.000  F
  F323     1.0000 0.83100  0.26150  0.50320  Biso   1.000  F
  F324     1.0000 0.85991  0.28520  0.53670  Biso   1.000  F
  F325     1.0000 0.84900  0.28830  0.50550  Biso   1.000  F
  F326     1.0000 0.84950  0.22500  0.61370  Biso   1.000  F
  F327     1.0000 0.82410  0.24560  0.51010  Biso   1.000  F
  F328     1.0000 0.86160  0.26320  0.57660  Biso   1.000  F
  F329     1.0000 0.82190  0.22740  0.53530  Biso   1.000  F
  F330     1.0000 0.89500  0.07770  0.32830  Biso   1.000  F
  F331     1.0000 0.91150  0.13820  0.41320  Biso   1.000  F
  F332     1.0000 0.91400  0.99930  0.41370  Biso   1.000  F
  F333     1.0000 0.91595  0.02650  0.42960  Biso   1.000  F
  F334     1.0000 0.89350  0.04660  0.32240  Biso   1.000  F
  F335     1.0000 0.90450  0.16260  0.39250  Biso   1.000  F
  F336     1.0000 0.90220  0.14360  0.36510  Biso   1.000  F
  F337     1.0000 0.91650  0.05990  0.43590  Biso   1.000  F
  F338     1.0000 0.89750  0.01750  0.33290  Biso   1.000  F
  F339     1.0000 0.74025  0.73710  0.15890  Biso   1.000  F
  F340     1.0000 0.71230  0.73580  0.07850  Biso   1.000  F
  F341     1.0000 0.71990  0.62550  0.14780  Biso   1.000  F
  F342     1.0000 0.79670  0.85430  0.89310  Biso   1.000  F
  F343     1.0000 0.77180  0.86780  0.83020  Biso   1.000  F
  F344     1.0000 0.77880  0.73170  0.90060  Biso   1.000  F
  F345     1.0000 0.76580  0.83030  0.82770  Biso   1.000  F
  F346     1.0000 0.76480  0.73110  0.86270  Biso   1.000  F
  F347     1.0000 0.79220  0.80640  0.91950  Biso   1.000  F
  F348     1.0000 0.64380  0.83260  0.13050  Biso   1.000  F
  F349     1.0000 0.63370  0.85290  0.24700  Biso   1.000  F
  F350     1.0000 0.63303  0.74640  0.21540  Biso   1.000  F
  F351     1.0000 0.85920  0.69300  0.86520  Biso   1.000  F
  F352     1.0000 0.85820  0.59280  0.77230  Biso   1.000  F
  F353     1.0000 0.86920  0.71260  0.77240  Biso   1.000  F
  F354     1.0000 0.85150  0.56930  0.79790  Biso   1.000  F
  F355     1.0000 0.85710  0.63140  0.85540  Biso   1.000  F
  F356     1.0000 0.86260  0.61180  0.74790  Biso   1.000  F
  F357     1.0000 0.98200  0.70490  0.55400  Biso   1.000  F
  F358     1.0000 0.97930  0.73660  0.66990  Biso   1.000  F
  F359     1.0000 0.95644  0.78340  0.57610  Biso   1.000  F
  F360     1.0000 0.95707  0.79570  0.59920  Biso   1.000  F
  F361     1.0000 0.97900  0.71380  0.53460  Biso   1.000  F
  F362     1.0000 0.98375  0.71920  0.65540  Biso   1.000  F
  F363     1.0000 0.03683  0.91730  0.77290  Biso   1.000  F
  F364     1.0000 0.05371  0.01530  0.70400  Biso   1.000  F
  F365     1.0000 0.05888  0.87670  0.69690  Biso   1.000  F
  F366     1.0000 0.03219  0.94900  0.76940  Biso   1.000  F
  F367     1.0000 0.05771  0.97950  0.70570  Biso   1.000  F
  F368     1.0000 0.05330  0.84510  0.71380  Biso   1.000  F
  F369     1.0000 0.94151  0.34900  0.93230  Biso   1.000  F
  F370     1.0000 0.94258  0.22580  0.89420  Biso   1.000  F
  F371     1.0000 0.93246  0.31390  0.80710  Biso   1.000  F
  F372     1.0000 0.93800  0.36740  0.90620  Biso   1.000  F
  F373     1.0000 0.94843  0.21880  0.91970  Biso   1.000  F
  F374     1.0000 0.93155  0.27960  0.82060  Biso   1.000  F
  F375     1.0000 0.99570  0.55650  0.88420  Biso   1.000  F
  F376     1.0000 0.02500  0.52400  0.83790  Biso   1.000  F
  F377     1.0000 0.02400  0.48140  0.95140  Biso   1.000  F
  F378     1.0000 0.01150  0.54490  0.81560  Biso   1.000  F
  F379     1.0000 0.00130  0.53540  0.93010  Biso   1.000  F
  F380     1.0000 0.03190  0.48980  0.89630  Biso   1.000  F
  Cu11     1.0000 0.34549  0.44373  0.47869  Biso   1.000  Cu
  Cu12     1.0000 0.20730  0.30629  0.36439  Biso   1.000  Cu
  O61      1.0000 0.36152  0.40300  0.57990  Biso   1.000  O
  O62      1.0000 0.20180  0.36110  0.45992  Biso   1.000  O
  O63      1.0000 0.32914  0.48210  0.37900  Biso   1.000  O
  O64      1.0000 0.34853  0.31800  0.42430  Biso   1.000  O
  O65      1.0000 0.33962  0.57370  0.52140  Biso   1.000  O
  O66      1.0000 0.37284  0.48440  0.44380  Biso   1.000  O
  O67      1.0000 0.21488  0.24210  0.27380  Biso   1.000  O
  O68      1.0000 0.17279  0.30620  0.30810  Biso   1.000  O
  O69      1.0000 0.48652  0.38870  0.52970  Biso   1.000  O
  O70      1.0000 0.52573  0.48360  0.59180  Biso   1.000  O
  O71      1.0000 0.47543  0.75450  0.80950  Biso   1.000  O
  O72      1.0000 0.51362  0.85980  0.81930  Biso   1.000  O
  N31      1.0000 0.48155  0.56550  0.57180  Biso   1.000  N
  N32      1.0000 0.48171  0.66110  0.67480  Biso   1.000  N
  N33      1.0000 0.38267  0.40010  0.59310  Biso   1.000  N
  N34      1.0000 0.29653  0.30780  0.58310  Biso   1.000  N
  N35      1.0000 0.31727  0.40770  0.52020  Biso   1.000  N
  N36      1.0000 0.20006  0.44400  0.46780  Biso   1.000  N
  C266     1.0000 0.45996  0.55200  0.57420  Biso   1.000  C
  H186     1.0000 0.45250  0.51430  0.53810  Biso   1.000  H
  C267     1.0000 0.49155  0.62030  0.62130  Biso   1.000  C
  H187     1.0000 0.50670  0.63120  0.61840  Biso   1.000  H
  C268     1.0000 0.46028  0.64630  0.67760  Biso   1.000  C
  H188     1.0000 0.45300  0.67460  0.71540  Biso   1.000  H
  C269     1.0000 0.44815  0.59090  0.62700  Biso   1.000  C
  C270     1.0000 0.42451  0.57370  0.63400  Biso   1.000  C
  C271     1.0000 0.41508  0.49570  0.60980  Biso   1.000  C
  H189     1.0000 0.42370  0.45380  0.58700  Biso   1.000  H
  C272     1.0000 0.39314  0.47860  0.61850  Biso   1.000  C
  C273     1.0000 0.38059  0.53950  0.65260  Biso   1.000  C
  H190     1.0000 0.36570  0.52780  0.65930  Biso   1.000  H
  C274     1.0000 0.38989  0.61620  0.67660  Biso   1.000  C
  H191     1.0000 0.38130  0.65770  0.69980  Biso   1.000  H
  C275     1.0000 0.41163  0.63420  0.66730  Biso   1.000  C
  H192     1.0000 0.41780  0.68810  0.68360  Biso   1.000  H
  C276     1.0000 0.39396  0.31470  0.58670  Biso   1.000  C
  C277     1.0000 0.41003  0.30120  0.65680  Biso   1.000  C
  H193     1.0000 0.42130  0.34640  0.65950  Biso   1.000  H
  H194     1.0000 0.40210  0.30370  0.70210  Biso   1.000  H
  H195     1.0000 0.41710  0.24460  0.65410  Biso   1.000  H
  C278     1.0000 0.40489  0.31200  0.51260  Biso   1.000  C
  H196     1.0000 0.41620  0.35670  0.51350  Biso   1.000  H
  H197     1.0000 0.41160  0.25530  0.50710  Biso   1.000  H
  H198     1.0000 0.39380  0.32220  0.46990  Biso   1.000  H
  C279     1.0000 0.37621  0.24480  0.58350  Biso   1.000  C
  H199     1.0000 0.36900  0.24590  0.63040  Biso   1.000  H
  H200     1.0000 0.36530  0.25560  0.54040  Biso   1.000  H
  H201     1.0000 0.38300  0.18820  0.57770  Biso   1.000  H
  C280     1.0000 0.27900  0.35930  0.57270  Biso   1.000  C
  H202     1.0000 0.26590  0.34300  0.59350  Biso   1.000  H
  C281     1.0000 0.31521  0.33370  0.55650  Biso   1.000  C
  H203     1.0000 0.32770  0.29700  0.56390  Biso   1.000  H
  C282     1.0000 0.29939  0.45830  0.50700  Biso   1.000  C
  H204     1.0000 0.30050  0.51060  0.47980  Biso   1.000  H
  C283     1.0000 0.27932  0.43620  0.53230  Biso   1.000  C
  C284     1.0000 0.25909  0.48720  0.51430  Biso   1.000  C
  C285     1.0000 0.23906  0.44520  0.50150  Biso   1.000  C
  H205     1.0000 0.23850  0.38420  0.50650  Biso   1.000  H
  C286     1.0000 0.21975  0.49110  0.48150  Biso   1.000  C
  C287     1.0000 0.22081  0.58080  0.47370  Biso   1.000  C
  H206     1.0000 0.20790  0.61310  0.45900  Biso   1.000  H
  C288     1.0000 0.24067  0.62150  0.48750  Biso   1.000  C
  H207     1.0000 0.24120  0.68250  0.48300  Biso   1.000  H
  C289     1.0000 0.25984  0.57710  0.50760  Biso   1.000  C
  H208     1.0000 0.27340  0.60700  0.51680  Biso   1.000  H
  C290     1.0000 0.17705  0.48130  0.46450  Biso   1.000  C
  C291     1.0000 0.17546  0.53470  0.53590  Biso   1.000  C
  H209     1.0000 0.18550  0.58380  0.53610  Biso   1.000  H
  H210     1.0000 0.17940  0.49880  0.58050  Biso   1.000  H
  H211     1.0000 0.16040  0.55580  0.53680  Biso   1.000  H
  C292     1.0000 0.16106  0.40560  0.46490  Biso   1.000  C
  H212     1.0000 0.16410  0.37280  0.51190  Biso   1.000  H
  H213     1.0000 0.16280  0.36790  0.42160  Biso   1.000  H
  H214     1.0000 0.14600  0.42740  0.46150  Biso   1.000  H
  C293     1.0000 0.17179  0.53130  0.39090  Biso   1.000  C
  H215     1.0000 0.18210  0.57960  0.38910  Biso   1.000  H
  H216     1.0000 0.15670  0.55360  0.38850  Biso   1.000  H
  H217     1.0000 0.17320  0.49300  0.34780  Biso   1.000  H
  C294     1.0000 0.32130  0.50370  0.24990  Biso   1.000  C
  C295     1.0000 0.33049  0.44870  0.31480  Biso   1.000  C
  C296     1.0000 0.33935  0.36870  0.29830  Biso   1.000  C
  H218     1.0000 0.34020  0.35390  0.24680  Biso   1.000  H
  C297     1.0000 0.34694  0.30980  0.35360  Biso   1.000  C
  C298     1.0000 0.35374  0.22110  0.32720  Biso   1.000  C
  C299     1.0000 0.34502  0.71970  0.54340  Biso   1.000  C
  C300     1.0000 0.35174  0.63520  0.50860  Biso   1.000  C
  C301     1.0000 0.37012  0.63530  0.46720  Biso   1.000  C
  H219     1.0000 0.37690  0.68900  0.45820  Biso   1.000  H
  C302     1.0000 0.37876  0.56210  0.43900  Biso   1.000  C
  C303     1.0000 0.39891  0.56990  0.39580  Biso   1.000  C
  C304     1.0000 0.21839  0.20880  0.14870  Biso   1.000  C
  C305     1.0000 0.20471  0.24480  0.20840  Biso   1.000  C
  C306     1.0000 0.18375  0.27380  0.18690  Biso   1.000  C
  H220     1.0000 0.17880  0.27490  0.13450  Biso   1.000  H
  C307     1.0000 0.16948  0.30140  0.23770  Biso   1.000  C
  C308     1.0000 0.14619  0.32730  0.20670  Biso   1.000  C
  C309     1.0000 0.47775  0.26820  0.59680  Biso   1.000  C
  C310     1.0000 0.49237  0.34530  0.58810  Biso   1.000  C
  C311     1.0000 0.50982  0.35940  0.64270  Biso   1.000  C
  H221     1.0000 0.51160  0.32090  0.68450  Biso   1.000  H
  C312     1.0000 0.52485  0.42650  0.64030  Biso   1.000  C
  C313     1.0000 0.54294  0.42950  0.70640  Biso   1.000  C
  C314     1.0000 0.44635  0.79810  0.87450  Biso   1.000  C
  C315     1.0000 0.46925  0.81550  0.85040  Biso   1.000  C
  C316     1.0000 0.48040  0.88890  0.87350  Biso   1.000  C
  H222     1.0000 0.47340  0.92980  0.90280  Biso   1.000  H
  C317     1.0000 0.50168  0.90590  0.85550  Biso   1.000  C
  C318     1.0000 0.51260  0.99820  0.88990  Biso   1.000  C
  F381     1.0000 0.29837  0.50810  0.24850  Biso   1.000  F
  F382     1.0000 0.32547  0.48000  0.18390  Biso   1.000  F
  F383     1.0000 0.32710  0.57940  0.24620  Biso   1.000  F
  F384     1.0000 0.30292  0.53960  0.26170  Biso   1.000  F
  F385     1.0000 0.31855  0.45750  0.17960  Biso   1.000  F
  F386     1.0000 0.33540  0.57670  0.25050  Biso   1.000  F
  F387     1.0000 0.35730  0.22310  0.25700  Biso   1.000  F
  F388     1.0000 0.36680  0.17730  0.37910  Biso   1.000  F
  F389     1.0000 0.33500  0.17150  0.30360  Biso   1.000  F
  F390     1.0000 0.35450  0.20670  0.25780  Biso   1.000  F
  F391     1.0000 0.37870  0.23090  0.32150  Biso   1.000  F
  F392     1.0000 0.34450  0.15800  0.35230  Biso   1.000  F
  F393     1.0000 0.34360  0.20080  0.25670  Biso   1.000  F
  F394     1.0000 0.33380  0.16850  0.33810  Biso   1.000  F
  F395     1.0000 0.37330  0.20110  0.36780  Biso   1.000  F
  F396     1.0000 0.36670  0.21960  0.27160  Biso   1.000  F
  F397     1.0000 0.35750  0.16130  0.37240  Biso   1.000  F
  F398     1.0000 0.34031  0.70830  0.61440  Biso   1.000  F
  F399     1.0000 0.33100  0.76150  0.50320  Biso   1.000  F
  F400     1.0000 0.35991  0.78520  0.53670  Biso   1.000  F
  F401     1.0000 0.34900  0.78830  0.50550  Biso   1.000  F
  F402     1.0000 0.34950  0.72500  0.61370  Biso   1.000  F
  F403     1.0000 0.32410  0.74560  0.51010  Biso   1.000  F
  F404     1.0000 0.36160  0.76320  0.57660  Biso   1.000  F
  F405     1.0000 0.32190  0.72740  0.53530  Biso   1.000  F
  F406     1.0000 0.39500  0.57770  0.32830  Biso   1.000  F
  F407     1.0000 0.41150  0.63820  0.41320  Biso   1.000  F
  F408     1.0000 0.41400  0.49930  0.41370  Biso   1.000  F
  F409     1.0000 0.41595  0.52650  0.42960  Biso   1.000  F
  F410     1.0000 0.39350  0.54660  0.32240  Biso   1.000  F
  F411     1.0000 0.40450  0.66260  0.39250  Biso   1.000  F
  F412     1.0000 0.40220  0.64360  0.36510  Biso   1.000  F
  F413     1.0000 0.41650  0.55990  0.43590  Biso   1.000  F
  F414     1.0000 0.39750  0.51750  0.33290  Biso   1.000  F
  F415     1.0000 0.24025  0.23710  0.15890  Biso   1.000  F
  F416     1.0000 0.21230  0.23580  0.07850  Biso   1.000  F
  F417     1.0000 0.21990  0.12550  0.14780  Biso   1.000  F
  F418     1.0000 0.29670  0.35430  0.89310  Biso   1.000  F
  F419     1.0000 0.27180  0.36780  0.83020  Biso   1.000  F
  F420     1.0000 0.27880  0.23170  0.90060  Biso   1.000  F
  F421     1.0000 0.26580  0.33030  0.82770  Biso   1.000  F
  F422     1.0000 0.26480  0.23110  0.86270  Biso   1.000  F
  F423     1.0000 0.29220  0.30640  0.91950  Biso   1.000  F
  F424     1.0000 0.14380  0.33260  0.13050  Biso   1.000  F
  F425     1.0000 0.13370  0.35290  0.24700  Biso   1.000  F
  F426     1.0000 0.13303  0.24640  0.21540  Biso   1.000  F
  F427     1.0000 0.35920  0.19300  0.86520  Biso   1.000  F
  F428     1.0000 0.35820  0.09280  0.77230  Biso   1.000  F
  F429     1.0000 0.36920  0.21260  0.77240  Biso   1.000  F
  F430     1.0000 0.35150  0.06930  0.79790  Biso   1.000  F
  F431     1.0000 0.35710  0.13140  0.85540  Biso   1.000  F
  F432     1.0000 0.36260  0.11180  0.74790  Biso   1.000  F
  F433     1.0000 0.48200  0.20490  0.55400  Biso   1.000  F
  F434     1.0000 0.47930  0.23660  0.66990  Biso   1.000  F
  F435     1.0000 0.45644  0.28340  0.57610  Biso   1.000  F
  F436     1.0000 0.45707  0.29570  0.59920  Biso   1.000  F
  F437     1.0000 0.47900  0.21380  0.53460  Biso   1.000  F
  F438     1.0000 0.48375  0.21920  0.65540  Biso   1.000  F
  F439     1.0000 0.53683  0.41730  0.77290  Biso   1.000  F
  F440     1.0000 0.55371  0.51530  0.70400  Biso   1.000  F
  F441     1.0000 0.55888  0.37670  0.69690  Biso   1.000  F
  F442     1.0000 0.53219  0.44900  0.76940  Biso   1.000  F
  F443     1.0000 0.55771  0.47950  0.70570  Biso   1.000  F
  F444     1.0000 0.55330  0.34510  0.71380  Biso   1.000  F
  F445     1.0000 0.44151  0.84900  0.93230  Biso   1.000  F
  F446     1.0000 0.44258  0.72580  0.89420  Biso   1.000  F
  F447     1.0000 0.43246  0.81390  0.80710  Biso   1.000  F
  F448     1.0000 0.43800  0.86740  0.90620  Biso   1.000  F
  F449     1.0000 0.44843  0.71880  0.91970  Biso   1.000  F
  F450     1.0000 0.43155  0.77960  0.82060  Biso   1.000  F
  F451     1.0000 0.49570  0.05650  0.88420  Biso   1.000  F
  F452     1.0000 0.52500  0.02400  0.83790  Biso   1.000  F
  F453     1.0000 0.52400  0.98140  0.95140  Biso   1.000  F
  F454     1.0000 0.51150  0.04490  0.81560  Biso   1.000  F
  F455     1.0000 0.50130  0.03540  0.93010  Biso   1.000  F
  F456     1.0000 0.53190  0.98980  0.89630  Biso   1.000  F
  Cu13     1.0000 0.15451  0.94373  0.02131  Biso   1.000  Cu
  Cu14     1.0000 0.29270  0.80629  0.13561  Biso   1.000  Cu
  O73      1.0000 0.13848  0.90300  0.92010  Biso   1.000  O
  O74      1.0000 0.29820  0.86110  0.04008  Biso   1.000  O
  O75      1.0000 0.17086  0.98210  0.12100  Biso   1.000  O
  O76      1.0000 0.15147  0.81800  0.07570  Biso   1.000  O
  O77      1.0000 0.16038  0.07370  0.97860  Biso   1.000  O
  O78      1.0000 0.12716  0.98440  0.05620  Biso   1.000  O
  O79      1.0000 0.28512  0.74210  0.22620  Biso   1.000  O
  O80      1.0000 0.32721  0.80620  0.19190  Biso   1.000  O
  O81      1.0000 0.01348  0.88870  0.97030  Biso   1.000  O
  O82      1.0000 0.97427  0.98360  0.90820  Biso   1.000  O
  O83      1.0000 0.02457  0.25450  0.69050  Biso   1.000  O
  O84      1.0000 0.98638  0.35980  0.68070  Biso   1.000  O
  N37      1.0000 0.01845  0.06550  0.92820  Biso   1.000  N
  N38      1.0000 0.01829  0.16110  0.82520  Biso   1.000  N
  N39      1.0000 0.11733  0.90010  0.90690  Biso   1.000  N
  N40      1.0000 0.20347  0.80780  0.91690  Biso   1.000  N
  N41      1.0000 0.18273  0.90770  0.97980  Biso   1.000  N
  N42      1.0000 0.29994  0.94400  0.03220  Biso   1.000  N
  C319     1.0000 0.04004  0.05200  0.92580  Biso   1.000  C
  H223     1.0000 0.04750  0.01430  0.96190  Biso   1.000  H
  C320     1.0000 0.00845  0.12030  0.87870  Biso   1.000  C
  H224     1.0000 0.99330  0.13120  0.88160  Biso   1.000  H
  C321     1.0000 0.03972  0.14630  0.82240  Biso   1.000  C
  H225     1.0000 0.04700  0.17460  0.78460  Biso   1.000  H
  C322     1.0000 0.05185  0.09090  0.87300  Biso   1.000  C
  C323     1.0000 0.07549  0.07370  0.86600  Biso   1.000  C
  C324     1.0000 0.08492  0.99570  0.89020  Biso   1.000  C
  H226     1.0000 0.07630  0.95380  0.91300  Biso   1.000  H
  C325     1.0000 0.10686  0.97860  0.88150  Biso   1.000  C
  C326     1.0000 0.11941  0.03950  0.84740  Biso   1.000  C
  H227     1.0000 0.13430  0.02780  0.84070  Biso   1.000  H
  C327     1.0000 0.11011  0.11620  0.82340  Biso   1.000  C
  H228     1.0000 0.11870  0.15770  0.80020  Biso   1.000  H
  C328     1.0000 0.08837  0.13420  0.83270  Biso   1.000  C
  H229     1.0000 0.08220  0.18810  0.81640  Biso   1.000  H
  C329     1.0000 0.10604  0.81470  0.91330  Biso   1.000  C
  C330     1.0000 0.08997  0.80120  0.84320  Biso   1.000  C
  H230     1.0000 0.07870  0.84640  0.84050  Biso   1.000  H
  H231     1.0000 0.09790  0.80370  0.79790  Biso   1.000  H
  H232     1.0000 0.08290  0.74460  0.84590  Biso   1.000  H
  C331     1.0000 0.09511  0.81200  0.98740  Biso   1.000  C
  H233     1.0000 0.08380  0.85670  0.98650  Biso   1.000  H
  H234     1.0000 0.08840  0.75530  0.99290  Biso   1.000  H
  H235     1.0000 0.10620  0.82220  0.03010  Biso   1.000  H
  C332     1.0000 0.12379  0.74480  0.91650  Biso   1.000  C
  H236     1.0000 0.13100  0.74590  0.86960  Biso   1.000  H
  H237     1.0000 0.13470  0.75560  0.95960  Biso   1.000  H
  H238     1.0000 0.11700  0.68820  0.92230  Biso   1.000  H
  C333     1.0000 0.22100  0.85930  0.92730  Biso   1.000  C
  H239     1.0000 0.23410  0.84300  0.90650  Biso   1.000  H
  C334     1.0000 0.18479  0.83370  0.94350  Biso   1.000  C
  H240     1.0000 0.17230  0.79700  0.93610  Biso   1.000  H
  C335     1.0000 0.20061  0.95830  0.99300  Biso   1.000  C
  H241     1.0000 0.19950  0.01060  0.02020  Biso   1.000  H
  C336     1.0000 0.22068  0.93620  0.96770  Biso   1.000  C
  C337     1.0000 0.24091  0.98720  0.98570  Biso   1.000  C
  C338     1.0000 0.26094  0.94520  0.99850  Biso   1.000  C
  H242     1.0000 0.26150  0.88420  0.99350  Biso   1.000  H
  C339     1.0000 0.28025  0.99110  0.01850  Biso   1.000  C
  C340     1.0000 0.27919  0.08080  0.02630  Biso   1.000  C
  H243     1.0000 0.29210  0.11310  0.04100  Biso   1.000  H
  C341     1.0000 0.25933  0.12150  0.01250  Biso   1.000  C
  H244     1.0000 0.25880  0.18250  0.01700  Biso   1.000  H
  C342     1.0000 0.24016  0.07710  0.99240  Biso   1.000  C
  H245     1.0000 0.22660  0.10700  0.98320  Biso   1.000  H
  C343     1.0000 0.32295  0.98130  0.03550  Biso   1.000  C
  C344     1.0000 0.32454  0.03470  0.96410  Biso   1.000  C
  H246     1.0000 0.31450  0.08380  0.96390  Biso   1.000  H
  H247     1.0000 0.32060  0.99880  0.91950  Biso   1.000  H
  H248     1.0000 0.33960  0.05580  0.96320  Biso   1.000  H
  C345     1.0000 0.33894  0.90560  0.03510  Biso   1.000  C
  H249     1.0000 0.33590  0.87280  0.98810  Biso   1.000  H
  H250     1.0000 0.33720  0.86790  0.07840  Biso   1.000  H
  H251     1.0000 0.35400  0.92740  0.03850  Biso   1.000  H
  C346     1.0000 0.32821  0.03130  0.10910  Biso   1.000  C
  H252     1.0000 0.31790  0.07960  0.11090  Biso   1.000  H
  H253     1.0000 0.34330  0.05360  0.11150  Biso   1.000  H
  H254     1.0000 0.32680  0.99300  0.15220  Biso   1.000  H
  C347     1.0000 0.17870  0.00370  0.25010  Biso   1.000  C
  C348     1.0000 0.16951  0.94870  0.18520  Biso   1.000  C
  C349     1.0000 0.16065  0.86870  0.20170  Biso   1.000  C
  H255     1.0000 0.15980  0.85390  0.25320  Biso   1.000  H
  C350     1.0000 0.15306  0.80980  0.14640  Biso   1.000  C
  C351     1.0000 0.14626  0.72110  0.17280  Biso   1.000  C
  C352     1.0000 0.15498  0.21970  0.95660  Biso   1.000  C
  C353     1.0000 0.14826  0.13520  0.99140  Biso   1.000  C
  C354     1.0000 0.12988  0.13530  0.03280  Biso   1.000  C
  H256     1.0000 0.12310  0.18900  0.04180  Biso   1.000  H
  C355     1.0000 0.12124  0.06210  0.06100  Biso   1.000  C
  C356     1.0000 0.10109  0.06990  0.10420  Biso   1.000  C
  C357     1.0000 0.28161  0.70880  0.35130  Biso   1.000  C
  C358     1.0000 0.29529  0.74480  0.29160  Biso   1.000  C
  C359     1.0000 0.31625  0.77380  0.31310  Biso   1.000  C
  H257     1.0000 0.32120  0.77490  0.36550  Biso   1.000  H
  C360     1.0000 0.33052  0.80140  0.26230  Biso   1.000  C
  C361     1.0000 0.35381  0.82730  0.29330  Biso   1.000  C
  C362     1.0000 0.02225  0.76820  0.90320  Biso   1.000  C
  C363     1.0000 0.00763  0.84530  0.91190  Biso   1.000  C
  C364     1.0000 0.99018  0.85940  0.85730  Biso   1.000  C
  H258     1.0000 0.98840  0.82090  0.81550  Biso   1.000  H
  C365     1.0000 0.97515  0.92650  0.85970  Biso   1.000  C
  C366     1.0000 0.95706  0.92950  0.79360  Biso   1.000  C
  C367     1.0000 0.05365  0.29810  0.62550  Biso   1.000  C
  C368     1.0000 0.03075  0.31550  0.64960  Biso   1.000  C
  C369     1.0000 0.01960  0.38890  0.62650  Biso   1.000  C
  H259     1.0000 0.02660  0.42980  0.59720  Biso   1.000  H
  C370     1.0000 0.99832  0.40590  0.64450  Biso   1.000  C
  C371     1.0000 0.98740  0.49820  0.61010  Biso   1.000  C
  F457     1.0000 0.20163  0.00810  0.25150  Biso   1.000  F
  F458     1.0000 0.17453  0.98000  0.31610  Biso   1.000  F
  F459     1.0000 0.17290  0.07940  0.25380  Biso   1.000  F
  F460     1.0000 0.19708  0.03960  0.23830  Biso   1.000  F
  F461     1.0000 0.18145  0.95750  0.32040  Biso   1.000  F
  F462     1.0000 0.16460  0.07670  0.24950  Biso   1.000  F
  F463     1.0000 0.14270  0.72310  0.24300  Biso   1.000  F
  F464     1.0000 0.13320  0.67730  0.12090  Biso   1.000  F
  F465     1.0000 0.16500  0.67150  0.19640  Biso   1.000  F
  F466     1.0000 0.14550  0.70670  0.24220  Biso   1.000  F
  F467     1.0000 0.12130  0.73090  0.17850  Biso   1.000  F
  F468     1.0000 0.15550  0.65800  0.14770  Biso   1.000  F
  F469     1.0000 0.15640  0.70080  0.24330  Biso   1.000  F
  F470     1.0000 0.16620  0.66850  0.16190  Biso   1.000  F
  F471     1.0000 0.12670  0.70110  0.13220  Biso   1.000  F
  F472     1.0000 0.13330  0.71960  0.22840  Biso   1.000  F
  F473     1.0000 0.14250  0.66130  0.12760  Biso   1.000  F
  F474     1.0000 0.15969  0.20830  0.88560  Biso   1.000  F
  F475     1.0000 0.16900  0.26150  0.99680  Biso   1.000  F
  F476     1.0000 0.14009  0.28520  0.96330  Biso   1.000  F
  F477     1.0000 0.15100  0.28830  0.99450  Biso   1.000  F
  F478     1.0000 0.15050  0.22500  0.88630  Biso   1.000  F
  F479     1.0000 0.17590  0.24560  0.98990  Biso   1.000  F
  F480     1.0000 0.13840  0.26320  0.92340  Biso   1.000  F
  F481     1.0000 0.17810  0.22740  0.96470  Biso   1.000  F
  F482     1.0000 0.10500  0.07770  0.17170  Biso   1.000  F
  F483     1.0000 0.08850  0.13820  0.08680  Biso   1.000  F
  F484     1.0000 0.08600  0.99930  0.08630  Biso   1.000  F
  F485     1.0000 0.08405  0.02650  0.07040  Biso   1.000  F
  F486     1.0000 0.10650  0.04660  0.17760  Biso   1.000  F
  F487     1.0000 0.09550  0.16260  0.10750  Biso   1.000  F
  F488     1.0000 0.09780  0.14360  0.13490  Biso   1.000  F
  F489     1.0000 0.08350  0.05990  0.06410  Biso   1.000  F
  F490     1.0000 0.10250  0.01750  0.16710  Biso   1.000  F
  F491     1.0000 0.25975  0.73710  0.34110  Biso   1.000  F
  F492     1.0000 0.28770  0.73580  0.42150  Biso   1.000  F
  F493     1.0000 0.28010  0.62550  0.35220  Biso   1.000  F
  F494     1.0000 0.20330  0.85430  0.60690  Biso   1.000  F
  F495     1.0000 0.22820  0.86780  0.66980  Biso   1.000  F
  F496     1.0000 0.22120  0.73170  0.59940  Biso   1.000  F
  F497     1.0000 0.23420  0.83030  0.67230  Biso   1.000  F
  F498     1.0000 0.23520  0.73110  0.63730  Biso   1.000  F
  F499     1.0000 0.20780  0.80640  0.58050  Biso   1.000  F
  F500     1.0000 0.35620  0.83260  0.36950  Biso   1.000  F
  F501     1.0000 0.36630  0.85290  0.25300  Biso   1.000  F
  F502     1.0000 0.36697  0.74640  0.28460  Biso   1.000  F
  F503     1.0000 0.14080  0.69300  0.63480  Biso   1.000  F
  F504     1.0000 0.14180  0.59280  0.72770  Biso   1.000  F
  F505     1.0000 0.13080  0.71260  0.72760  Biso   1.000  F
  F506     1.0000 0.14850  0.56930  0.70210  Biso   1.000  F
  F507     1.0000 0.14290  0.63140  0.64460  Biso   1.000  F
  F508     1.0000 0.13740  0.61180  0.75210  Biso   1.000  F
  F509     1.0000 0.01800  0.70490  0.94600  Biso   1.000  F
  F510     1.0000 0.02070  0.73660  0.83010  Biso   1.000  F
  F511     1.0000 0.04356  0.78340  0.92390  Biso   1.000  F
  F512     1.0000 0.04293  0.79570  0.90080  Biso   1.000  F
  F513     1.0000 0.02100  0.71380  0.96540  Biso   1.000  F
  F514     1.0000 0.01625  0.71920  0.84460  Biso   1.000  F
  F515     1.0000 0.96317  0.91730  0.72710  Biso   1.000  F
  F516     1.0000 0.94629  0.01530  0.79600  Biso   1.000  F
  F517     1.0000 0.94112  0.87670  0.80310  Biso   1.000  F
  F518     1.0000 0.96781  0.94900  0.73060  Biso   1.000  F
  F519     1.0000 0.94229  0.97950  0.79430  Biso   1.000  F
  F520     1.0000 0.94670  0.84510  0.78620  Biso   1.000  F
  F521     1.0000 0.05849  0.34900  0.56770  Biso   1.000  F
  F522     1.0000 0.05742  0.22580  0.60580  Biso   1.000  F
  F523     1.0000 0.06754  0.31390  0.69290  Biso   1.000  F
  F524     1.0000 0.06200  0.36740  0.59380  Biso   1.000  F
  F525     1.0000 0.05157  0.21880  0.58030  Biso   1.000  F
  F526     1.0000 0.06845  0.27960  0.67940  Biso   1.000  F
  F527     1.0000 0.00430  0.55650  0.61580  Biso   1.000  F
  F528     1.0000 0.97500  0.52400  0.66210  Biso   1.000  F
  F529     1.0000 0.97600  0.48140  0.54860  Biso   1.000  F
  F530     1.0000 0.98850  0.54490  0.68440  Biso   1.000  F
  F531     1.0000 0.99870  0.53540  0.56990  Biso   1.000  F
  F532     1.0000 0.96810  0.48980  0.60370  Biso   1.000  F
  Cu15     1.0000 0.65451  0.44373  0.02131  Biso   1.000  Cu
  Cu16     1.0000 0.79270  0.30629  0.13561  Biso   1.000  Cu
  O85      1.0000 0.63848  0.40300  0.92010  Biso   1.000  O
  O86      1.0000 0.79820  0.36110  0.04008  Biso   1.000  O
  O87      1.0000 0.67086  0.48210  0.12100  Biso   1.000  O
  O88      1.0000 0.65147  0.31800  0.07570  Biso   1.000  O
  O89      1.0000 0.66038  0.57370  0.97860  Biso   1.000  O
  O90      1.0000 0.62716  0.48440  0.05620  Biso   1.000  O
  O91      1.0000 0.78512  0.24210  0.22620  Biso   1.000  O
  O92      1.0000 0.82721  0.30620  0.19190  Biso   1.000  O
  O93      1.0000 0.51348  0.38870  0.97030  Biso   1.000  O
  O94      1.0000 0.47427  0.48360  0.90820  Biso   1.000  O
  O95      1.0000 0.52457  0.75450  0.69050  Biso   1.000  O
  O96      1.0000 0.48638  0.85980  0.68070  Biso   1.000  O
  N43      1.0000 0.51845  0.56550  0.92820  Biso   1.000  N
  N44      1.0000 0.51829  0.66110  0.82520  Biso   1.000  N
  N45      1.0000 0.61733  0.40010  0.90690  Biso   1.000  N
  N46      1.0000 0.70347  0.30780  0.91690  Biso   1.000  N
  N47      1.0000 0.68273  0.40770  0.97980  Biso   1.000  N
  N48      1.0000 0.79994  0.44400  0.03220  Biso   1.000  N
  C372     1.0000 0.54004  0.55200  0.92580  Biso   1.000  C
  H260     1.0000 0.54750  0.51430  0.96190  Biso   1.000  H
  C373     1.0000 0.50845  0.62030  0.87870  Biso   1.000  C
  H261     1.0000 0.49330  0.63120  0.88160  Biso   1.000  H
  C374     1.0000 0.53972  0.64630  0.82240  Biso   1.000  C
  H262     1.0000 0.54700  0.67460  0.78460  Biso   1.000  H
  C375     1.0000 0.55185  0.59090  0.87300  Biso   1.000  C
  C376     1.0000 0.57549  0.57370  0.86600  Biso   1.000  C
  C377     1.0000 0.58492  0.49570  0.89020  Biso   1.000  C
  H263     1.0000 0.57630  0.45380  0.91300  Biso   1.000  H
  C378     1.0000 0.60686  0.47860  0.88150  Biso   1.000  C
  C379     1.0000 0.61941  0.53950  0.84740  Biso   1.000  C
  H264     1.0000 0.63430  0.52780  0.84070  Biso   1.000  H
  C380     1.0000 0.61011  0.61620  0.82340  Biso   1.000  C
  H265     1.0000 0.61870  0.65770  0.80020  Biso   1.000  H
  C381     1.0000 0.58837  0.63420  0.83270  Biso   1.000  C
  H266     1.0000 0.58220  0.68810  0.81640  Biso   1.000  H
  C382     1.0000 0.60604  0.31470  0.91330  Biso   1.000  C
  C383     1.0000 0.58997  0.30120  0.84320  Biso   1.000  C
  H267     1.0000 0.57870  0.34640  0.84050  Biso   1.000  H
  H268     1.0000 0.59790  0.30370  0.79790  Biso   1.000  H
  H269     1.0000 0.58290  0.24460  0.84590  Biso   1.000  H
  C384     1.0000 0.59511  0.31200  0.98740  Biso   1.000  C
  H270     1.0000 0.58380  0.35670  0.98650  Biso   1.000  H
  H271     1.0000 0.58840  0.25530  0.99290  Biso   1.000  H
  H272     1.0000 0.60620  0.32220  0.03010  Biso   1.000  H
  C385     1.0000 0.62379  0.24480  0.91650  Biso   1.000  C
  H273     1.0000 0.63100  0.24590  0.86960  Biso   1.000  H
  H274     1.0000 0.63470  0.25560  0.95960  Biso   1.000  H
  H275     1.0000 0.61700  0.18820  0.92230  Biso   1.000  H
  C386     1.0000 0.72100  0.35930  0.92730  Biso   1.000  C
  H276     1.0000 0.73410  0.34300  0.90650  Biso   1.000  H
  C387     1.0000 0.68479  0.33370  0.94350  Biso   1.000  C
  H277     1.0000 0.67230  0.29700  0.93610  Biso   1.000  H
  C388     1.0000 0.70061  0.45830  0.99300  Biso   1.000  C
  H278     1.0000 0.69950  0.51060  0.02020  Biso   1.000  H
  C389     1.0000 0.72068  0.43620  0.96770  Biso   1.000  C
  C390     1.0000 0.74091  0.48720  0.98570  Biso   1.000  C
  C391     1.0000 0.76094  0.44520  0.99850  Biso   1.000  C
  H279     1.0000 0.76150  0.38420  0.99350  Biso   1.000  H
  C392     1.0000 0.78025  0.49110  0.01850  Biso   1.000  C
  C393     1.0000 0.77919  0.58080  0.02630  Biso   1.000  C
  H280     1.0000 0.79210  0.61310  0.04100  Biso   1.000  H
  C394     1.0000 0.75933  0.62150  0.01250  Biso   1.000  C
  H281     1.0000 0.75880  0.68250  0.01700  Biso   1.000  H
  C395     1.0000 0.74016  0.57710  0.99240  Biso   1.000  C
  H282     1.0000 0.72660  0.60700  0.98320  Biso   1.000  H
  C396     1.0000 0.82295  0.48130  0.03550  Biso   1.000  C
  C397     1.0000 0.82454  0.53470  0.96410  Biso   1.000  C
  H283     1.0000 0.81450  0.58380  0.96390  Biso   1.000  H
  H284     1.0000 0.82060  0.49880  0.91950  Biso   1.000  H
  H285     1.0000 0.83960  0.55580  0.96320  Biso   1.000  H
  C398     1.0000 0.83894  0.40560  0.03510  Biso   1.000  C
  H286     1.0000 0.83590  0.37280  0.98810  Biso   1.000  H
  H287     1.0000 0.83720  0.36790  0.07840  Biso   1.000  H
  H288     1.0000 0.85400  0.42740  0.03850  Biso   1.000  H
  C399     1.0000 0.82821  0.53130  0.10910  Biso   1.000  C
  H289     1.0000 0.81790  0.57960  0.11090  Biso   1.000  H
  H290     1.0000 0.84330  0.55360  0.11150  Biso   1.000  H
  H291     1.0000 0.82680  0.49300  0.15220  Biso   1.000  H
  C400     1.0000 0.67870  0.50370  0.25010  Biso   1.000  C
  C401     1.0000 0.66951  0.44870  0.18520  Biso   1.000  C
  C402     1.0000 0.66065  0.36870  0.20170  Biso   1.000  C
  H292     1.0000 0.65980  0.35390  0.25320  Biso   1.000  H
  C403     1.0000 0.65306  0.30980  0.14640  Biso   1.000  C
  C404     1.0000 0.64626  0.22110  0.17280  Biso   1.000  C
  C405     1.0000 0.65498  0.71970  0.95660  Biso   1.000  C
  C406     1.0000 0.64826  0.63520  0.99140  Biso   1.000  C
  C407     1.0000 0.62988  0.63530  0.03280  Biso   1.000  C
  H293     1.0000 0.62310  0.68900  0.04180  Biso   1.000  H
  C408     1.0000 0.62124  0.56210  0.06100  Biso   1.000  C
  C409     1.0000 0.60109  0.56990  0.10420  Biso   1.000  C
  C410     1.0000 0.78161  0.20880  0.35130  Biso   1.000  C
  C411     1.0000 0.79529  0.24480  0.29160  Biso   1.000  C
  C412     1.0000 0.81625  0.27380  0.31310  Biso   1.000  C
  H294     1.0000 0.82120  0.27490  0.36550  Biso   1.000  H
  C413     1.0000 0.83052  0.30140  0.26230  Biso   1.000  C
  C414     1.0000 0.85381  0.32730  0.29330  Biso   1.000  C
  C415     1.0000 0.52225  0.26820  0.90320  Biso   1.000  C
  C416     1.0000 0.50763  0.34530  0.91190  Biso   1.000  C
  C417     1.0000 0.49018  0.35940  0.85730  Biso   1.000  C
  H295     1.0000 0.48840  0.32090  0.81550  Biso   1.000  H
  C418     1.0000 0.47515  0.42650  0.85970  Biso   1.000  C
  C419     1.0000 0.45706  0.42950  0.79360  Biso   1.000  C
  C420     1.0000 0.55365  0.79810  0.62550  Biso   1.000  C
  C421     1.0000 0.53075  0.81550  0.64960  Biso   1.000  C
  C422     1.0000 0.51960  0.88890  0.62650  Biso   1.000  C
  H296     1.0000 0.52660  0.92980  0.59720  Biso   1.000  H
  C423     1.0000 0.49832  0.90590  0.64450  Biso   1.000  C
  C424     1.0000 0.48740  0.99820  0.61010  Biso   1.000  C
  F533     1.0000 0.70163  0.50810  0.25150  Biso   1.000  F
  F534     1.0000 0.67453  0.48000  0.31610  Biso   1.000  F
  F535     1.0000 0.67290  0.57940  0.25380  Biso   1.000  F
  F536     1.0000 0.69708  0.53960  0.23830  Biso   1.000  F
  F537     1.0000 0.68145  0.45750  0.32040  Biso   1.000  F
  F538     1.0000 0.66460  0.57670  0.24950  Biso   1.000  F
  F539     1.0000 0.64270  0.22310  0.24300  Biso   1.000  F
  F540     1.0000 0.63320  0.17730  0.12090  Biso   1.000  F
  F541     1.0000 0.66500  0.17150  0.19640  Biso   1.000  F
  F542     1.0000 0.64550  0.20670  0.24220  Biso   1.000  F
  F543     1.0000 0.62130  0.23090  0.17850  Biso   1.000  F
  F544     1.0000 0.65550  0.15800  0.14770  Biso   1.000  F
  F545     1.0000 0.65640  0.20080  0.24330  Biso   1.000  F
  F546     1.0000 0.66620  0.16850  0.16190  Biso   1.000  F
  F547     1.0000 0.62670  0.20110  0.13220  Biso   1.000  F
  F548     1.0000 0.63330  0.21960  0.22840  Biso   1.000  F
  F549     1.0000 0.64250  0.16130  0.12760  Biso   1.000  F
  F550     1.0000 0.65969  0.70830  0.88560  Biso   1.000  F
  F551     1.0000 0.66900  0.76150  0.99680  Biso   1.000  F
  F552     1.0000 0.64009  0.78520  0.96330  Biso   1.000  F
  F553     1.0000 0.65100  0.78830  0.99450  Biso   1.000  F
  F554     1.0000 0.65050  0.72500  0.88630  Biso   1.000  F
  F555     1.0000 0.67590  0.74560  0.98990  Biso   1.000  F
  F556     1.0000 0.63840  0.76320  0.92340  Biso   1.000  F
  F557     1.0000 0.67810  0.72740  0.96470  Biso   1.000  F
  F558     1.0000 0.60500  0.57770  0.17170  Biso   1.000  F
  F559     1.0000 0.58850  0.63820  0.08680  Biso   1.000  F
  F560     1.0000 0.58600  0.49930  0.08630  Biso   1.000  F
  F561     1.0000 0.58405  0.52650  0.07040  Biso   1.000  F
  F562     1.0000 0.60650  0.54660  0.17760  Biso   1.000  F
  F563     1.0000 0.59550  0.66260  0.10750  Biso   1.000  F
  F564     1.0000 0.59780  0.64360  0.13490  Biso   1.000  F
  F565     1.0000 0.58350  0.55990  0.06410  Biso   1.000  F
  F566     1.0000 0.60250  0.51750  0.16710  Biso   1.000  F
  F567     1.0000 0.75975  0.23710  0.34110  Biso   1.000  F
  F568     1.0000 0.78770  0.23580  0.42150  Biso   1.000  F
  F569     1.0000 0.78010  0.12550  0.35220  Biso   1.000  F
  F570     1.0000 0.70330  0.35430  0.60690  Biso   1.000  F
  F571     1.0000 0.72820  0.36780  0.66980  Biso   1.000  F
  F572     1.0000 0.72120  0.23170  0.59940  Biso   1.000  F
  F573     1.0000 0.73420  0.33030  0.67230  Biso   1.000  F
  F574     1.0000 0.73520  0.23110  0.63730  Biso   1.000  F
  F575     1.0000 0.70780  0.30640  0.58050  Biso   1.000  F
  F576     1.0000 0.85620  0.33260  0.36950  Biso   1.000  F
  F577     1.0000 0.86630  0.35290  0.25300  Biso   1.000  F
  F578     1.0000 0.86697  0.24640  0.28460  Biso   1.000  F
  F579     1.0000 0.64080  0.19300  0.63480  Biso   1.000  F
  F580     1.0000 0.64180  0.09280  0.72770  Biso   1.000  F
  F581     1.0000 0.63080  0.21260  0.72760  Biso   1.000  F
  F582     1.0000 0.64850  0.06930  0.70210  Biso   1.000  F
  F583     1.0000 0.64290  0.13140  0.64460  Biso   1.000  F
  F584     1.0000 0.63740  0.11180  0.75210  Biso   1.000  F
  F585     1.0000 0.51800  0.20490  0.94600  Biso   1.000  F
  F586     1.0000 0.52070  0.23660  0.83010  Biso   1.000  F
  F587     1.0000 0.54356  0.28340  0.92390  Biso   1.000  F
  F588     1.0000 0.54293  0.29570  0.90080  Biso   1.000  F
  F589     1.0000 0.52100  0.21380  0.96540  Biso   1.000  F
  F590     1.0000 0.51625  0.21920  0.84460  Biso   1.000  F
  F591     1.0000 0.46317  0.41730  0.72710  Biso   1.000  F
  F592     1.0000 0.44629  0.51530  0.79600  Biso   1.000  F
  F593     1.0000 0.44112  0.37670  0.80310  Biso   1.000  F
  F594     1.0000 0.46781  0.44900  0.73060  Biso   1.000  F
  F595     1.0000 0.44229  0.47950  0.79430  Biso   1.000  F
  F596     1.0000 0.44670  0.34510  0.78620  Biso   1.000  F
  F597     1.0000 0.55849  0.84900  0.56770  Biso   1.000  F
  F598     1.0000 0.55742  0.72580  0.60580  Biso   1.000  F
  F599     1.0000 0.56754  0.81390  0.69290  Biso   1.000  F
  F600     1.0000 0.56200  0.86740  0.59380  Biso   1.000  F
  F601     1.0000 0.55157  0.71880  0.58030  Biso   1.000  F
  F602     1.0000 0.56845  0.77960  0.67940  Biso   1.000  F
  F603     1.0000 0.50430  0.05650  0.61580  Biso   1.000  F
  F604     1.0000 0.47500  0.02400  0.66210  Biso   1.000  F
  F605     1.0000 0.47600  0.98140  0.54860  Biso   1.000  F
  F606     1.0000 0.48850  0.04490  0.68440  Biso   1.000  F
  F607     1.0000 0.49870  0.03540  0.56990  Biso   1.000  F
  F608     1.0000 0.46810  0.98980  0.60370  Biso   1.000  F
  Cu17     1.0000 0.00000  0.00000  0.50000  Biso   1.000  Cu
  Cu18     1.0000 0.50000  0.50000  0.50000  Biso   1.000  Cu
  Cu19     1.0000 0.00000  0.00000  0.00000  Biso   1.000  Cu
  Cu20     1.0000 0.50000  0.50000  0.00000  Biso   1.000  Cu
  Cu21     1.0000 0.00000  0.74328  0.25000  Biso   1.000  Cu
  Cu22     1.0000 0.50000  0.24328  0.25000  Biso   1.000  Cu
  Cu23     1.0000 0.00000  0.25672  0.75000  Biso   1.000  Cu
  Cu24     1.0000 0.50000  0.75672  0.75000  Biso   1.000  Cu
