data_image0
_cell_length_a       28.4784
_cell_length_b       28.4784
_cell_length_c       13.6334
_cell_angle_alpha    90
_cell_angle_beta     90
_cell_angle_gamma    90

_symmetry_space_group_name_H-M    "P 1"
_symmetry_int_tables_number       1

loop_
  _symmetry_equiv_pos_as_xyz
  'x, y, z'

loop_
  _atom_site_label
  _atom_site_occupancy
  _atom_site_fract_x
  _atom_site_fract_y
  _atom_site_fract_z
  _atom_site_thermal_displace_type
  _atom_site_B_iso_or_equiv
  _atom_site_type_symbol
  Sr1      1.0000 0.19060  0.50219  0.62309  Biso   1.000  Sr
  O1       1.0000 0.25970  0.45390  0.67710  Biso   1.000  O
  O2       1.0000 0.13220  0.55450  0.52640  Biso   1.000  O
  O3       1.0000 0.29800  0.49010  0.31760  Biso   1.000  O
  O4       1.0000 0.32930  0.42930  0.23890  Biso   1.000  O
  O5       1.0000 0.31070  0.41120  0.75550  Biso   1.000  O
  C1       1.0000 0.29500  0.42880  0.67960  Biso   1.000  C
  C2       1.0000 0.13030  0.59140  0.46600  Biso   1.000  C
  C3       1.0000 0.32060  0.41800  0.58440  Biso   1.000  C
  N1       1.0000 0.08950  0.60690  0.50400  Biso   1.000  N
  C4       1.0000 0.30870  0.43960  0.49830  Biso   1.000  C
  C5       1.0000 0.35500  0.38370  0.58650  Biso   1.000  C
  C6       1.0000 0.07300  0.57700  0.59500  Biso   1.000  C
  C7       1.0000 0.31810  0.45020  0.31560  Biso   1.000  C
  H1       1.0000 0.28570  0.46280  0.49810  Biso   1.000  H
  C8       1.0000 0.33020  0.42730  0.41280  Biso   1.000  C
  C9       1.0000 0.37590  0.37120  0.49880  Biso   1.000  C
  H2       1.0000 0.36380  0.36950  0.64510  Biso   1.000  H
  H3       1.0000 0.03900  0.57780  0.59950  Biso   1.000  H
  H4       1.0000 0.08590  0.58970  0.65430  Biso   1.000  H
  H5       1.0000 0.08280  0.54500  0.58770  Biso   1.000  H
  C10      1.0000 0.36420  0.39250  0.41180  Biso   1.000  C
  C11      1.0000 0.41160  0.33550  0.49960  Biso   1.000  C
  H6       1.0000 0.37870  0.38380  0.35350  Biso   1.000  H
  C12      1.0000 0.45810  0.35270  0.50380  Biso   1.000  C
  C13      1.0000 0.39750  0.28930  0.50130  Biso   1.000  C
  C14      1.0000 0.49600  0.31440  0.50460  Biso   1.000  C
  O6       1.0000 0.46860  0.39360  0.50650  Biso   1.000  O
  C15      1.0000 0.43440  0.25330  0.50360  Biso   1.000  C
  O7       1.0000 0.35640  0.27940  0.50050  Biso   1.000  O
  C16      1.0000 0.48190  0.26700  0.50370  Biso   1.000  C
  C17      1.0000 0.54210  0.32780  0.50470  Biso   1.000  C
  C18      1.0000 0.42430  0.20780  0.50250  Biso   1.000  C
  H7       1.0000 0.55070  0.35930  0.50620  Biso   1.000  H
  H8       1.0000 0.39280  0.19920  0.50000  Biso   1.000  H
  H9       1.0000 0.16400  0.55600  0.48700  Biso   1.000  H
  C19      1.0000 0.12240  0.55840  0.43000  Biso   1.000  C
  O8       1.0000 0.00890  0.58000  0.26400  Biso   1.000  O
  N2       1.0000 0.08760  0.53530  0.39110  Biso   1.000  N
  C20      1.0000 0.05590  0.50130  0.41800  Biso   1.000  C
  C21      1.0000 0.06800  0.53560  0.28400  Biso   1.000  C
  H10      1.0000 0.06560  0.48750  0.47940  Biso   1.000  H
  H11      1.0000 0.05460  0.47740  0.36870  Biso   1.000  H
  H12      1.0000 0.02540  0.51510  0.42610  Biso   1.000  H
  H13      1.0000 0.04370  0.55860  0.27880  Biso   1.000  H
  H14      1.0000 0.05600  0.50520  0.26830  Biso   1.000  H
  H15      1.0000 0.09320  0.54340  0.23950  Biso   1.000  H
  Sr2      1.0000 0.69060  0.00219  0.12309  Biso   1.000  Sr
  O9       1.0000 0.75970  0.95390  0.17710  Biso   1.000  O
  O10      1.0000 0.63220  0.05450  0.02640  Biso   1.000  O
  O11      1.0000 0.79800  0.99010  0.81760  Biso   1.000  O
  O12      1.0000 0.82930  0.92930  0.73890  Biso   1.000  O
  O13      1.0000 0.81070  0.91120  0.25550  Biso   1.000  O
  C22      1.0000 0.79500  0.92880  0.17960  Biso   1.000  C
  C23      1.0000 0.63030  0.09140  0.96600  Biso   1.000  C
  C24      1.0000 0.82060  0.91800  0.08440  Biso   1.000  C
  N3       1.0000 0.58950  0.10690  0.00400  Biso   1.000  N
  C25      1.0000 0.80870  0.93960  0.99830  Biso   1.000  C
  C26      1.0000 0.85500  0.88370  0.08650  Biso   1.000  C
  C27      1.0000 0.57300  0.07700  0.09500  Biso   1.000  C
  C28      1.0000 0.81810  0.95020  0.81560  Biso   1.000  C
  H16      1.0000 0.78570  0.96280  0.99810  Biso   1.000  H
  C29      1.0000 0.83020  0.92730  0.91280  Biso   1.000  C
  C30      1.0000 0.87590  0.87120  0.99880  Biso   1.000  C
  H17      1.0000 0.86380  0.86950  0.14510  Biso   1.000  H
  H18      1.0000 0.53900  0.07780  0.09950  Biso   1.000  H
  H19      1.0000 0.58590  0.08970  0.15430  Biso   1.000  H
  H20      1.0000 0.58280  0.04500  0.08770  Biso   1.000  H
  C31      1.0000 0.86420  0.89250  0.91180  Biso   1.000  C
  C32      1.0000 0.91160  0.83550  0.99960  Biso   1.000  C
  H21      1.0000 0.87870  0.88380  0.85350  Biso   1.000  H
  C33      1.0000 0.95810  0.85270  0.00380  Biso   1.000  C
  C34      1.0000 0.89750  0.78930  0.00130  Biso   1.000  C
  C35      1.0000 0.99600  0.81440  0.00460  Biso   1.000  C
  O14      1.0000 0.96860  0.89360  0.00650  Biso   1.000  O
  C36      1.0000 0.93440  0.75330  0.00360  Biso   1.000  C
  O15      1.0000 0.85640  0.77940  0.00050  Biso   1.000  O
  C37      1.0000 0.98190  0.76700  0.00370  Biso   1.000  C
  C38      1.0000 0.04210  0.82780  0.00470  Biso   1.000  C
  C39      1.0000 0.92430  0.70780  0.00250  Biso   1.000  C
  H22      1.0000 0.05070  0.85930  0.00620  Biso   1.000  H
  H23      1.0000 0.89280  0.69920  0.00000  Biso   1.000  H
  H24      1.0000 0.66400  0.05600  0.98700  Biso   1.000  H
  C40      1.0000 0.62240  0.05840  0.93000  Biso   1.000  C
  O16      1.0000 0.50890  0.08000  0.76400  Biso   1.000  O
  N4       1.0000 0.58760  0.03530  0.89110  Biso   1.000  N
  C41      1.0000 0.55590  0.00130  0.91800  Biso   1.000  C
  C42      1.0000 0.56800  0.03560  0.78400  Biso   1.000  C
  H25      1.0000 0.56560  0.98750  0.97940  Biso   1.000  H
  H26      1.0000 0.55460  0.97740  0.86870  Biso   1.000  H
  H27      1.0000 0.52540  0.01510  0.92610  Biso   1.000  H
  H28      1.0000 0.54370  0.05860  0.77880  Biso   1.000  H
  H29      1.0000 0.55600  0.00520  0.76830  Biso   1.000  H
  H30      1.0000 0.59320  0.04340  0.73950  Biso   1.000  H
  Sr3      1.0000 0.30940  0.49781  0.12309  Biso   1.000  Sr
  O17      1.0000 0.24030  0.54610  0.17710  Biso   1.000  O
  O18      1.0000 0.36780  0.44550  0.02640  Biso   1.000  O
  O19      1.0000 0.20200  0.50990  0.81760  Biso   1.000  O
  O20      1.0000 0.17070  0.57070  0.73890  Biso   1.000  O
  O21      1.0000 0.18930  0.58880  0.25550  Biso   1.000  O
  C43      1.0000 0.20500  0.57120  0.17960  Biso   1.000  C
  C44      1.0000 0.36970  0.40860  0.96600  Biso   1.000  C
  C45      1.0000 0.17940  0.58200  0.08440  Biso   1.000  C
  N5       1.0000 0.41050  0.39310  0.00400  Biso   1.000  N
  C46      1.0000 0.19130  0.56040  0.99830  Biso   1.000  C
  C47      1.0000 0.14500  0.61630  0.08650  Biso   1.000  C
  C48      1.0000 0.42700  0.42300  0.09500  Biso   1.000  C
  C49      1.0000 0.18190  0.54980  0.81560  Biso   1.000  C
  H31      1.0000 0.21430  0.53720  0.99810  Biso   1.000  H
  C50      1.0000 0.16980  0.57270  0.91280  Biso   1.000  C
  C51      1.0000 0.12410  0.62880  0.99880  Biso   1.000  C
  H32      1.0000 0.13620  0.63050  0.14510  Biso   1.000  H
  H33      1.0000 0.46100  0.42220  0.09950  Biso   1.000  H
  H34      1.0000 0.41410  0.41030  0.15430  Biso   1.000  H
  H35      1.0000 0.41720  0.45500  0.08770  Biso   1.000  H
  C52      1.0000 0.13580  0.60750  0.91180  Biso   1.000  C
  C53      1.0000 0.08840  0.66450  0.99960  Biso   1.000  C
  H36      1.0000 0.12130  0.61620  0.85350  Biso   1.000  H
  C54      1.0000 0.04190  0.64730  0.00380  Biso   1.000  C
  C55      1.0000 0.10250  0.71070  0.00130  Biso   1.000  C
  C56      1.0000 0.00400  0.68560  0.00460  Biso   1.000  C
  O22      1.0000 0.03140  0.60640  0.00650  Biso   1.000  O
  C57      1.0000 0.06560  0.74670  0.00360  Biso   1.000  C
  O23      1.0000 0.14360  0.72060  0.00050  Biso   1.000  O
  C58      1.0000 0.01810  0.73300  0.00370  Biso   1.000  C
  C59      1.0000 0.95790  0.67220  0.00470  Biso   1.000  C
  C60      1.0000 0.07570  0.79220  0.00250  Biso   1.000  C
  H37      1.0000 0.94930  0.64070  0.00620  Biso   1.000  H
  H38      1.0000 0.10720  0.80080  0.00000  Biso   1.000  H
  H39      1.0000 0.33600  0.44400  0.98700  Biso   1.000  H
  C61      1.0000 0.37760  0.44160  0.93000  Biso   1.000  C
  O24      1.0000 0.49110  0.42000  0.76400  Biso   1.000  O
  N6       1.0000 0.41240  0.46470  0.89110  Biso   1.000  N
  C62      1.0000 0.44410  0.49870  0.91800  Biso   1.000  C
  C63      1.0000 0.43200  0.46440  0.78400  Biso   1.000  C
  H40      1.0000 0.43440  0.51250  0.97940  Biso   1.000  H
  H41      1.0000 0.44540  0.52260  0.86870  Biso   1.000  H
  H42      1.0000 0.47460  0.48490  0.92610  Biso   1.000  H
  H43      1.0000 0.45630  0.44140  0.77880  Biso   1.000  H
  H44      1.0000 0.44400  0.49480  0.76830  Biso   1.000  H
  H45      1.0000 0.40680  0.45660  0.73950  Biso   1.000  H
  Sr4      1.0000 0.80940  0.99781  0.62309  Biso   1.000  Sr
  O25      1.0000 0.74030  0.04610  0.67710  Biso   1.000  O
  O26      1.0000 0.86780  0.94550  0.52640  Biso   1.000  O
  O27      1.0000 0.70200  0.00990  0.31760  Biso   1.000  O
  O28      1.0000 0.67070  0.07070  0.23890  Biso   1.000  O
  O29      1.0000 0.68930  0.08880  0.75550  Biso   1.000  O
  C64      1.0000 0.70500  0.07120  0.67960  Biso   1.000  C
  C65      1.0000 0.86970  0.90860  0.46600  Biso   1.000  C
  C66      1.0000 0.67940  0.08200  0.58440  Biso   1.000  C
  N7       1.0000 0.91050  0.89310  0.50400  Biso   1.000  N
  C67      1.0000 0.69130  0.06040  0.49830  Biso   1.000  C
  C68      1.0000 0.64500  0.11630  0.58650  Biso   1.000  C
  C69      1.0000 0.92700  0.92300  0.59500  Biso   1.000  C
  C70      1.0000 0.68190  0.04980  0.31560  Biso   1.000  C
  H46      1.0000 0.71430  0.03720  0.49810  Biso   1.000  H
  C71      1.0000 0.66980  0.07270  0.41280  Biso   1.000  C
  C72      1.0000 0.62410  0.12880  0.49880  Biso   1.000  C
  H47      1.0000 0.63620  0.13050  0.64510  Biso   1.000  H
  H48      1.0000 0.96100  0.92220  0.59950  Biso   1.000  H
  H49      1.0000 0.91410  0.91030  0.65430  Biso   1.000  H
  H50      1.0000 0.91720  0.95500  0.58770  Biso   1.000  H
  C73      1.0000 0.63580  0.10750  0.41180  Biso   1.000  C
  C74      1.0000 0.58840  0.16450  0.49960  Biso   1.000  C
  H51      1.0000 0.62130  0.11620  0.35350  Biso   1.000  H
  C75      1.0000 0.54190  0.14730  0.50380  Biso   1.000  C
  C76      1.0000 0.60250  0.21070  0.50130  Biso   1.000  C
  C77      1.0000 0.50400  0.18560  0.50460  Biso   1.000  C
  O30      1.0000 0.53140  0.10640  0.50650  Biso   1.000  O
  C78      1.0000 0.56560  0.24670  0.50360  Biso   1.000  C
  O31      1.0000 0.64360  0.22060  0.50050  Biso   1.000  O
  C79      1.0000 0.51810  0.23300  0.50370  Biso   1.000  C
  C80      1.0000 0.45790  0.17220  0.50470  Biso   1.000  C
  C81      1.0000 0.57570  0.29220  0.50250  Biso   1.000  C
  H52      1.0000 0.44930  0.14070  0.50620  Biso   1.000  H
  H53      1.0000 0.60720  0.30080  0.50000  Biso   1.000  H
  H54      1.0000 0.83600  0.94400  0.48700  Biso   1.000  H
  C82      1.0000 0.87760  0.94160  0.43000  Biso   1.000  C
  O32      1.0000 0.99110  0.92000  0.26400  Biso   1.000  O
  N8       1.0000 0.91240  0.96470  0.39110  Biso   1.000  N
  C83      1.0000 0.94410  0.99870  0.41800  Biso   1.000  C
  C84      1.0000 0.93200  0.96440  0.28400  Biso   1.000  C
  H55      1.0000 0.93440  0.01250  0.47940  Biso   1.000  H
  H56      1.0000 0.94540  0.02260  0.36870  Biso   1.000  H
  H57      1.0000 0.97460  0.98490  0.42610  Biso   1.000  H
  H58      1.0000 0.95630  0.94140  0.27880  Biso   1.000  H
  H59      1.0000 0.94400  0.99480  0.26830  Biso   1.000  H
  H60      1.0000 0.90680  0.95660  0.23950  Biso   1.000  H
  Sr5      1.0000 0.24781  0.44060  0.87309  Biso   1.000  Sr
  O33      1.0000 0.29610  0.50970  0.92710  Biso   1.000  O
  O34      1.0000 0.19550  0.38220  0.77640  Biso   1.000  O
  O35      1.0000 0.25990  0.54800  0.56760  Biso   1.000  O
  O36      1.0000 0.32070  0.57930  0.48890  Biso   1.000  O
  O37      1.0000 0.33880  0.56070  0.00550  Biso   1.000  O
  C85      1.0000 0.32120  0.54500  0.92960  Biso   1.000  C
  C86      1.0000 0.15860  0.38030  0.71600  Biso   1.000  C
  C87      1.0000 0.33200  0.57060  0.83440  Biso   1.000  C
  N9       1.0000 0.14310  0.33950  0.75400  Biso   1.000  N
  C88      1.0000 0.31040  0.55870  0.74830  Biso   1.000  C
  C89      1.0000 0.36630  0.60500  0.83650  Biso   1.000  C
  C90      1.0000 0.17300  0.32300  0.84500  Biso   1.000  C
  C91      1.0000 0.29980  0.56810  0.56560  Biso   1.000  C
  H61      1.0000 0.28720  0.53570  0.74810  Biso   1.000  H
  C92      1.0000 0.32270  0.58020  0.66280  Biso   1.000  C
  C93      1.0000 0.37880  0.62590  0.74880  Biso   1.000  C
  H62      1.0000 0.38050  0.61380  0.89510  Biso   1.000  H
  H63      1.0000 0.17220  0.28900  0.84950  Biso   1.000  H
  H64      1.0000 0.16030  0.33590  0.90430  Biso   1.000  H
  H65      1.0000 0.20500  0.33280  0.83770  Biso   1.000  H
  C94      1.0000 0.35750  0.61420  0.66180  Biso   1.000  C
  C95      1.0000 0.41450  0.66160  0.74960  Biso   1.000  C
  H66      1.0000 0.36620  0.62870  0.60350  Biso   1.000  H
  C96      1.0000 0.39730  0.70810  0.75380  Biso   1.000  C
  C97      1.0000 0.46070  0.64750  0.75130  Biso   1.000  C
  C98      1.0000 0.43560  0.74600  0.75460  Biso   1.000  C
  O38      1.0000 0.35640  0.71860  0.75650  Biso   1.000  O
  C99      1.0000 0.49670  0.68440  0.75360  Biso   1.000  C
  O39      1.0000 0.47060  0.60640  0.75050  Biso   1.000  O
  C100     1.0000 0.48300  0.73190  0.75370  Biso   1.000  C
  C101     1.0000 0.42220  0.79210  0.75470  Biso   1.000  C
  C102     1.0000 0.54220  0.67430  0.75250  Biso   1.000  C
  H67      1.0000 0.39070  0.80070  0.75620  Biso   1.000  H
  H68      1.0000 0.55080  0.64280  0.75000  Biso   1.000  H
  H69      1.0000 0.19400  0.41400  0.73700  Biso   1.000  H
  C103     1.0000 0.19160  0.37240  0.68000  Biso   1.000  C
  O40      1.0000 0.17000  0.25890  0.51400  Biso   1.000  O
  N10      1.0000 0.21470  0.33760  0.64110  Biso   1.000  N
  C104     1.0000 0.24870  0.30590  0.66800  Biso   1.000  C
  C105     1.0000 0.21440  0.31800  0.53400  Biso   1.000  C
  H70      1.0000 0.26250  0.31560  0.72940  Biso   1.000  H
  H71      1.0000 0.27260  0.30460  0.61870  Biso   1.000  H
  H72      1.0000 0.23490  0.27540  0.67610  Biso   1.000  H
  H73      1.0000 0.19140  0.29370  0.52880  Biso   1.000  H
  H74      1.0000 0.24480  0.30600  0.51830  Biso   1.000  H
  H75      1.0000 0.20660  0.34320  0.48950  Biso   1.000  H
  Sr6      1.0000 0.74781  0.94060  0.37309  Biso   1.000  Sr
  O41      1.0000 0.79610  0.00970  0.42710  Biso   1.000  O
  O42      1.0000 0.69550  0.88220  0.27640  Biso   1.000  O
  O43      1.0000 0.75990  0.04800  0.06760  Biso   1.000  O
  O44      1.0000 0.82070  0.07930  0.98890  Biso   1.000  O
  O45      1.0000 0.83880  0.06070  0.50550  Biso   1.000  O
  C106     1.0000 0.82120  0.04500  0.42960  Biso   1.000  C
  C107     1.0000 0.65860  0.88030  0.21600  Biso   1.000  C
  C108     1.0000 0.83200  0.07060  0.33440  Biso   1.000  C
  N11      1.0000 0.64310  0.83950  0.25400  Biso   1.000  N
  C109     1.0000 0.81040  0.05870  0.24830  Biso   1.000  C
  C110     1.0000 0.86630  0.10500  0.33650  Biso   1.000  C
  C111     1.0000 0.67300  0.82300  0.34500  Biso   1.000  C
  C112     1.0000 0.79980  0.06810  0.06560  Biso   1.000  C
  H76      1.0000 0.78720  0.03570  0.24810  Biso   1.000  H
  C113     1.0000 0.82270  0.08020  0.16280  Biso   1.000  C
  C114     1.0000 0.87880  0.12590  0.24880  Biso   1.000  C
  H77      1.0000 0.88050  0.11380  0.39510  Biso   1.000  H
  H78      1.0000 0.67220  0.78900  0.34950  Biso   1.000  H
  H79      1.0000 0.66030  0.83590  0.40430  Biso   1.000  H
  H80      1.0000 0.70500  0.83280  0.33770  Biso   1.000  H
  C115     1.0000 0.85750  0.11420  0.16180  Biso   1.000  C
  C116     1.0000 0.91450  0.16160  0.24960  Biso   1.000  C
  H81      1.0000 0.86620  0.12870  0.10350  Biso   1.000  H
  C117     1.0000 0.89730  0.20810  0.25380  Biso   1.000  C
  C118     1.0000 0.96070  0.14750  0.25130  Biso   1.000  C
  C119     1.0000 0.93560  0.24600  0.25460  Biso   1.000  C
  O46      1.0000 0.85640  0.21860  0.25650  Biso   1.000  O
  C120     1.0000 0.99670  0.18440  0.25360  Biso   1.000  C
  O47      1.0000 0.97060  0.10640  0.25050  Biso   1.000  O
  C121     1.0000 0.98300  0.23190  0.25370  Biso   1.000  C
  C122     1.0000 0.92220  0.29210  0.25470  Biso   1.000  C
  C123     1.0000 0.04220  0.17430  0.25250  Biso   1.000  C
  H82      1.0000 0.89070  0.30070  0.25620  Biso   1.000  H
  H83      1.0000 0.05080  0.14280  0.25000  Biso   1.000  H
  H84      1.0000 0.69400  0.91400  0.23700  Biso   1.000  H
  C124     1.0000 0.69160  0.87240  0.18000  Biso   1.000  C
  O48      1.0000 0.67000  0.75890  0.01400  Biso   1.000  O
  N12      1.0000 0.71470  0.83760  0.14110  Biso   1.000  N
  C125     1.0000 0.74870  0.80590  0.16800  Biso   1.000  C
  C126     1.0000 0.71440  0.81800  0.03400  Biso   1.000  C
  H85      1.0000 0.76250  0.81560  0.22940  Biso   1.000  H
  H86      1.0000 0.77260  0.80460  0.11870  Biso   1.000  H
  H87      1.0000 0.73490  0.77540  0.17610  Biso   1.000  H
  H88      1.0000 0.69140  0.79370  0.02880  Biso   1.000  H
  H89      1.0000 0.74480  0.80600  0.01830  Biso   1.000  H
  H90      1.0000 0.70660  0.84320  0.98950  Biso   1.000  H
  Sr7      1.0000 0.25219  0.55940  0.37309  Biso   1.000  Sr
  O49      1.0000 0.20390  0.49030  0.42710  Biso   1.000  O
  O50      1.0000 0.30450  0.61780  0.27640  Biso   1.000  O
  O51      1.0000 0.24010  0.45200  0.06760  Biso   1.000  O
  O52      1.0000 0.17930  0.42070  0.98890  Biso   1.000  O
  O53      1.0000 0.16120  0.43930  0.50550  Biso   1.000  O
  C127     1.0000 0.17880  0.45500  0.42960  Biso   1.000  C
  C128     1.0000 0.34140  0.61970  0.21600  Biso   1.000  C
  C129     1.0000 0.16800  0.42940  0.33440  Biso   1.000  C
  N13      1.0000 0.35690  0.66050  0.25400  Biso   1.000  N
  C130     1.0000 0.18960  0.44130  0.24830  Biso   1.000  C
  C131     1.0000 0.13370  0.39500  0.33650  Biso   1.000  C
  C132     1.0000 0.32700  0.67700  0.34500  Biso   1.000  C
  C133     1.0000 0.20020  0.43190  0.06560  Biso   1.000  C
  H91      1.0000 0.21280  0.46430  0.24810  Biso   1.000  H
  C134     1.0000 0.17730  0.41980  0.16280  Biso   1.000  C
  C135     1.0000 0.12120  0.37410  0.24880  Biso   1.000  C
  H92      1.0000 0.11950  0.38620  0.39510  Biso   1.000  H
  H93      1.0000 0.32780  0.71100  0.34950  Biso   1.000  H
  H94      1.0000 0.33970  0.66410  0.40430  Biso   1.000  H
  H95      1.0000 0.29500  0.66720  0.33770  Biso   1.000  H
  C136     1.0000 0.14250  0.38580  0.16180  Biso   1.000  C
  C137     1.0000 0.08550  0.33840  0.24960  Biso   1.000  C
  H96      1.0000 0.13380  0.37130  0.10350  Biso   1.000  H
  C138     1.0000 0.10270  0.29190  0.25380  Biso   1.000  C
  C139     1.0000 0.03930  0.35250  0.25130  Biso   1.000  C
  C140     1.0000 0.06440  0.25400  0.25460  Biso   1.000  C
  O54      1.0000 0.14360  0.28140  0.25650  Biso   1.000  O
  C141     1.0000 0.00330  0.31560  0.25360  Biso   1.000  C
  O55      1.0000 0.02940  0.39360  0.25050  Biso   1.000  O
  C142     1.0000 0.01700  0.26810  0.25370  Biso   1.000  C
  C143     1.0000 0.07780  0.20790  0.25470  Biso   1.000  C
  C144     1.0000 0.95780  0.32570  0.25250  Biso   1.000  C
  H97      1.0000 0.10930  0.19930  0.25620  Biso   1.000  H
  H98      1.0000 0.94920  0.35720  0.25000  Biso   1.000  H
  H99      1.0000 0.30600  0.58600  0.23700  Biso   1.000  H
  C145     1.0000 0.30840  0.62760  0.18000  Biso   1.000  C
  O56      1.0000 0.33000  0.74110  0.01400  Biso   1.000  O
  N14      1.0000 0.28530  0.66240  0.14110  Biso   1.000  N
  C146     1.0000 0.25130  0.69410  0.16800  Biso   1.000  C
  C147     1.0000 0.28560  0.68200  0.03400  Biso   1.000  C
  H100     1.0000 0.23750  0.68440  0.22940  Biso   1.000  H
  H101     1.0000 0.22740  0.69540  0.11870  Biso   1.000  H
  H102     1.0000 0.26510  0.72460  0.17610  Biso   1.000  H
  H103     1.0000 0.30860  0.70630  0.02880  Biso   1.000  H
  H104     1.0000 0.25520  0.69400  0.01830  Biso   1.000  H
  H105     1.0000 0.29340  0.65680  0.98950  Biso   1.000  H
  Sr8      1.0000 0.75219  0.05940  0.87309  Biso   1.000  Sr
  O57      1.0000 0.70390  0.99030  0.92710  Biso   1.000  O
  O58      1.0000 0.80450  0.11780  0.77640  Biso   1.000  O
  O59      1.0000 0.74010  0.95200  0.56760  Biso   1.000  O
  O60      1.0000 0.67930  0.92070  0.48890  Biso   1.000  O
  O61      1.0000 0.66120  0.93930  0.00550  Biso   1.000  O
  C148     1.0000 0.67880  0.95500  0.92960  Biso   1.000  C
  C149     1.0000 0.84140  0.11970  0.71600  Biso   1.000  C
  C150     1.0000 0.66800  0.92940  0.83440  Biso   1.000  C
  N15      1.0000 0.85690  0.16050  0.75400  Biso   1.000  N
  C151     1.0000 0.68960  0.94130  0.74830  Biso   1.000  C
  C152     1.0000 0.63370  0.89500  0.83650  Biso   1.000  C
  C153     1.0000 0.82700  0.17700  0.84500  Biso   1.000  C
  C154     1.0000 0.70020  0.93190  0.56560  Biso   1.000  C
  H106     1.0000 0.71280  0.96430  0.74810  Biso   1.000  H
  C155     1.0000 0.67730  0.91980  0.66280  Biso   1.000  C
  C156     1.0000 0.62120  0.87410  0.74880  Biso   1.000  C
  H107     1.0000 0.61950  0.88620  0.89510  Biso   1.000  H
  H108     1.0000 0.82780  0.21100  0.84950  Biso   1.000  H
  H109     1.0000 0.83970  0.16410  0.90430  Biso   1.000  H
  H110     1.0000 0.79500  0.16720  0.83770  Biso   1.000  H
  C157     1.0000 0.64250  0.88580  0.66180  Biso   1.000  C
  C158     1.0000 0.58550  0.83840  0.74960  Biso   1.000  C
  H111     1.0000 0.63380  0.87130  0.60350  Biso   1.000  H
  C159     1.0000 0.60270  0.79190  0.75380  Biso   1.000  C
  C160     1.0000 0.53930  0.85250  0.75130  Biso   1.000  C
  C161     1.0000 0.56440  0.75400  0.75460  Biso   1.000  C
  O62      1.0000 0.64360  0.78140  0.75650  Biso   1.000  O
  C162     1.0000 0.50330  0.81560  0.75360  Biso   1.000  C
  O63      1.0000 0.52940  0.89360  0.75050  Biso   1.000  O
  C163     1.0000 0.51700  0.76810  0.75370  Biso   1.000  C
  C164     1.0000 0.57780  0.70790  0.75470  Biso   1.000  C
  C165     1.0000 0.45780  0.82570  0.75250  Biso   1.000  C
  H112     1.0000 0.60930  0.69930  0.75620  Biso   1.000  H
  H113     1.0000 0.44920  0.85720  0.75000  Biso   1.000  H
  H114     1.0000 0.80600  0.08600  0.73700  Biso   1.000  H
  C166     1.0000 0.80840  0.12760  0.68000  Biso   1.000  C
  O64      1.0000 0.83000  0.24110  0.51400  Biso   1.000  O
  N16      1.0000 0.78530  0.16240  0.64110  Biso   1.000  N
  C167     1.0000 0.75130  0.19410  0.66800  Biso   1.000  C
  C168     1.0000 0.78560  0.18200  0.53400  Biso   1.000  C
  H115     1.0000 0.73750  0.18440  0.72940  Biso   1.000  H
  H116     1.0000 0.72740  0.19540  0.61870  Biso   1.000  H
  H117     1.0000 0.76510  0.22460  0.67610  Biso   1.000  H
  H118     1.0000 0.80860  0.20630  0.52880  Biso   1.000  H
  H119     1.0000 0.75520  0.19400  0.51830  Biso   1.000  H
  H120     1.0000 0.79340  0.15680  0.48950  Biso   1.000  H
  Sr9      1.0000 0.80940  0.49781  0.37691  Biso   1.000  Sr
  O65      1.0000 0.74030  0.54610  0.32290  Biso   1.000  O
  O66      1.0000 0.86780  0.44550  0.47360  Biso   1.000  O
  O67      1.0000 0.70200  0.50990  0.68240  Biso   1.000  O
  O68      1.0000 0.67070  0.57070  0.76110  Biso   1.000  O
  O69      1.0000 0.68930  0.58880  0.24450  Biso   1.000  O
  C169     1.0000 0.70500  0.57120  0.32040  Biso   1.000  C
  C170     1.0000 0.86970  0.40860  0.53400  Biso   1.000  C
  C171     1.0000 0.67940  0.58200  0.41560  Biso   1.000  C
  N17      1.0000 0.91050  0.39310  0.49600  Biso   1.000  N
  C172     1.0000 0.69130  0.56040  0.50170  Biso   1.000  C
  C173     1.0000 0.64500  0.61630  0.41350  Biso   1.000  C
  C174     1.0000 0.92700  0.42300  0.40500  Biso   1.000  C
  C175     1.0000 0.68190  0.54980  0.68440  Biso   1.000  C
  H121     1.0000 0.71430  0.53720  0.50190  Biso   1.000  H
  C176     1.0000 0.66980  0.57270  0.58720  Biso   1.000  C
  C177     1.0000 0.62410  0.62880  0.50120  Biso   1.000  C
  H122     1.0000 0.63620  0.63050  0.35490  Biso   1.000  H
  H123     1.0000 0.96100  0.42220  0.40050  Biso   1.000  H
  H124     1.0000 0.91410  0.41030  0.34570  Biso   1.000  H
  H125     1.0000 0.91720  0.45500  0.41230  Biso   1.000  H
  C178     1.0000 0.63580  0.60750  0.58820  Biso   1.000  C
  C179     1.0000 0.58840  0.66450  0.50040  Biso   1.000  C
  H126     1.0000 0.62130  0.61620  0.64650  Biso   1.000  H
  C180     1.0000 0.54190  0.64730  0.49620  Biso   1.000  C
  C181     1.0000 0.60250  0.71070  0.49870  Biso   1.000  C
  C182     1.0000 0.50400  0.68560  0.49540  Biso   1.000  C
  O70      1.0000 0.53140  0.60640  0.49350  Biso   1.000  O
  C183     1.0000 0.56560  0.74670  0.49640  Biso   1.000  C
  O71      1.0000 0.64360  0.72060  0.49950  Biso   1.000  O
  C184     1.0000 0.51810  0.73300  0.49630  Biso   1.000  C
  C185     1.0000 0.45790  0.67220  0.49530  Biso   1.000  C
  C186     1.0000 0.57570  0.79220  0.49750  Biso   1.000  C
  H127     1.0000 0.44930  0.64070  0.49380  Biso   1.000  H
  H128     1.0000 0.60720  0.80080  0.50000  Biso   1.000  H
  H129     1.0000 0.83600  0.44400  0.51300  Biso   1.000  H
  C187     1.0000 0.87760  0.44160  0.57000  Biso   1.000  C
  O72      1.0000 0.99110  0.42000  0.73600  Biso   1.000  O
  N18      1.0000 0.91240  0.46470  0.60890  Biso   1.000  N
  C188     1.0000 0.94410  0.49870  0.58200  Biso   1.000  C
  C189     1.0000 0.93200  0.46440  0.71600  Biso   1.000  C
  H130     1.0000 0.93440  0.51250  0.52060  Biso   1.000  H
  H131     1.0000 0.94540  0.52260  0.63130  Biso   1.000  H
  H132     1.0000 0.97460  0.48490  0.57390  Biso   1.000  H
  H133     1.0000 0.95630  0.44140  0.72120  Biso   1.000  H
  H134     1.0000 0.94400  0.49480  0.73170  Biso   1.000  H
  H135     1.0000 0.90680  0.45660  0.76050  Biso   1.000  H
  Sr10     1.0000 0.30940  0.99781  0.87691  Biso   1.000  Sr
  O73      1.0000 0.24030  0.04610  0.82290  Biso   1.000  O
  O74      1.0000 0.36780  0.94550  0.97360  Biso   1.000  O
  O75      1.0000 0.20200  0.00990  0.18240  Biso   1.000  O
  O76      1.0000 0.17070  0.07070  0.26110  Biso   1.000  O
  O77      1.0000 0.18930  0.08880  0.74450  Biso   1.000  O
  C190     1.0000 0.20500  0.07120  0.82040  Biso   1.000  C
  C191     1.0000 0.36970  0.90860  0.03400  Biso   1.000  C
  C192     1.0000 0.17940  0.08200  0.91560  Biso   1.000  C
  N19      1.0000 0.41050  0.89310  0.99600  Biso   1.000  N
  C193     1.0000 0.19130  0.06040  0.00170  Biso   1.000  C
  C194     1.0000 0.14500  0.11630  0.91350  Biso   1.000  C
  C195     1.0000 0.42700  0.92300  0.90500  Biso   1.000  C
  C196     1.0000 0.18190  0.04980  0.18440  Biso   1.000  C
  H136     1.0000 0.21430  0.03720  0.00190  Biso   1.000  H
  C197     1.0000 0.16980  0.07270  0.08720  Biso   1.000  C
  C198     1.0000 0.12410  0.12880  0.00120  Biso   1.000  C
  H137     1.0000 0.13620  0.13050  0.85490  Biso   1.000  H
  H138     1.0000 0.46100  0.92220  0.90050  Biso   1.000  H
  H139     1.0000 0.41410  0.91030  0.84570  Biso   1.000  H
  H140     1.0000 0.41720  0.95500  0.91230  Biso   1.000  H
  C199     1.0000 0.13580  0.10750  0.08820  Biso   1.000  C
  C200     1.0000 0.08840  0.16450  0.00040  Biso   1.000  C
  H141     1.0000 0.12130  0.11620  0.14650  Biso   1.000  H
  C201     1.0000 0.04190  0.14730  0.99620  Biso   1.000  C
  C202     1.0000 0.10250  0.21070  0.99870  Biso   1.000  C
  C203     1.0000 0.00400  0.18560  0.99540  Biso   1.000  C
  O78      1.0000 0.03140  0.10640  0.99350  Biso   1.000  O
  C204     1.0000 0.06560  0.24670  0.99640  Biso   1.000  C
  O79      1.0000 0.14360  0.22060  0.99950  Biso   1.000  O
  C205     1.0000 0.01810  0.23300  0.99630  Biso   1.000  C
  C206     1.0000 0.95790  0.17220  0.99530  Biso   1.000  C
  C207     1.0000 0.07570  0.29220  0.99750  Biso   1.000  C
  H142     1.0000 0.94930  0.14070  0.99380  Biso   1.000  H
  H143     1.0000 0.10720  0.30080  0.00000  Biso   1.000  H
  H144     1.0000 0.33600  0.94400  0.01300  Biso   1.000  H
  C208     1.0000 0.37760  0.94160  0.07000  Biso   1.000  C
  O80      1.0000 0.49110  0.92000  0.23600  Biso   1.000  O
  N20      1.0000 0.41240  0.96470  0.10890  Biso   1.000  N
  C209     1.0000 0.44410  0.99870  0.08200  Biso   1.000  C
  C210     1.0000 0.43200  0.96440  0.21600  Biso   1.000  C
  H145     1.0000 0.43440  0.01250  0.02060  Biso   1.000  H
  H146     1.0000 0.44540  0.02260  0.13130  Biso   1.000  H
  H147     1.0000 0.47460  0.98490  0.07390  Biso   1.000  H
  H148     1.0000 0.45630  0.94140  0.22120  Biso   1.000  H
  H149     1.0000 0.44400  0.99480  0.23170  Biso   1.000  H
  H150     1.0000 0.40680  0.95660  0.26050  Biso   1.000  H
  Sr11     1.0000 0.69060  0.50219  0.87691  Biso   1.000  Sr
  O81      1.0000 0.75970  0.45390  0.82290  Biso   1.000  O
  O82      1.0000 0.63220  0.55450  0.97360  Biso   1.000  O
  O83      1.0000 0.79800  0.49010  0.18240  Biso   1.000  O
  O84      1.0000 0.82930  0.42930  0.26110  Biso   1.000  O
  O85      1.0000 0.81070  0.41120  0.74450  Biso   1.000  O
  C211     1.0000 0.79500  0.42880  0.82040  Biso   1.000  C
  C212     1.0000 0.63030  0.59140  0.03400  Biso   1.000  C
  C213     1.0000 0.82060  0.41800  0.91560  Biso   1.000  C
  N21      1.0000 0.58950  0.60690  0.99600  Biso   1.000  N
  C214     1.0000 0.80870  0.43960  0.00170  Biso   1.000  C
  C215     1.0000 0.85500  0.38370  0.91350  Biso   1.000  C
  C216     1.0000 0.57300  0.57700  0.90500  Biso   1.000  C
  C217     1.0000 0.81810  0.45020  0.18440  Biso   1.000  C
  H151     1.0000 0.78570  0.46280  0.00190  Biso   1.000  H
  C218     1.0000 0.83020  0.42730  0.08720  Biso   1.000  C
  C219     1.0000 0.87590  0.37120  0.00120  Biso   1.000  C
  H152     1.0000 0.86380  0.36950  0.85490  Biso   1.000  H
  H153     1.0000 0.53900  0.57780  0.90050  Biso   1.000  H
  H154     1.0000 0.58590  0.58970  0.84570  Biso   1.000  H
  H155     1.0000 0.58280  0.54500  0.91230  Biso   1.000  H
  C220     1.0000 0.86420  0.39250  0.08820  Biso   1.000  C
  C221     1.0000 0.91160  0.33550  0.00040  Biso   1.000  C
  H156     1.0000 0.87870  0.38380  0.14650  Biso   1.000  H
  C222     1.0000 0.95810  0.35270  0.99620  Biso   1.000  C
  C223     1.0000 0.89750  0.28930  0.99870  Biso   1.000  C
  C224     1.0000 0.99600  0.31440  0.99540  Biso   1.000  C
  O86      1.0000 0.96860  0.39360  0.99350  Biso   1.000  O
  C225     1.0000 0.93440  0.25330  0.99640  Biso   1.000  C
  O87      1.0000 0.85640  0.27940  0.99950  Biso   1.000  O
  C226     1.0000 0.98190  0.26700  0.99630  Biso   1.000  C
  C227     1.0000 0.04210  0.32780  0.99530  Biso   1.000  C
  C228     1.0000 0.92430  0.20780  0.99750  Biso   1.000  C
  H157     1.0000 0.05070  0.35930  0.99380  Biso   1.000  H
  H158     1.0000 0.89280  0.19920  0.00000  Biso   1.000  H
  H159     1.0000 0.66400  0.55600  0.01300  Biso   1.000  H
  C229     1.0000 0.62240  0.55840  0.07000  Biso   1.000  C
  O88      1.0000 0.50890  0.58000  0.23600  Biso   1.000  O
  N22      1.0000 0.58760  0.53530  0.10890  Biso   1.000  N
  C230     1.0000 0.55590  0.50130  0.08200  Biso   1.000  C
  C231     1.0000 0.56800  0.53560  0.21600  Biso   1.000  C
  H160     1.0000 0.56560  0.48750  0.02060  Biso   1.000  H
  H161     1.0000 0.55460  0.47740  0.13130  Biso   1.000  H
  H162     1.0000 0.52540  0.51510  0.07390  Biso   1.000  H
  H163     1.0000 0.54370  0.55860  0.22120  Biso   1.000  H
  H164     1.0000 0.55600  0.50520  0.23170  Biso   1.000  H
  H165     1.0000 0.59320  0.54340  0.26050  Biso   1.000  H
  Sr12     1.0000 0.19060  0.00219  0.37691  Biso   1.000  Sr
  O89      1.0000 0.25970  0.95390  0.32290  Biso   1.000  O
  O90      1.0000 0.13220  0.05450  0.47360  Biso   1.000  O
  O91      1.0000 0.29800  0.99010  0.68240  Biso   1.000  O
  O92      1.0000 0.32930  0.92930  0.76110  Biso   1.000  O
  O93      1.0000 0.31070  0.91120  0.24450  Biso   1.000  O
  C232     1.0000 0.29500  0.92880  0.32040  Biso   1.000  C
  C233     1.0000 0.13030  0.09140  0.53400  Biso   1.000  C
  C234     1.0000 0.32060  0.91800  0.41560  Biso   1.000  C
  N23      1.0000 0.08950  0.10690  0.49600  Biso   1.000  N
  C235     1.0000 0.30870  0.93960  0.50170  Biso   1.000  C
  C236     1.0000 0.35500  0.88370  0.41350  Biso   1.000  C
  C237     1.0000 0.07300  0.07700  0.40500  Biso   1.000  C
  C238     1.0000 0.31810  0.95020  0.68440  Biso   1.000  C
  H166     1.0000 0.28570  0.96280  0.50190  Biso   1.000  H
  C239     1.0000 0.33020  0.92730  0.58720  Biso   1.000  C
  C240     1.0000 0.37590  0.87120  0.50120  Biso   1.000  C
  H167     1.0000 0.36380  0.86950  0.35490  Biso   1.000  H
  H168     1.0000 0.03900  0.07780  0.40050  Biso   1.000  H
  H169     1.0000 0.08590  0.08970  0.34570  Biso   1.000  H
  H170     1.0000 0.08280  0.04500  0.41230  Biso   1.000  H
  C241     1.0000 0.36420  0.89250  0.58820  Biso   1.000  C
  C242     1.0000 0.41160  0.83550  0.50040  Biso   1.000  C
  H171     1.0000 0.37870  0.88380  0.64650  Biso   1.000  H
  C243     1.0000 0.45810  0.85270  0.49620  Biso   1.000  C
  C244     1.0000 0.39750  0.78930  0.49870  Biso   1.000  C
  C245     1.0000 0.49600  0.81440  0.49540  Biso   1.000  C
  O94      1.0000 0.46860  0.89360  0.49350  Biso   1.000  O
  C246     1.0000 0.43440  0.75330  0.49640  Biso   1.000  C
  O95      1.0000 0.35640  0.77940  0.49950  Biso   1.000  O
  C247     1.0000 0.48190  0.76700  0.49630  Biso   1.000  C
  C248     1.0000 0.54210  0.82780  0.49530  Biso   1.000  C
  C249     1.0000 0.42430  0.70780  0.49750  Biso   1.000  C
  H172     1.0000 0.55070  0.85930  0.49380  Biso   1.000  H
  H173     1.0000 0.39280  0.69920  0.50000  Biso   1.000  H
  H174     1.0000 0.16400  0.05600  0.51300  Biso   1.000  H
  C250     1.0000 0.12240  0.05840  0.57000  Biso   1.000  C
  O96      1.0000 0.00890  0.08000  0.73600  Biso   1.000  O
  N24      1.0000 0.08760  0.03530  0.60890  Biso   1.000  N
  C251     1.0000 0.05590  0.00130  0.58200  Biso   1.000  C
  C252     1.0000 0.06800  0.03560  0.71600  Biso   1.000  C
  H175     1.0000 0.06560  0.98750  0.52060  Biso   1.000  H
  H176     1.0000 0.05460  0.97740  0.63130  Biso   1.000  H
  H177     1.0000 0.02540  0.01510  0.57390  Biso   1.000  H
  H178     1.0000 0.04370  0.05860  0.72120  Biso   1.000  H
  H179     1.0000 0.05600  0.00520  0.73170  Biso   1.000  H
  H180     1.0000 0.09320  0.04340  0.76050  Biso   1.000  H
  Sr13     1.0000 0.75219  0.55940  0.12691  Biso   1.000  Sr
  O97      1.0000 0.70390  0.49030  0.07290  Biso   1.000  O
  O98      1.0000 0.80450  0.61780  0.22360  Biso   1.000  O
  O99      1.0000 0.74010  0.45200  0.43240  Biso   1.000  O
  O100     1.0000 0.67930  0.42070  0.51110  Biso   1.000  O
  O101     1.0000 0.66120  0.43930  0.99450  Biso   1.000  O
  C253     1.0000 0.67880  0.45500  0.07040  Biso   1.000  C
  C254     1.0000 0.84140  0.61970  0.28400  Biso   1.000  C
  C255     1.0000 0.66800  0.42940  0.16560  Biso   1.000  C
  N25      1.0000 0.85690  0.66050  0.24600  Biso   1.000  N
  C256     1.0000 0.68960  0.44130  0.25170  Biso   1.000  C
  C257     1.0000 0.63370  0.39500  0.16350  Biso   1.000  C
  C258     1.0000 0.82700  0.67700  0.15500  Biso   1.000  C
  C259     1.0000 0.70020  0.43190  0.43440  Biso   1.000  C
  H181     1.0000 0.71280  0.46430  0.25190  Biso   1.000  H
  C260     1.0000 0.67730  0.41980  0.33720  Biso   1.000  C
  C261     1.0000 0.62120  0.37410  0.25120  Biso   1.000  C
  H182     1.0000 0.61950  0.38620  0.10490  Biso   1.000  H
  H183     1.0000 0.82780  0.71100  0.15050  Biso   1.000  H
  H184     1.0000 0.83970  0.66410  0.09570  Biso   1.000  H
  H185     1.0000 0.79500  0.66720  0.16230  Biso   1.000  H
  C262     1.0000 0.64250  0.38580  0.33820  Biso   1.000  C
  C263     1.0000 0.58550  0.33840  0.25040  Biso   1.000  C
  H186     1.0000 0.63380  0.37130  0.39650  Biso   1.000  H
  C264     1.0000 0.60270  0.29190  0.24620  Biso   1.000  C
  C265     1.0000 0.53930  0.35250  0.24870  Biso   1.000  C
  C266     1.0000 0.56440  0.25400  0.24540  Biso   1.000  C
  O102     1.0000 0.64360  0.28140  0.24350  Biso   1.000  O
  C267     1.0000 0.50330  0.31560  0.24640  Biso   1.000  C
  O103     1.0000 0.52940  0.39360  0.24950  Biso   1.000  O
  C268     1.0000 0.51700  0.26810  0.24630  Biso   1.000  C
  C269     1.0000 0.57780  0.20790  0.24530  Biso   1.000  C
  C270     1.0000 0.45780  0.32570  0.24750  Biso   1.000  C
  H187     1.0000 0.60930  0.19930  0.24380  Biso   1.000  H
  H188     1.0000 0.44920  0.35720  0.25000  Biso   1.000  H
  H189     1.0000 0.80600  0.58600  0.26300  Biso   1.000  H
  C271     1.0000 0.80840  0.62760  0.32000  Biso   1.000  C
  O104     1.0000 0.83000  0.74110  0.48600  Biso   1.000  O
  N26      1.0000 0.78530  0.66240  0.35890  Biso   1.000  N
  C272     1.0000 0.75130  0.69410  0.33200  Biso   1.000  C
  C273     1.0000 0.78560  0.68200  0.46600  Biso   1.000  C
  H190     1.0000 0.73750  0.68440  0.27060  Biso   1.000  H
  H191     1.0000 0.72740  0.69540  0.38130  Biso   1.000  H
  H192     1.0000 0.76510  0.72460  0.32390  Biso   1.000  H
  H193     1.0000 0.80860  0.70630  0.47120  Biso   1.000  H
  H194     1.0000 0.75520  0.69400  0.48170  Biso   1.000  H
  H195     1.0000 0.79340  0.65680  0.51050  Biso   1.000  H
  Sr14     1.0000 0.25219  0.05940  0.62691  Biso   1.000  Sr
  O105     1.0000 0.20390  0.99030  0.57290  Biso   1.000  O
  O106     1.0000 0.30450  0.11780  0.72360  Biso   1.000  O
  O107     1.0000 0.24010  0.95200  0.93240  Biso   1.000  O
  O108     1.0000 0.17930  0.92070  0.01110  Biso   1.000  O
  O109     1.0000 0.16120  0.93930  0.49450  Biso   1.000  O
  C274     1.0000 0.17880  0.95500  0.57040  Biso   1.000  C
  C275     1.0000 0.34140  0.11970  0.78400  Biso   1.000  C
  C276     1.0000 0.16800  0.92940  0.66560  Biso   1.000  C
  N27      1.0000 0.35690  0.16050  0.74600  Biso   1.000  N
  C277     1.0000 0.18960  0.94130  0.75170  Biso   1.000  C
  C278     1.0000 0.13370  0.89500  0.66350  Biso   1.000  C
  C279     1.0000 0.32700  0.17700  0.65500  Biso   1.000  C
  C280     1.0000 0.20020  0.93190  0.93440  Biso   1.000  C
  H196     1.0000 0.21280  0.96430  0.75190  Biso   1.000  H
  C281     1.0000 0.17730  0.91980  0.83720  Biso   1.000  C
  C282     1.0000 0.12120  0.87410  0.75120  Biso   1.000  C
  H197     1.0000 0.11950  0.88620  0.60490  Biso   1.000  H
  H198     1.0000 0.32780  0.21100  0.65050  Biso   1.000  H
  H199     1.0000 0.33970  0.16410  0.59570  Biso   1.000  H
  H200     1.0000 0.29500  0.16720  0.66230  Biso   1.000  H
  C283     1.0000 0.14250  0.88580  0.83820  Biso   1.000  C
  C284     1.0000 0.08550  0.83840  0.75040  Biso   1.000  C
  H201     1.0000 0.13380  0.87130  0.89650  Biso   1.000  H
  C285     1.0000 0.10270  0.79190  0.74620  Biso   1.000  C
  C286     1.0000 0.03930  0.85250  0.74870  Biso   1.000  C
  C287     1.0000 0.06440  0.75400  0.74540  Biso   1.000  C
  O110     1.0000 0.14360  0.78140  0.74350  Biso   1.000  O
  C288     1.0000 0.00330  0.81560  0.74640  Biso   1.000  C
  O111     1.0000 0.02940  0.89360  0.74950  Biso   1.000  O
  C289     1.0000 0.01700  0.76810  0.74630  Biso   1.000  C
  C290     1.0000 0.07780  0.70790  0.74530  Biso   1.000  C
  C291     1.0000 0.95780  0.82570  0.74750  Biso   1.000  C
  H202     1.0000 0.10930  0.69930  0.74380  Biso   1.000  H
  H203     1.0000 0.94920  0.85720  0.75000  Biso   1.000  H
  H204     1.0000 0.30600  0.08600  0.76300  Biso   1.000  H
  C292     1.0000 0.30840  0.12760  0.82000  Biso   1.000  C
  O112     1.0000 0.33000  0.24110  0.98600  Biso   1.000  O
  N28      1.0000 0.28530  0.16240  0.85890  Biso   1.000  N
  C293     1.0000 0.25130  0.19410  0.83200  Biso   1.000  C
  C294     1.0000 0.28560  0.18200  0.96600  Biso   1.000  C
  H205     1.0000 0.23750  0.18440  0.77060  Biso   1.000  H
  H206     1.0000 0.22740  0.19540  0.88130  Biso   1.000  H
  H207     1.0000 0.26510  0.22460  0.82390  Biso   1.000  H
  H208     1.0000 0.30860  0.20630  0.97120  Biso   1.000  H
  H209     1.0000 0.25520  0.19400  0.98170  Biso   1.000  H
  H210     1.0000 0.29340  0.15680  0.01050  Biso   1.000  H
  Sr15     1.0000 0.74781  0.44060  0.62691  Biso   1.000  Sr
  O113     1.0000 0.79610  0.50970  0.57290  Biso   1.000  O
  O114     1.0000 0.69550  0.38220  0.72360  Biso   1.000  O
  O115     1.0000 0.75990  0.54800  0.93240  Biso   1.000  O
  O116     1.0000 0.82070  0.57930  0.01110  Biso   1.000  O
  O117     1.0000 0.83880  0.56070  0.49450  Biso   1.000  O
  C295     1.0000 0.82120  0.54500  0.57040  Biso   1.000  C
  C296     1.0000 0.65860  0.38030  0.78400  Biso   1.000  C
  C297     1.0000 0.83200  0.57060  0.66560  Biso   1.000  C
  N29      1.0000 0.64310  0.33950  0.74600  Biso   1.000  N
  C298     1.0000 0.81040  0.55870  0.75170  Biso   1.000  C
  C299     1.0000 0.86630  0.60500  0.66350  Biso   1.000  C
  C300     1.0000 0.67300  0.32300  0.65500  Biso   1.000  C
  C301     1.0000 0.79980  0.56810  0.93440  Biso   1.000  C
  H211     1.0000 0.78720  0.53570  0.75190  Biso   1.000  H
  C302     1.0000 0.82270  0.58020  0.83720  Biso   1.000  C
  C303     1.0000 0.87880  0.62590  0.75120  Biso   1.000  C
  H212     1.0000 0.88050  0.61380  0.60490  Biso   1.000  H
  H213     1.0000 0.67220  0.28900  0.65050  Biso   1.000  H
  H214     1.0000 0.66030  0.33590  0.59570  Biso   1.000  H
  H215     1.0000 0.70500  0.33280  0.66230  Biso   1.000  H
  C304     1.0000 0.85750  0.61420  0.83820  Biso   1.000  C
  C305     1.0000 0.91450  0.66160  0.75040  Biso   1.000  C
  H216     1.0000 0.86620  0.62870  0.89650  Biso   1.000  H
  C306     1.0000 0.89730  0.70810  0.74620  Biso   1.000  C
  C307     1.0000 0.96070  0.64750  0.74870  Biso   1.000  C
  C308     1.0000 0.93560  0.74600  0.74540  Biso   1.000  C
  O118     1.0000 0.85640  0.71860  0.74350  Biso   1.000  O
  C309     1.0000 0.99670  0.68440  0.74640  Biso   1.000  C
  O119     1.0000 0.97060  0.60640  0.74950  Biso   1.000  O
  C310     1.0000 0.98300  0.73190  0.74630  Biso   1.000  C
  C311     1.0000 0.92220  0.79210  0.74530  Biso   1.000  C
  C312     1.0000 0.04220  0.67430  0.74750  Biso   1.000  C
  H217     1.0000 0.89070  0.80070  0.74380  Biso   1.000  H
  H218     1.0000 0.05080  0.64280  0.75000  Biso   1.000  H
  H219     1.0000 0.69400  0.41400  0.76300  Biso   1.000  H
  C313     1.0000 0.69160  0.37240  0.82000  Biso   1.000  C
  O120     1.0000 0.67000  0.25890  0.98600  Biso   1.000  O
  N30      1.0000 0.71470  0.33760  0.85890  Biso   1.000  N
  C314     1.0000 0.74870  0.30590  0.83200  Biso   1.000  C
  C315     1.0000 0.71440  0.31800  0.96600  Biso   1.000  C
  H220     1.0000 0.76250  0.31560  0.77060  Biso   1.000  H
  H221     1.0000 0.77260  0.30460  0.88130  Biso   1.000  H
  H222     1.0000 0.73490  0.27540  0.82390  Biso   1.000  H
  H223     1.0000 0.69140  0.29370  0.97120  Biso   1.000  H
  H224     1.0000 0.74480  0.30600  0.98170  Biso   1.000  H
  H225     1.0000 0.70660  0.34320  0.01050  Biso   1.000  H
  Sr16     1.0000 0.24781  0.94060  0.12691  Biso   1.000  Sr
  O121     1.0000 0.29610  0.00970  0.07290  Biso   1.000  O
  O122     1.0000 0.19550  0.88220  0.22360  Biso   1.000  O
  O123     1.0000 0.25990  0.04800  0.43240  Biso   1.000  O
  O124     1.0000 0.32070  0.07930  0.51110  Biso   1.000  O
  O125     1.0000 0.33880  0.06070  0.99450  Biso   1.000  O
  C316     1.0000 0.32120  0.04500  0.07040  Biso   1.000  C
  C317     1.0000 0.15860  0.88030  0.28400  Biso   1.000  C
  C318     1.0000 0.33200  0.07060  0.16560  Biso   1.000  C
  N31      1.0000 0.14310  0.83950  0.24600  Biso   1.000  N
  C319     1.0000 0.31040  0.05870  0.25170  Biso   1.000  C
  C320     1.0000 0.36630  0.10500  0.16350  Biso   1.000  C
  C321     1.0000 0.17300  0.82300  0.15500  Biso   1.000  C
  C322     1.0000 0.29980  0.06810  0.43440  Biso   1.000  C
  H226     1.0000 0.28720  0.03570  0.25190  Biso   1.000  H
  C323     1.0000 0.32270  0.08020  0.33720  Biso   1.000  C
  C324     1.0000 0.37880  0.12590  0.25120  Biso   1.000  C
  H227     1.0000 0.38050  0.11380  0.10490  Biso   1.000  H
  H228     1.0000 0.17220  0.78900  0.15050  Biso   1.000  H
  H229     1.0000 0.16030  0.83590  0.09570  Biso   1.000  H
  H230     1.0000 0.20500  0.83280  0.16230  Biso   1.000  H
  C325     1.0000 0.35750  0.11420  0.33820  Biso   1.000  C
  C326     1.0000 0.41450  0.16160  0.25040  Biso   1.000  C
  H231     1.0000 0.36620  0.12870  0.39650  Biso   1.000  H
  C327     1.0000 0.39730  0.20810  0.24620  Biso   1.000  C
  C328     1.0000 0.46070  0.14750  0.24870  Biso   1.000  C
  C329     1.0000 0.43560  0.24600  0.24540  Biso   1.000  C
  O126     1.0000 0.35640  0.21860  0.24350  Biso   1.000  O
  C330     1.0000 0.49670  0.18440  0.24640  Biso   1.000  C
  O127     1.0000 0.47060  0.10640  0.24950  Biso   1.000  O
  C331     1.0000 0.48300  0.23190  0.24630  Biso   1.000  C
  C332     1.0000 0.42220  0.29210  0.24530  Biso   1.000  C
  C333     1.0000 0.54220  0.17430  0.24750  Biso   1.000  C
  H232     1.0000 0.39070  0.30070  0.24380  Biso   1.000  H
  H233     1.0000 0.55080  0.14280  0.25000  Biso   1.000  H
  H234     1.0000 0.19400  0.91400  0.26300  Biso   1.000  H
  C334     1.0000 0.19160  0.87240  0.32000  Biso   1.000  C
  O128     1.0000 0.17000  0.75890  0.48600  Biso   1.000  O
  N32      1.0000 0.21470  0.83760  0.35890  Biso   1.000  N
  C335     1.0000 0.24870  0.80590  0.33200  Biso   1.000  C
  C336     1.0000 0.21440  0.81800  0.46600  Biso   1.000  C
  H235     1.0000 0.26250  0.81560  0.27060  Biso   1.000  H
  H236     1.0000 0.27260  0.80460  0.38130  Biso   1.000  H
  H237     1.0000 0.23490  0.77540  0.32390  Biso   1.000  H
  H238     1.0000 0.19140  0.79370  0.47120  Biso   1.000  H
  H239     1.0000 0.24480  0.80600  0.48170  Biso   1.000  H
  H240     1.0000 0.20660  0.84320  0.51050  Biso   1.000  H
