data_image0
_cell_length_a       30.839
_cell_length_b       14.9128
_cell_length_c       34.344
_cell_angle_alpha    90
_cell_angle_beta     99.929
_cell_angle_gamma    90

_symmetry_space_group_name_H-M    "P 1"
_symmetry_int_tables_number       1

loop_
  _symmetry_equiv_pos_as_xyz
  'x, y, z'

loop_
  _atom_site_label
  _atom_site_occupancy
  _atom_site_fract_x
  _atom_site_fract_y
  _atom_site_fract_z
  _atom_site_thermal_displace_type
  _atom_site_B_iso_or_equiv
  _atom_site_type_symbol
  Zn1      1.0000 0.24031  0.88320  0.58481  Biso   1.000  Zn
  I1       1.0000 0.31496  0.90310  0.63004  Biso   1.000  I
  I2       1.0000 0.22117  0.98100  0.52407  Biso   1.000  I
  Zn2      1.0000 0.90133  0.35530  0.66051  Biso   1.000  Zn
  I3       1.0000 0.86686  0.39100  0.72088  Biso   1.000  I
  N1       1.0000 0.08440  0.88530  0.71260  Biso   1.000  N
  N2       1.0000 0.06170  0.01400  0.67360  Biso   1.000  N
  N3       1.0000 0.02160  0.96700  0.72520  Biso   1.000  N
  N4       1.0000 0.18950  0.89900  0.61680  Biso   1.000  N
  N5       1.0000 0.94730  0.25100  0.67490  Biso   1.000  N
  N6       1.0000 0.04500  0.73800  0.83150  Biso   1.000  N
  C1       1.0000 0.08680  0.94200  0.68230  Biso   1.000  C
  C2       1.0000 0.02880  0.02200  0.69680  Biso   1.000  C
  C3       1.0000 0.05230  0.90100  0.73240  Biso   1.000  C
  C4       1.0000 0.12290  0.92600  0.65910  Biso   1.000  C
  C5       1.0000 0.14630  0.85200  0.66130  Biso   1.000  C
  H1       1.0000 0.13910  0.80440  0.67750  Biso   1.000  H
  C6       1.0000 0.18010  0.84100  0.64160  Biso   1.000  C
  H2       1.0000 0.19770  0.78850  0.64620  Biso   1.000  H
  C7       1.0000 0.16500  0.97200  0.61050  Biso   1.000  C
  H3       1.0000 0.16980  0.01210  0.59020  Biso   1.000  H
  C8       1.0000 0.13110  0.99200  0.63350  Biso   1.000  C
  H4       1.0000 0.11560  0.04770  0.63100  Biso   1.000  H
  C9       1.0000 0.00090  0.10200  0.68820  Biso   1.000  C
  C10      1.0000 0.99910  0.15200  0.65370  Biso   1.000  C
  H5       1.0000 0.01720  0.13610  0.63500  Biso   1.000  H
  C11      1.0000 0.97240  0.22200  0.64680  Biso   1.000  C
  H6       1.0000 0.97020  0.25370  0.62240  Biso   1.000  H
  C12      1.0000 0.94690  0.20500  0.70810  Biso   1.000  C
  H7       1.0000 0.92990  0.22390  0.72720  Biso   1.000  H
  C13      1.0000 0.97330  0.12600  0.71370  Biso   1.000  C
  H8       1.0000 0.97170  0.08880  0.73590  Biso   1.000  H
  C14      1.0000 0.04860  0.84300  0.76790  Biso   1.000  C
  C15      1.0000 0.00760  0.82400  0.77880  Biso   1.000  C
  H9       1.0000 0.98110  0.84660  0.76370  Biso   1.000  H
  C16      1.0000 0.00690  0.77200  0.81220  Biso   1.000  C
  H10      1.0000 0.98000  0.76120  0.82130  Biso   1.000  H
  C17      1.0000 0.08110  0.75700  0.82110  Biso   1.000  C
  H11      1.0000 0.10720  0.73610  0.83750  Biso   1.000  H
  C18      1.0000 0.08590  0.80500  0.78740  Biso   1.000  C
  H12      1.0000 0.11340  0.81100  0.77880  Biso   1.000  H
  N7       1.0000 0.73730  0.06400  0.56630  Biso   1.000  N
  N8       1.0000 0.71500  0.19500  0.53040  Biso   1.000  N
  N9       1.0000 0.67270  0.05600  0.51510  Biso   1.000  N
  N10      1.0000 0.85290  0.29100  0.62300  Biso   1.000  N
  N11      1.0000 0.58810  0.27500  0.42470  Biso   1.000  N
  N12      1.0000 0.71400  0.73700  0.56180  Biso   1.000  N
  C19      1.0000 0.74360  0.15100  0.56030  Biso   1.000  C
  C20      1.0000 0.68210  0.14600  0.51270  Biso   1.000  C
  C21      1.0000 0.70480  0.02200  0.54480  Biso   1.000  C
  C22      1.0000 0.78130  0.20000  0.58350  Biso   1.000  C
  C23      1.0000 0.80460  0.16500  0.61580  Biso   1.000  C
  H13      1.0000 0.79760  0.10650  0.62350  Biso   1.000  H
  C24      1.0000 0.83880  0.21100  0.63890  Biso   1.000  C
  H14      1.0000 0.85210  0.18930  0.66420  Biso   1.000  H
  C25      1.0000 0.82740  0.32100  0.58970  Biso   1.000  C
  H15      1.0000 0.83460  0.37660  0.57910  Biso   1.000  H
  C26      1.0000 0.79400  0.27800  0.57160  Biso   1.000  C
  H16      1.0000 0.77760  0.30380  0.54840  Biso   1.000  H
  C27      1.0000 0.65060  0.19100  0.48150  Biso   1.000  C
  C28      1.0000 0.65470  0.27900  0.47120  Biso   1.000  C
  H17      1.0000 0.67860  0.31280  0.48480  Biso   1.000  H
  C29      1.0000 0.62440  0.32000  0.44090  Biso   1.000  C
  H18      1.0000 0.62960  0.37870  0.43220  Biso   1.000  H
  C30      1.0000 0.58140  0.19000  0.43270  Biso   1.000  C
  H19      1.0000 0.55640  0.15990  0.41880  Biso   1.000  H
  C31      1.0000 0.61170  0.14300  0.46260  Biso   1.000  C
  H20      1.0000 0.60640  0.08240  0.46950  Biso   1.000  H
  C32      1.0000 0.70580  0.92200  0.55050  Biso   1.000  C
  C33      1.0000 0.67320  0.86700  0.53160  Biso   1.000  C
  H21      1.0000 0.64720  0.88860  0.51520  Biso   1.000  H
  C34      1.0000 0.68250  0.77700  0.53890  Biso   1.000  C
  H22      1.0000 0.66160  0.73700  0.52440  Biso   1.000  H
  C35      1.0000 0.73890  0.79100  0.58060  Biso   1.000  C
  H23      1.0000 0.76100  0.76590  0.60020  Biso   1.000  H
  C36      1.0000 0.74010  0.87900  0.57810  Biso   1.000  C
  H24      1.0000 0.76260  0.91310  0.59390  Biso   1.000  H
  I4       1.0000 0.93363  0.47800  0.62302  Biso   1.000  I
  Zn3      1.0000 0.40916  0.11670  0.67295  Biso   1.000  Zn
  I5       1.0000 0.45063  0.99760  0.64109  Biso   1.000  I
  I6       1.0000 0.37005  0.08420  0.73023  Biso   1.000  I
  N13      1.0000 0.58570  0.59420  0.71900  Biso   1.000  N
  N14      1.0000 0.56280  0.46500  0.68410  Biso   1.000  N
  N15      1.0000 0.52900  0.50500  0.73840  Biso   1.000  N
  N16      1.0000 0.67530  0.58300  0.60850  Biso   1.000  N
  N17      1.0000 0.45610  0.21800  0.68860  Biso   1.000  N
  N18      1.0000 0.55990  0.75000  0.84000  Biso   1.000  N
  C37      1.0000 0.58750  0.53300  0.68970  Biso   1.000  C
  C38      1.0000 0.53200  0.45500  0.70810  Biso   1.000  C
  C39      1.0000 0.56010  0.57600  0.74240  Biso   1.000  C
  C40      1.0000 0.61960  0.55500  0.66110  Biso   1.000  C
  C41      1.0000 0.64870  0.62500  0.66470  Biso   1.000  C
  H25      1.0000 0.64950  0.66720  0.68540  Biso   1.000  H
  C42      1.0000 0.67570  0.63200  0.63900  Biso   1.000  C
  H26      1.0000 0.69750  0.67750  0.64370  Biso   1.000  H
  C43      1.0000 0.63860  0.52100  0.60050  Biso   1.000  C
  H27      1.0000 0.63110  0.49520  0.57500  Biso   1.000  H
  C44      1.0000 0.61460  0.50000  0.62950  Biso   1.000  C
  H28      1.0000 0.59560  0.44920  0.62730  Biso   1.000  H
  C45      1.0000 0.50540  0.37000  0.70280  Biso   1.000  C
  C46      1.0000 0.50680  0.31600  0.66830  Biso   1.000  C
  H29      1.0000 0.52440  0.33160  0.64920  Biso   1.000  H
  C47      1.0000 0.48060  0.24000  0.66500  Biso   1.000  C
  H30      1.0000 0.48150  0.20180  0.64310  Biso   1.000  H
  C48      1.0000 0.45050  0.26900  0.72050  Biso   1.000  C
  H31      1.0000 0.43030  0.25190  0.73720  Biso   1.000  H
  C49      1.0000 0.47690  0.34800  0.72760  Biso   1.000  C
  H32      1.0000 0.47450  0.38620  0.74940  Biso   1.000  H
  C50      1.0000 0.55640  0.63700  0.77510  Biso   1.000  C
  C51      1.0000 0.51790  0.64700  0.79370  Biso   1.000  C
  H33      1.0000 0.49210  0.61240  0.78530  Biso   1.000  H
  C52      1.0000 0.52050  0.70800  0.82400  Biso   1.000  C
  H34      1.0000 0.49460  0.72150  0.83440  Biso   1.000  H
  C53      1.0000 0.59390  0.73300  0.82430  Biso   1.000  C
  H35      1.0000 0.62090  0.75830  0.83710  Biso   1.000  H
  C54      1.0000 0.59540  0.68200  0.79070  Biso   1.000  C
  H36      1.0000 0.62120  0.67840  0.77900  Biso   1.000  H
  N19      1.0000 0.26110  0.42200  0.57350  Biso   1.000  N
  N20      1.0000 0.23590  0.29500  0.53510  Biso   1.000  N
  N21      1.0000 0.19910  0.43500  0.52270  Biso   1.000  N
  N22      1.0000 0.36690  0.18400  0.63060  Biso   1.000  N
  N23      1.0000 0.10960  0.22000  0.42810  Biso   1.000  N
  N24      1.0000 0.23640  0.74800  0.57200  Biso   1.000  N
  C55      1.0000 0.26030  0.33800  0.56220  Biso   1.000  C
  C56      1.0000 0.20250  0.34800  0.51460  Biso   1.000  C
  C57      1.0000 0.22900  0.46600  0.54980  Biso   1.000  C
  C58      1.0000 0.29930  0.28300  0.58560  Biso   1.000  C
  C59      1.0000 0.32280  0.31800  0.61520  Biso   1.000  C
  H37      1.0000 0.31580  0.37750  0.62210  Biso   1.000  H
  C60      1.0000 0.36010  0.27400  0.63960  Biso   1.000  C
  H38      1.0000 0.37870  0.30410  0.66030  Biso   1.000  H
  C61      1.0000 0.33720  0.15400  0.60040  Biso   1.000  C
  H39      1.0000 0.34070  0.09310  0.59400  Biso   1.000  H
  C62      1.0000 0.30510  0.19300  0.57870  Biso   1.000  C
  H40      1.0000 0.28600  0.16160  0.55870  Biso   1.000  H
  C63      1.0000 0.16990  0.30200  0.48620  Biso   1.000  C
  C64      1.0000 0.17390  0.20900  0.47440  Biso   1.000  C
  H41      1.0000 0.19890  0.17500  0.48570  Biso   1.000  H
  C65      1.0000 0.14350  0.17400  0.44840  Biso   1.000  C
  H42      1.0000 0.14520  0.11110  0.44330  Biso   1.000  H
  C66      1.0000 0.10400  0.30500  0.43770  Biso   1.000  C
  H43      1.0000 0.07810  0.33540  0.42580  Biso   1.000  H
  C67      1.0000 0.13360  0.34800  0.46360  Biso   1.000  C
  H44      1.0000 0.13060  0.41110  0.46700  Biso   1.000  H
  C68      1.0000 0.23120  0.56800  0.55680  Biso   1.000  C
  C69      1.0000 0.19920  0.62700  0.53500  Biso   1.000  C
  H45      1.0000 0.17520  0.60500  0.51630  Biso   1.000  H
  C70      1.0000 0.20480  0.71800  0.54240  Biso   1.000  C
  H46      1.0000 0.18630  0.76040  0.52660  Biso   1.000  H
  C71      1.0000 0.26270  0.68900  0.59520  Biso   1.000  C
  H47      1.0000 0.28330  0.70980  0.61710  Biso   1.000  H
  C72      1.0000 0.25910  0.60400  0.58700  Biso   1.000  C
  H48      1.0000 0.27780  0.56350  0.60370  Biso   1.000  H
  Zn4      1.0000 0.53920  0.33170  0.38420  Biso   1.000  Zn
  Zn5      1.0000 0.72660  0.60470  0.58010  Biso   1.000  Zn
  I7       1.0000 0.56680  0.49030  0.37380  Biso   1.000  I
  I8       1.0000 0.46530  0.31210  0.40520  Biso   1.000  I
  I9       1.0000 0.70070  0.51310  0.51910  Biso   1.000  I
  I10      1.0000 0.80300  0.58480  0.62220  Biso   1.000  I
  I11      1.0000 0.49421  0.86840  0.90943  Biso   1.000  I
  Zn6      1.0000 0.56550  0.84220  0.88415  Biso   1.000  Zn
  I12      1.0000 0.60644  0.97550  0.85930  Biso   1.000  I
  I13      1.0000 0.54600  0.89990  0.44304  Biso   1.000  I
  I14      1.0000 0.53760  0.80720  0.50968  Biso   1.000  I
  Zn7      1.0000 0.21310  0.88400  0.57690  Biso   1.000  Zn
  I15      1.0000 0.28810  0.91200  0.62040  Biso   1.000  I
  I16      1.0000 0.19280  0.97000  0.51280  Biso   1.000  I
  Zn8      1.0000 0.55590  0.35070  0.37590  Biso   1.000  Zn
  I17      1.0000 0.51860  0.63900  0.60380  Biso   1.000  I
  Zn9      1.0000 0.70190  0.59960  0.55570  Biso   1.000  Zn
  I18      1.0000 0.66230  0.53640  0.49100  Biso   1.000  I
  I19      1.0000 0.77950  0.54640  0.58550  Biso   1.000  I
  Zn10     1.0000 0.54290  0.83400  0.88700  Biso   1.000  Zn
  I20      1.0000 0.74430  0.40400  0.64210  Biso   1.000  I
  I21      1.0000 0.71650  0.28780  0.69330  Biso   1.000  I
  I22      1.0000 0.68560  0.26110  0.64010  Biso   1.000  I
  I23      1.0000 0.76170  0.32800  0.68160  Biso   1.000  I
  I24      1.0000 0.50810  0.99480  0.47680  Biso   1.000  I
  I25      1.0000 0.54880  0.83800  0.46610  Biso   1.000  I
  I26      1.0000 0.57940  0.56800  0.44390  Biso   1.000  I
  I27      1.0000 0.56100  0.59360  0.51760  Biso   1.000  I
  I28      1.0000 0.58100  0.59300  0.43860  Biso   1.000  I
  I29      1.0000 0.54060  0.50800  0.49250  Biso   1.000  I
  I30      1.0000 0.60020  0.86900  0.61660  Biso   1.000  I
  I31      1.0000 0.66190  0.99700  0.63900  Biso   1.000  I
  I32      1.0000 0.55210  0.82330  0.59720  Biso   1.000  I
  I33      1.0000 0.57850  0.99590  0.59150  Biso   1.000  I
  I34      1.0000 0.56140  0.24800  0.55920  Biso   1.000  I
  I35      1.0000 0.63480  0.24380  0.61570  Biso   1.000  I
  I36      1.0000 0.58690  0.19700  0.57380  Biso   1.000  I
  I37      1.0000 0.56980  0.36420  0.54410  Biso   1.000  I
  I38      1.0000 0.46790  0.85000  0.90590  Biso   1.000  I
  I39      1.0000 0.43010  0.70270  0.89830  Biso   1.000  I
  I40      1.0000 0.36290  0.58360  0.88080  Biso   1.000  I
  I41      1.0000 0.43480  0.67070  0.91290  Biso   1.000  I
  I42      1.0000 0.38920  0.51540  0.91500  Biso   1.000  I
  I43      1.0000 0.59400  0.49160  0.35600  Biso   1.000  I
  I44      1.0000 0.61940  0.40310  0.21620  Biso   1.000  I
  I45      1.0000 0.59850  0.45160  0.28670  Biso   1.000  I
  I46      1.0000 0.58110  0.97500  0.86460  Biso   1.000  I
  Zn11     1.0000 0.25969  0.88320  0.91519  Biso   1.000  Zn
  I47      1.0000 0.18504  0.90310  0.86996  Biso   1.000  I
  I48      1.0000 0.27883  0.98100  0.97593  Biso   1.000  I
  Zn12     1.0000 0.59867  0.35530  0.83949  Biso   1.000  Zn
  I49      1.0000 0.63314  0.39100  0.77912  Biso   1.000  I
  N25      1.0000 0.41560  0.88530  0.78740  Biso   1.000  N
  N26      1.0000 0.43830  0.01400  0.82640  Biso   1.000  N
  N27      1.0000 0.47840  0.96700  0.77480  Biso   1.000  N
  N28      1.0000 0.31050  0.89900  0.88320  Biso   1.000  N
  N29      1.0000 0.55270  0.25100  0.82510  Biso   1.000  N
  N30      1.0000 0.45500  0.73800  0.66850  Biso   1.000  N
  C73      1.0000 0.41320  0.94200  0.81770  Biso   1.000  C
  C74      1.0000 0.47120  0.02200  0.80320  Biso   1.000  C
  C75      1.0000 0.44770  0.90100  0.76760  Biso   1.000  C
  C76      1.0000 0.37710  0.92600  0.84090  Biso   1.000  C
  C77      1.0000 0.35370  0.85200  0.83870  Biso   1.000  C
  H49      1.0000 0.36090  0.80440  0.82250  Biso   1.000  H
  C78      1.0000 0.31990  0.84100  0.85840  Biso   1.000  C
  H50      1.0000 0.30230  0.78850  0.85380  Biso   1.000  H
  C79      1.0000 0.33500  0.97200  0.88950  Biso   1.000  C
  H51      1.0000 0.33020  0.01210  0.90980  Biso   1.000  H
  C80      1.0000 0.36890  0.99200  0.86650  Biso   1.000  C
  H52      1.0000 0.38440  0.04770  0.86900  Biso   1.000  H
  C81      1.0000 0.49910  0.10200  0.81180  Biso   1.000  C
  C82      1.0000 0.50090  0.15200  0.84630  Biso   1.000  C
  H53      1.0000 0.48280  0.13610  0.86500  Biso   1.000  H
  C83      1.0000 0.52760  0.22200  0.85320  Biso   1.000  C
  H54      1.0000 0.52980  0.25370  0.87760  Biso   1.000  H
  C84      1.0000 0.55310  0.20500  0.79190  Biso   1.000  C
  H55      1.0000 0.57010  0.22390  0.77280  Biso   1.000  H
  C85      1.0000 0.52670  0.12600  0.78630  Biso   1.000  C
  H56      1.0000 0.52830  0.08880  0.76410  Biso   1.000  H
  C86      1.0000 0.45140  0.84300  0.73210  Biso   1.000  C
  C87      1.0000 0.49240  0.82400  0.72120  Biso   1.000  C
  H57      1.0000 0.51890  0.84660  0.73630  Biso   1.000  H
  C88      1.0000 0.49310  0.77200  0.68780  Biso   1.000  C
  H58      1.0000 0.52000  0.76120  0.67870  Biso   1.000  H
  C89      1.0000 0.41890  0.75700  0.67890  Biso   1.000  C
  H59      1.0000 0.39280  0.73610  0.66250  Biso   1.000  H
  C90      1.0000 0.41410  0.80500  0.71260  Biso   1.000  C
  H60      1.0000 0.38660  0.81100  0.72120  Biso   1.000  H
  N31      1.0000 0.76270  0.06400  0.93370  Biso   1.000  N
  N32      1.0000 0.78500  0.19500  0.96960  Biso   1.000  N
  N33      1.0000 0.82730  0.05600  0.98490  Biso   1.000  N
  N34      1.0000 0.64710  0.29100  0.87700  Biso   1.000  N
  N35      1.0000 0.91190  0.27500  0.07530  Biso   1.000  N
  N36      1.0000 0.78600  0.73700  0.93820  Biso   1.000  N
  C91      1.0000 0.75640  0.15100  0.93970  Biso   1.000  C
  C92      1.0000 0.81790  0.14600  0.98730  Biso   1.000  C
  C93      1.0000 0.79520  0.02200  0.95520  Biso   1.000  C
  C94      1.0000 0.71870  0.20000  0.91650  Biso   1.000  C
  C95      1.0000 0.69540  0.16500  0.88420  Biso   1.000  C
  H61      1.0000 0.70240  0.10650  0.87650  Biso   1.000  H
  C96      1.0000 0.66120  0.21100  0.86110  Biso   1.000  C
  H62      1.0000 0.64790  0.18930  0.83580  Biso   1.000  H
  C97      1.0000 0.67260  0.32100  0.91030  Biso   1.000  C
  H63      1.0000 0.66540  0.37660  0.92090  Biso   1.000  H
  C98      1.0000 0.70600  0.27800  0.92840  Biso   1.000  C
  H64      1.0000 0.72240  0.30380  0.95160  Biso   1.000  H
  C99      1.0000 0.84940  0.19100  0.01850  Biso   1.000  C
  C100     1.0000 0.84530  0.27900  0.02880  Biso   1.000  C
  H65      1.0000 0.82140  0.31280  0.01520  Biso   1.000  H
  C101     1.0000 0.87560  0.32000  0.05910  Biso   1.000  C
  H66      1.0000 0.87040  0.37870  0.06780  Biso   1.000  H
  C102     1.0000 0.91860  0.19000  0.06730  Biso   1.000  C
  H67      1.0000 0.94360  0.15990  0.08120  Biso   1.000  H
  C103     1.0000 0.88830  0.14300  0.03740  Biso   1.000  C
  H68      1.0000 0.89360  0.08240  0.03050  Biso   1.000  H
  C104     1.0000 0.79420  0.92200  0.94950  Biso   1.000  C
  C105     1.0000 0.82680  0.86700  0.96840  Biso   1.000  C
  H69      1.0000 0.85280  0.88860  0.98480  Biso   1.000  H
  C106     1.0000 0.81750  0.77700  0.96110  Biso   1.000  C
  H70      1.0000 0.83840  0.73700  0.97560  Biso   1.000  H
  C107     1.0000 0.76110  0.79100  0.91940  Biso   1.000  C
  H71      1.0000 0.73900  0.76590  0.89980  Biso   1.000  H
  C108     1.0000 0.75990  0.87900  0.92190  Biso   1.000  C
  H72      1.0000 0.73740  0.91310  0.90610  Biso   1.000  H
  I50      1.0000 0.56637  0.47800  0.87698  Biso   1.000  I
  Zn13     1.0000 0.09084  0.11670  0.82705  Biso   1.000  Zn
  I51      1.0000 0.04937  0.99760  0.85891  Biso   1.000  I
  I52      1.0000 0.12995  0.08420  0.76977  Biso   1.000  I
  N37      1.0000 0.91430  0.59420  0.78100  Biso   1.000  N
  N38      1.0000 0.93720  0.46500  0.81590  Biso   1.000  N
  N39      1.0000 0.97100  0.50500  0.76160  Biso   1.000  N
  N40      1.0000 0.82470  0.58300  0.89150  Biso   1.000  N
  N41      1.0000 0.04390  0.21800  0.81140  Biso   1.000  N
  N42      1.0000 0.94010  0.75000  0.66000  Biso   1.000  N
  C109     1.0000 0.91250  0.53300  0.81030  Biso   1.000  C
  C110     1.0000 0.96800  0.45500  0.79190  Biso   1.000  C
  C111     1.0000 0.93990  0.57600  0.75760  Biso   1.000  C
  C112     1.0000 0.88040  0.55500  0.83890  Biso   1.000  C
  C113     1.0000 0.85130  0.62500  0.83530  Biso   1.000  C
  H73      1.0000 0.85050  0.66720  0.81460  Biso   1.000  H
  C114     1.0000 0.82430  0.63200  0.86100  Biso   1.000  C
  H74      1.0000 0.80250  0.67750  0.85630  Biso   1.000  H
  C115     1.0000 0.86140  0.52100  0.89950  Biso   1.000  C
  H75      1.0000 0.86890  0.49520  0.92500  Biso   1.000  H
  C116     1.0000 0.88540  0.50000  0.87050  Biso   1.000  C
  H76      1.0000 0.90440  0.44920  0.87270  Biso   1.000  H
  C117     1.0000 0.99460  0.37000  0.79720  Biso   1.000  C
  C118     1.0000 0.99320  0.31600  0.83170  Biso   1.000  C
  H77      1.0000 0.97560  0.33160  0.85080  Biso   1.000  H
  C119     1.0000 0.01940  0.24000  0.83500  Biso   1.000  C
  H78      1.0000 0.01850  0.20180  0.85690  Biso   1.000  H
  C120     1.0000 0.04950  0.26900  0.77950  Biso   1.000  C
  H79      1.0000 0.06970  0.25190  0.76280  Biso   1.000  H
  C121     1.0000 0.02310  0.34800  0.77240  Biso   1.000  C
  H80      1.0000 0.02550  0.38620  0.75060  Biso   1.000  H
  C122     1.0000 0.94360  0.63700  0.72490  Biso   1.000  C
  C123     1.0000 0.98210  0.64700  0.70630  Biso   1.000  C
  H81      1.0000 0.00790  0.61240  0.71470  Biso   1.000  H
  C124     1.0000 0.97950  0.70800  0.67600  Biso   1.000  C
  H82      1.0000 0.00540  0.72150  0.66560  Biso   1.000  H
  C125     1.0000 0.90610  0.73300  0.67570  Biso   1.000  C
  H83      1.0000 0.87910  0.75830  0.66290  Biso   1.000  H
  C126     1.0000 0.90460  0.68200  0.70930  Biso   1.000  C
  H84      1.0000 0.87880  0.67840  0.72100  Biso   1.000  H
  N43      1.0000 0.23890  0.42200  0.92650  Biso   1.000  N
  N44      1.0000 0.26410  0.29500  0.96490  Biso   1.000  N
  N45      1.0000 0.30090  0.43500  0.97730  Biso   1.000  N
  N46      1.0000 0.13310  0.18400  0.86940  Biso   1.000  N
  N47      1.0000 0.39040  0.22000  0.07190  Biso   1.000  N
  N48      1.0000 0.26360  0.74800  0.92800  Biso   1.000  N
  C127     1.0000 0.23970  0.33800  0.93780  Biso   1.000  C
  C128     1.0000 0.29750  0.34800  0.98540  Biso   1.000  C
  C129     1.0000 0.27100  0.46600  0.95020  Biso   1.000  C
  C130     1.0000 0.20070  0.28300  0.91440  Biso   1.000  C
  C131     1.0000 0.17720  0.31800  0.88480  Biso   1.000  C
  H85      1.0000 0.18420  0.37750  0.87790  Biso   1.000  H
  C132     1.0000 0.13990  0.27400  0.86040  Biso   1.000  C
  H86      1.0000 0.12130  0.30410  0.83970  Biso   1.000  H
  C133     1.0000 0.16280  0.15400  0.89960  Biso   1.000  C
  H87      1.0000 0.15930  0.09310  0.90600  Biso   1.000  H
  C134     1.0000 0.19490  0.19300  0.92130  Biso   1.000  C
  H88      1.0000 0.21400  0.16160  0.94130  Biso   1.000  H
  C135     1.0000 0.33010  0.30200  0.01380  Biso   1.000  C
  C136     1.0000 0.32610  0.20900  0.02560  Biso   1.000  C
  H89      1.0000 0.30110  0.17500  0.01430  Biso   1.000  H
  C137     1.0000 0.35650  0.17400  0.05160  Biso   1.000  C
  H90      1.0000 0.35480  0.11110  0.05670  Biso   1.000  H
  C138     1.0000 0.39600  0.30500  0.06230  Biso   1.000  C
  H91      1.0000 0.42190  0.33540  0.07420  Biso   1.000  H
  C139     1.0000 0.36640  0.34800  0.03640  Biso   1.000  C
  H92      1.0000 0.36940  0.41110  0.03300  Biso   1.000  H
  C140     1.0000 0.26880  0.56800  0.94320  Biso   1.000  C
  C141     1.0000 0.30080  0.62700  0.96500  Biso   1.000  C
  H93      1.0000 0.32480  0.60500  0.98370  Biso   1.000  H
  C142     1.0000 0.29520  0.71800  0.95760  Biso   1.000  C
  H94      1.0000 0.31370  0.76040  0.97340  Biso   1.000  H
  C143     1.0000 0.23730  0.68900  0.90480  Biso   1.000  C
  H95      1.0000 0.21670  0.70980  0.88290  Biso   1.000  H
  C144     1.0000 0.24090  0.60400  0.91300  Biso   1.000  C
  H96      1.0000 0.22220  0.56350  0.89630  Biso   1.000  H
  Zn14     1.0000 0.96080  0.33170  0.11580  Biso   1.000  Zn
  Zn15     1.0000 0.77340  0.60470  0.91990  Biso   1.000  Zn
  I53      1.0000 0.93320  0.49030  0.12620  Biso   1.000  I
  I54      1.0000 0.03470  0.31210  0.09480  Biso   1.000  I
  I55      1.0000 0.79930  0.51310  0.98090  Biso   1.000  I
  I56      1.0000 0.69700  0.58480  0.87780  Biso   1.000  I
  I57      1.0000 0.00579  0.86840  0.59057  Biso   1.000  I
  Zn16     1.0000 0.93450  0.84220  0.61585  Biso   1.000  Zn
  I58      1.0000 0.89356  0.97550  0.64070  Biso   1.000  I
  I59      1.0000 0.95400  0.89990  0.05696  Biso   1.000  I
  I60      1.0000 0.96240  0.80720  0.99032  Biso   1.000  I
  Zn17     1.0000 0.28690  0.88400  0.92310  Biso   1.000  Zn
  I61      1.0000 0.21190  0.91200  0.87960  Biso   1.000  I
  I62      1.0000 0.30720  0.97000  0.98720  Biso   1.000  I
  Zn18     1.0000 0.94410  0.35070  0.12410  Biso   1.000  Zn
  I63      1.0000 0.98140  0.63900  0.89620  Biso   1.000  I
  Zn19     1.0000 0.79810  0.59960  0.94430  Biso   1.000  Zn
  I64      1.0000 0.83770  0.53640  0.00900  Biso   1.000  I
  I65      1.0000 0.72050  0.54640  0.91450  Biso   1.000  I
  Zn20     1.0000 0.95710  0.83400  0.61300  Biso   1.000  Zn
  I66      1.0000 0.75570  0.40400  0.85790  Biso   1.000  I
  I67      1.0000 0.78350  0.28780  0.80670  Biso   1.000  I
  I68      1.0000 0.81440  0.26110  0.85990  Biso   1.000  I
  I69      1.0000 0.73830  0.32800  0.81840  Biso   1.000  I
  I70      1.0000 0.99190  0.99480  0.02320  Biso   1.000  I
  I71      1.0000 0.95120  0.83800  0.03390  Biso   1.000  I
  I72      1.0000 0.92060  0.56800  0.05610  Biso   1.000  I
  I73      1.0000 0.93900  0.59360  0.98240  Biso   1.000  I
  I74      1.0000 0.91900  0.59300  0.06140  Biso   1.000  I
  I75      1.0000 0.95940  0.50800  0.00750  Biso   1.000  I
  I76      1.0000 0.89980  0.86900  0.88340  Biso   1.000  I
  I77      1.0000 0.83810  0.99700  0.86100  Biso   1.000  I
  I78      1.0000 0.94790  0.82330  0.90280  Biso   1.000  I
  I79      1.0000 0.92150  0.99590  0.90850  Biso   1.000  I
  I80      1.0000 0.93860  0.24800  0.94080  Biso   1.000  I
  I81      1.0000 0.86520  0.24380  0.88430  Biso   1.000  I
  I82      1.0000 0.91310  0.19700  0.92620  Biso   1.000  I
  I83      1.0000 0.93020  0.36420  0.95590  Biso   1.000  I
  I84      1.0000 0.03210  0.85000  0.59410  Biso   1.000  I
  I85      1.0000 0.06990  0.70270  0.60170  Biso   1.000  I
  I86      1.0000 0.13710  0.58360  0.61920  Biso   1.000  I
  I87      1.0000 0.06520  0.67070  0.58710  Biso   1.000  I
  I88      1.0000 0.11080  0.51540  0.58500  Biso   1.000  I
  I89      1.0000 0.90600  0.49160  0.14400  Biso   1.000  I
  I90      1.0000 0.88060  0.40310  0.28380  Biso   1.000  I
  I91      1.0000 0.90150  0.45160  0.21330  Biso   1.000  I
  I92      1.0000 0.91890  0.97500  0.63540  Biso   1.000  I
  Zn21     1.0000 0.75969  0.11680  0.41519  Biso   1.000  Zn
  I93      1.0000 0.68504  0.09690  0.36996  Biso   1.000  I
  I94      1.0000 0.77883  0.01900  0.47593  Biso   1.000  I
  Zn22     1.0000 0.09867  0.64470  0.33949  Biso   1.000  Zn
  I95      1.0000 0.13314  0.60900  0.27912  Biso   1.000  I
  N49      1.0000 0.91560  0.11470  0.28740  Biso   1.000  N
  N50      1.0000 0.93830  0.98600  0.32640  Biso   1.000  N
  N51      1.0000 0.97840  0.03300  0.27480  Biso   1.000  N
  N52      1.0000 0.81050  0.10100  0.38320  Biso   1.000  N
  N53      1.0000 0.05270  0.74900  0.32510  Biso   1.000  N
  N54      1.0000 0.95500  0.26200  0.16850  Biso   1.000  N
  C145     1.0000 0.91320  0.05800  0.31770  Biso   1.000  C
  C146     1.0000 0.97120  0.97800  0.30320  Biso   1.000  C
  C147     1.0000 0.94770  0.09900  0.26760  Biso   1.000  C
  C148     1.0000 0.87710  0.07400  0.34090  Biso   1.000  C
  C149     1.0000 0.85370  0.14800  0.33870  Biso   1.000  C
  H97      1.0000 0.86090  0.19560  0.32250  Biso   1.000  H
  C150     1.0000 0.81990  0.15900  0.35840  Biso   1.000  C
  H98      1.0000 0.80230  0.21150  0.35380  Biso   1.000  H
  C151     1.0000 0.83500  0.02800  0.38950  Biso   1.000  C
  H99      1.0000 0.83020  0.98790  0.40980  Biso   1.000  H
  C152     1.0000 0.86890  0.00800  0.36650  Biso   1.000  C
  H100     1.0000 0.88440  0.95230  0.36900  Biso   1.000  H
  C153     1.0000 0.99910  0.89800  0.31180  Biso   1.000  C
  C154     1.0000 0.00090  0.84800  0.34630  Biso   1.000  C
  H101     1.0000 0.98280  0.86390  0.36500  Biso   1.000  H
  C155     1.0000 0.02760  0.77800  0.35320  Biso   1.000  C
  H102     1.0000 0.02980  0.74630  0.37760  Biso   1.000  H
  C156     1.0000 0.05310  0.79500  0.29190  Biso   1.000  C
  H103     1.0000 0.07010  0.77610  0.27280  Biso   1.000  H
  C157     1.0000 0.02670  0.87400  0.28630  Biso   1.000  C
  H104     1.0000 0.02830  0.91120  0.26410  Biso   1.000  H
  C158     1.0000 0.95140  0.15700  0.23210  Biso   1.000  C
  C159     1.0000 0.99240  0.17600  0.22120  Biso   1.000  C
  H105     1.0000 0.01890  0.15340  0.23630  Biso   1.000  H
  C160     1.0000 0.99310  0.22800  0.18780  Biso   1.000  C
  H106     1.0000 0.02000  0.23880  0.17870  Biso   1.000  H
  C161     1.0000 0.91890  0.24300  0.17890  Biso   1.000  C
  H107     1.0000 0.89280  0.26390  0.16250  Biso   1.000  H
  C162     1.0000 0.91410  0.19500  0.21260  Biso   1.000  C
  H108     1.0000 0.88660  0.18900  0.22120  Biso   1.000  H
  N55      1.0000 0.26270  0.93600  0.43370  Biso   1.000  N
  N56      1.0000 0.28500  0.80500  0.46960  Biso   1.000  N
  N57      1.0000 0.32730  0.94400  0.48490  Biso   1.000  N
  N58      1.0000 0.14710  0.70900  0.37700  Biso   1.000  N
  N59      1.0000 0.41190  0.72500  0.57530  Biso   1.000  N
  N60      1.0000 0.28600  0.26300  0.43820  Biso   1.000  N
  C163     1.0000 0.25640  0.84900  0.43970  Biso   1.000  C
  C164     1.0000 0.31790  0.85400  0.48730  Biso   1.000  C
  C165     1.0000 0.29520  0.97800  0.45520  Biso   1.000  C
  C166     1.0000 0.21870  0.80000  0.41650  Biso   1.000  C
  C167     1.0000 0.19540  0.83500  0.38420  Biso   1.000  C
  H109     1.0000 0.20240  0.89350  0.37650  Biso   1.000  H
  C168     1.0000 0.16120  0.78900  0.36110  Biso   1.000  C
  H110     1.0000 0.14790  0.81070  0.33580  Biso   1.000  H
  C169     1.0000 0.17260  0.67900  0.41030  Biso   1.000  C
  H111     1.0000 0.16540  0.62340  0.42090  Biso   1.000  H
  C170     1.0000 0.20600  0.72200  0.42840  Biso   1.000  C
  H112     1.0000 0.22240  0.69620  0.45160  Biso   1.000  H
  C171     1.0000 0.34940  0.80900  0.51850  Biso   1.000  C
  C172     1.0000 0.34530  0.72100  0.52880  Biso   1.000  C
  H113     1.0000 0.32140  0.68720  0.51520  Biso   1.000  H
  C173     1.0000 0.37560  0.68000  0.55910  Biso   1.000  C
  H114     1.0000 0.37040  0.62130  0.56780  Biso   1.000  H
  C174     1.0000 0.41860  0.81000  0.56730  Biso   1.000  C
  H115     1.0000 0.44360  0.84010  0.58120  Biso   1.000  H
  C175     1.0000 0.38830  0.85700  0.53740  Biso   1.000  C
  H116     1.0000 0.39360  0.91760  0.53050  Biso   1.000  H
  C176     1.0000 0.29420  0.07800  0.44950  Biso   1.000  C
  C177     1.0000 0.32680  0.13300  0.46840  Biso   1.000  C
  H117     1.0000 0.35280  0.11140  0.48480  Biso   1.000  H
  C178     1.0000 0.31750  0.22300  0.46110  Biso   1.000  C
  H118     1.0000 0.33840  0.26300  0.47560  Biso   1.000  H
  C179     1.0000 0.26110  0.20900  0.41940  Biso   1.000  C
  H119     1.0000 0.23900  0.23410  0.39980  Biso   1.000  H
  C180     1.0000 0.25990  0.12100  0.42190  Biso   1.000  C
  H120     1.0000 0.23740  0.08690  0.40610  Biso   1.000  H
  I96      1.0000 0.06637  0.52200  0.37698  Biso   1.000  I
  Zn23     1.0000 0.59084  0.88330  0.32705  Biso   1.000  Zn
  I97      1.0000 0.54937  0.00240  0.35891  Biso   1.000  I
  I98      1.0000 0.62995  0.91580  0.26977  Biso   1.000  I
  N61      1.0000 0.41430  0.40580  0.28100  Biso   1.000  N
  N62      1.0000 0.43720  0.53500  0.31590  Biso   1.000  N
  N63      1.0000 0.47100  0.49500  0.26160  Biso   1.000  N
  N64      1.0000 0.32470  0.41700  0.39150  Biso   1.000  N
  N65      1.0000 0.54390  0.78200  0.31140  Biso   1.000  N
  N66      1.0000 0.44010  0.25000  0.16000  Biso   1.000  N
  C181     1.0000 0.41250  0.46700  0.31030  Biso   1.000  C
  C182     1.0000 0.46800  0.54500  0.29190  Biso   1.000  C
  C183     1.0000 0.43990  0.42400  0.25760  Biso   1.000  C
  C184     1.0000 0.38040  0.44500  0.33890  Biso   1.000  C
  C185     1.0000 0.35130  0.37500  0.33530  Biso   1.000  C
  H121     1.0000 0.35050  0.33280  0.31460  Biso   1.000  H
  C186     1.0000 0.32430  0.36800  0.36100  Biso   1.000  C
  H122     1.0000 0.30250  0.32250  0.35630  Biso   1.000  H
  C187     1.0000 0.36140  0.47900  0.39950  Biso   1.000  C
  H123     1.0000 0.36890  0.50480  0.42500  Biso   1.000  H
  C188     1.0000 0.38540  0.50000  0.37050  Biso   1.000  C
  H124     1.0000 0.40440  0.55080  0.37270  Biso   1.000  H
  C189     1.0000 0.49460  0.63000  0.29720  Biso   1.000  C
  C190     1.0000 0.49320  0.68400  0.33170  Biso   1.000  C
  H125     1.0000 0.47560  0.66840  0.35080  Biso   1.000  H
  C191     1.0000 0.51940  0.76000  0.33500  Biso   1.000  C
  H126     1.0000 0.51850  0.79820  0.35690  Biso   1.000  H
  C192     1.0000 0.54950  0.73100  0.27950  Biso   1.000  C
  H127     1.0000 0.56970  0.74810  0.26280  Biso   1.000  H
  C193     1.0000 0.52310  0.65200  0.27240  Biso   1.000  C
  H128     1.0000 0.52550  0.61380  0.25060  Biso   1.000  H
  C194     1.0000 0.44360  0.36300  0.22490  Biso   1.000  C
  C195     1.0000 0.48210  0.35300  0.20630  Biso   1.000  C
  H129     1.0000 0.50790  0.38760  0.21470  Biso   1.000  H
  C196     1.0000 0.47950  0.29200  0.17600  Biso   1.000  C
  H130     1.0000 0.50540  0.27850  0.16560  Biso   1.000  H
  C197     1.0000 0.40610  0.26700  0.17570  Biso   1.000  C
  H131     1.0000 0.37910  0.24170  0.16290  Biso   1.000  H
  C198     1.0000 0.40460  0.31800  0.20930  Biso   1.000  C
  H132     1.0000 0.37880  0.32160  0.22100  Biso   1.000  H
  N67      1.0000 0.73890  0.57800  0.42650  Biso   1.000  N
  N68      1.0000 0.76410  0.70500  0.46490  Biso   1.000  N
  N69      1.0000 0.80090  0.56500  0.47730  Biso   1.000  N
  N70      1.0000 0.63310  0.81600  0.36940  Biso   1.000  N
  N71      1.0000 0.89040  0.78000  0.57190  Biso   1.000  N
  N72      1.0000 0.76360  0.25200  0.42800  Biso   1.000  N
  C199     1.0000 0.73970  0.66200  0.43780  Biso   1.000  C
  C200     1.0000 0.79750  0.65200  0.48540  Biso   1.000  C
  C201     1.0000 0.77100  0.53400  0.45020  Biso   1.000  C
  C202     1.0000 0.70070  0.71700  0.41440  Biso   1.000  C
  C203     1.0000 0.67720  0.68200  0.38480  Biso   1.000  C
  H133     1.0000 0.68420  0.62250  0.37790  Biso   1.000  H
  C204     1.0000 0.63990  0.72600  0.36040  Biso   1.000  C
  H134     1.0000 0.62130  0.69590  0.33970  Biso   1.000  H
  C205     1.0000 0.66280  0.84600  0.39960  Biso   1.000  C
  H135     1.0000 0.65930  0.90690  0.40600  Biso   1.000  H
  C206     1.0000 0.69490  0.80700  0.42130  Biso   1.000  C
  H136     1.0000 0.71400  0.83840  0.44130  Biso   1.000  H
  C207     1.0000 0.83010  0.69800  0.51380  Biso   1.000  C
  C208     1.0000 0.82610  0.79100  0.52560  Biso   1.000  C
  H137     1.0000 0.80110  0.82500  0.51430  Biso   1.000  H
  C209     1.0000 0.85650  0.82600  0.55160  Biso   1.000  C
  H138     1.0000 0.85480  0.88890  0.55670  Biso   1.000  H
  C210     1.0000 0.89600  0.69500  0.56230  Biso   1.000  C
  H139     1.0000 0.92190  0.66460  0.57420  Biso   1.000  H
  C211     1.0000 0.86640  0.65200  0.53640  Biso   1.000  C
  H140     1.0000 0.86940  0.58890  0.53300  Biso   1.000  H
  C212     1.0000 0.76880  0.43200  0.44320  Biso   1.000  C
  C213     1.0000 0.80080  0.37300  0.46500  Biso   1.000  C
  H141     1.0000 0.82480  0.39500  0.48370  Biso   1.000  H
  C214     1.0000 0.79520  0.28200  0.45760  Biso   1.000  C
  H142     1.0000 0.81370  0.23960  0.47340  Biso   1.000  H
  C215     1.0000 0.73730  0.31100  0.40480  Biso   1.000  C
  H143     1.0000 0.71670  0.29020  0.38290  Biso   1.000  H
  C216     1.0000 0.74090  0.39600  0.41300  Biso   1.000  C
  H144     1.0000 0.72220  0.43650  0.39630  Biso   1.000  H
  Zn24     1.0000 0.46080  0.66830  0.61580  Biso   1.000  Zn
  Zn25     1.0000 0.27340  0.39530  0.41990  Biso   1.000  Zn
  I99      1.0000 0.43320  0.50970  0.62620  Biso   1.000  I
  I100     1.0000 0.53470  0.68790  0.59480  Biso   1.000  I
  I101     1.0000 0.29930  0.48690  0.48090  Biso   1.000  I
  I102     1.0000 0.19700  0.41520  0.37780  Biso   1.000  I
  I103     1.0000 0.50579  0.13160  0.09057  Biso   1.000  I
  Zn26     1.0000 0.43450  0.15780  0.11585  Biso   1.000  Zn
  I104     1.0000 0.39356  0.02450  0.14070  Biso   1.000  I
  I105     1.0000 0.45400  0.10010  0.55696  Biso   1.000  I
  I106     1.0000 0.46240  0.19280  0.49032  Biso   1.000  I
  Zn27     1.0000 0.78690  0.11600  0.42310  Biso   1.000  Zn
  I107     1.0000 0.71190  0.08800  0.37960  Biso   1.000  I
  I108     1.0000 0.80720  0.03000  0.48720  Biso   1.000  I
  Zn28     1.0000 0.44410  0.64930  0.62410  Biso   1.000  Zn
  I109     1.0000 0.48140  0.36100  0.39620  Biso   1.000  I
  Zn29     1.0000 0.29810  0.40040  0.44430  Biso   1.000  Zn
  I110     1.0000 0.33770  0.46360  0.50900  Biso   1.000  I
  I111     1.0000 0.22050  0.45360  0.41450  Biso   1.000  I
  Zn30     1.0000 0.45710  0.16600  0.11300  Biso   1.000  Zn
  I112     1.0000 0.25570  0.59600  0.35790  Biso   1.000  I
  I113     1.0000 0.28350  0.71220  0.30670  Biso   1.000  I
  I114     1.0000 0.31440  0.73890  0.35990  Biso   1.000  I
  I115     1.0000 0.23830  0.67200  0.31840  Biso   1.000  I
  I116     1.0000 0.49190  0.00520  0.52320  Biso   1.000  I
  I117     1.0000 0.45120  0.16200  0.53390  Biso   1.000  I
  I118     1.0000 0.42060  0.43200  0.55610  Biso   1.000  I
  I119     1.0000 0.43900  0.40640  0.48240  Biso   1.000  I
  I120     1.0000 0.41900  0.40700  0.56140  Biso   1.000  I
  I121     1.0000 0.45940  0.49200  0.50750  Biso   1.000  I
  I122     1.0000 0.39980  0.13100  0.38340  Biso   1.000  I
  I123     1.0000 0.33810  0.00300  0.36100  Biso   1.000  I
  I124     1.0000 0.44790  0.17670  0.40280  Biso   1.000  I
  I125     1.0000 0.42150  0.00410  0.40850  Biso   1.000  I
  I126     1.0000 0.43860  0.75200  0.44080  Biso   1.000  I
  I127     1.0000 0.36520  0.75620  0.38430  Biso   1.000  I
  I128     1.0000 0.41310  0.80300  0.42620  Biso   1.000  I
  I129     1.0000 0.43020  0.63580  0.45590  Biso   1.000  I
  I130     1.0000 0.53210  0.15000  0.09410  Biso   1.000  I
  I131     1.0000 0.56990  0.29730  0.10170  Biso   1.000  I
  I132     1.0000 0.63710  0.41640  0.11920  Biso   1.000  I
  I133     1.0000 0.56520  0.32930  0.08710  Biso   1.000  I
  I134     1.0000 0.61080  0.48460  0.08500  Biso   1.000  I
  I135     1.0000 0.40600  0.50840  0.64400  Biso   1.000  I
  I136     1.0000 0.38060  0.59690  0.78380  Biso   1.000  I
  I137     1.0000 0.40150  0.54840  0.71330  Biso   1.000  I
  I138     1.0000 0.41890  0.02500  0.13540  Biso   1.000  I
  Zn31     1.0000 0.74031  0.11680  0.08481  Biso   1.000  Zn
  I139     1.0000 0.81496  0.09690  0.13004  Biso   1.000  I
  I140     1.0000 0.72117  0.01900  0.02407  Biso   1.000  I
  Zn32     1.0000 0.40133  0.64470  0.16051  Biso   1.000  Zn
  I141     1.0000 0.36686  0.60900  0.22088  Biso   1.000  I
  N73      1.0000 0.58440  0.11470  0.21260  Biso   1.000  N
  N74      1.0000 0.56170  0.98600  0.17360  Biso   1.000  N
  N75      1.0000 0.52160  0.03300  0.22520  Biso   1.000  N
  N76      1.0000 0.68950  0.10100  0.11680  Biso   1.000  N
  N77      1.0000 0.44730  0.74900  0.17490  Biso   1.000  N
  N78      1.0000 0.54500  0.26200  0.33150  Biso   1.000  N
  C217     1.0000 0.58680  0.05800  0.18230  Biso   1.000  C
  C218     1.0000 0.52880  0.97800  0.19680  Biso   1.000  C
  C219     1.0000 0.55230  0.09900  0.23240  Biso   1.000  C
  C220     1.0000 0.62290  0.07400  0.15910  Biso   1.000  C
  C221     1.0000 0.64630  0.14800  0.16130  Biso   1.000  C
  H145     1.0000 0.63910  0.19560  0.17750  Biso   1.000  H
  C222     1.0000 0.68010  0.15900  0.14160  Biso   1.000  C
  H146     1.0000 0.69770  0.21150  0.14620  Biso   1.000  H
  C223     1.0000 0.66500  0.02800  0.11050  Biso   1.000  C
  H147     1.0000 0.66980  0.98790  0.09020  Biso   1.000  H
  C224     1.0000 0.63110  0.00800  0.13350  Biso   1.000  C
  H148     1.0000 0.61560  0.95230  0.13100  Biso   1.000  H
  C225     1.0000 0.50090  0.89800  0.18820  Biso   1.000  C
  C226     1.0000 0.49910  0.84800  0.15370  Biso   1.000  C
  H149     1.0000 0.51720  0.86390  0.13500  Biso   1.000  H
  C227     1.0000 0.47240  0.77800  0.14680  Biso   1.000  C
  H150     1.0000 0.47020  0.74630  0.12240  Biso   1.000  H
  C228     1.0000 0.44690  0.79500  0.20810  Biso   1.000  C
  H151     1.0000 0.42990  0.77610  0.22720  Biso   1.000  H
  C229     1.0000 0.47330  0.87400  0.21370  Biso   1.000  C
  H152     1.0000 0.47170  0.91120  0.23590  Biso   1.000  H
  C230     1.0000 0.54860  0.15700  0.26790  Biso   1.000  C
  C231     1.0000 0.50760  0.17600  0.27880  Biso   1.000  C
  H153     1.0000 0.48110  0.15340  0.26370  Biso   1.000  H
  C232     1.0000 0.50690  0.22800  0.31220  Biso   1.000  C
  H154     1.0000 0.48000  0.23880  0.32130  Biso   1.000  H
  C233     1.0000 0.58110  0.24300  0.32110  Biso   1.000  C
  H155     1.0000 0.60720  0.26390  0.33750  Biso   1.000  H
  C234     1.0000 0.58590  0.19500  0.28740  Biso   1.000  C
  H156     1.0000 0.61340  0.18900  0.27880  Biso   1.000  H
  N79      1.0000 0.23730  0.93600  0.06630  Biso   1.000  N
  N80      1.0000 0.21500  0.80500  0.03040  Biso   1.000  N
  N81      1.0000 0.17270  0.94400  0.01510  Biso   1.000  N
  N82      1.0000 0.35290  0.70900  0.12300  Biso   1.000  N
  N83      1.0000 0.08810  0.72500  0.92470  Biso   1.000  N
  N84      1.0000 0.21400  0.26300  0.06180  Biso   1.000  N
  C235     1.0000 0.24360  0.84900  0.06030  Biso   1.000  C
  C236     1.0000 0.18210  0.85400  0.01270  Biso   1.000  C
  C237     1.0000 0.20480  0.97800  0.04480  Biso   1.000  C
  C238     1.0000 0.28130  0.80000  0.08350  Biso   1.000  C
  C239     1.0000 0.30460  0.83500  0.11580  Biso   1.000  C
  H157     1.0000 0.29760  0.89350  0.12350  Biso   1.000  H
  C240     1.0000 0.33880  0.78900  0.13890  Biso   1.000  C
  H158     1.0000 0.35210  0.81070  0.16420  Biso   1.000  H
  C241     1.0000 0.32740  0.67900  0.08970  Biso   1.000  C
  H159     1.0000 0.33460  0.62340  0.07910  Biso   1.000  H
  C242     1.0000 0.29400  0.72200  0.07160  Biso   1.000  C
  H160     1.0000 0.27760  0.69620  0.04840  Biso   1.000  H
  C243     1.0000 0.15060  0.80900  0.98150  Biso   1.000  C
  C244     1.0000 0.15470  0.72100  0.97120  Biso   1.000  C
  H161     1.0000 0.17860  0.68720  0.98480  Biso   1.000  H
  C245     1.0000 0.12440  0.68000  0.94090  Biso   1.000  C
  H162     1.0000 0.12960  0.62130  0.93220  Biso   1.000  H
  C246     1.0000 0.08140  0.81000  0.93270  Biso   1.000  C
  H163     1.0000 0.05640  0.84010  0.91880  Biso   1.000  H
  C247     1.0000 0.11170  0.85700  0.96260  Biso   1.000  C
  H164     1.0000 0.10640  0.91760  0.96950  Biso   1.000  H
  C248     1.0000 0.20580  0.07800  0.05050  Biso   1.000  C
  C249     1.0000 0.17320  0.13300  0.03160  Biso   1.000  C
  H165     1.0000 0.14720  0.11140  0.01520  Biso   1.000  H
  C250     1.0000 0.18250  0.22300  0.03890  Biso   1.000  C
  H166     1.0000 0.16160  0.26300  0.02440  Biso   1.000  H
  C251     1.0000 0.23890  0.20900  0.08060  Biso   1.000  C
  H167     1.0000 0.26100  0.23410  0.10020  Biso   1.000  H
  C252     1.0000 0.24010  0.12100  0.07810  Biso   1.000  C
  H168     1.0000 0.26260  0.08690  0.09390  Biso   1.000  H
  I142     1.0000 0.43363  0.52200  0.12302  Biso   1.000  I
  Zn33     1.0000 0.90916  0.88330  0.17295  Biso   1.000  Zn
  I143     1.0000 0.95063  0.00240  0.14109  Biso   1.000  I
  I144     1.0000 0.87005  0.91580  0.23023  Biso   1.000  I
  N85      1.0000 0.08570  0.40580  0.21900  Biso   1.000  N
  N86      1.0000 0.06280  0.53500  0.18410  Biso   1.000  N
  N87      1.0000 0.02900  0.49500  0.23840  Biso   1.000  N
  N88      1.0000 0.17530  0.41700  0.10850  Biso   1.000  N
  N89      1.0000 0.95610  0.78200  0.18860  Biso   1.000  N
  N90      1.0000 0.05990  0.25000  0.34000  Biso   1.000  N
  C253     1.0000 0.08750  0.46700  0.18970  Biso   1.000  C
  C254     1.0000 0.03200  0.54500  0.20810  Biso   1.000  C
  C255     1.0000 0.06010  0.42400  0.24240  Biso   1.000  C
  C256     1.0000 0.11960  0.44500  0.16110  Biso   1.000  C
  C257     1.0000 0.14870  0.37500  0.16470  Biso   1.000  C
  H169     1.0000 0.14950  0.33280  0.18540  Biso   1.000  H
  C258     1.0000 0.17570  0.36800  0.13900  Biso   1.000  C
  H170     1.0000 0.19750  0.32250  0.14370  Biso   1.000  H
  C259     1.0000 0.13860  0.47900  0.10050  Biso   1.000  C
  H171     1.0000 0.13110  0.50480  0.07500  Biso   1.000  H
  C260     1.0000 0.11460  0.50000  0.12950  Biso   1.000  C
  H172     1.0000 0.09560  0.55080  0.12730  Biso   1.000  H
  C261     1.0000 0.00540  0.63000  0.20280  Biso   1.000  C
  C262     1.0000 0.00680  0.68400  0.16830  Biso   1.000  C
  H173     1.0000 0.02440  0.66840  0.14920  Biso   1.000  H
  C263     1.0000 0.98060  0.76000  0.16500  Biso   1.000  C
  H174     1.0000 0.98150  0.79820  0.14310  Biso   1.000  H
  C264     1.0000 0.95050  0.73100  0.22050  Biso   1.000  C
  H175     1.0000 0.93030  0.74810  0.23720  Biso   1.000  H
  C265     1.0000 0.97690  0.65200  0.22760  Biso   1.000  C
  H176     1.0000 0.97450  0.61380  0.24940  Biso   1.000  H
  C266     1.0000 0.05640  0.36300  0.27510  Biso   1.000  C
  C267     1.0000 0.01790  0.35300  0.29370  Biso   1.000  C
  H177     1.0000 0.99210  0.38760  0.28530  Biso   1.000  H
  C268     1.0000 0.02050  0.29200  0.32400  Biso   1.000  C
  H178     1.0000 0.99460  0.27850  0.33440  Biso   1.000  H
  C269     1.0000 0.09390  0.26700  0.32430  Biso   1.000  C
  H179     1.0000 0.12090  0.24170  0.33710  Biso   1.000  H
  C270     1.0000 0.09540  0.31800  0.29070  Biso   1.000  C
  H180     1.0000 0.12120  0.32160  0.27900  Biso   1.000  H
  N91      1.0000 0.76110  0.57800  0.07350  Biso   1.000  N
  N92      1.0000 0.73590  0.70500  0.03510  Biso   1.000  N
  N93      1.0000 0.69910  0.56500  0.02270  Biso   1.000  N
  N94      1.0000 0.86690  0.81600  0.13060  Biso   1.000  N
  N95      1.0000 0.60960  0.78000  0.92810  Biso   1.000  N
  N96      1.0000 0.73640  0.25200  0.07200  Biso   1.000  N
  C271     1.0000 0.76030  0.66200  0.06220  Biso   1.000  C
  C272     1.0000 0.70250  0.65200  0.01460  Biso   1.000  C
  C273     1.0000 0.72900  0.53400  0.04980  Biso   1.000  C
  C274     1.0000 0.79930  0.71700  0.08560  Biso   1.000  C
  C275     1.0000 0.82280  0.68200  0.11520  Biso   1.000  C
  H181     1.0000 0.81580  0.62250  0.12210  Biso   1.000  H
  C276     1.0000 0.86010  0.72600  0.13960  Biso   1.000  C
  H182     1.0000 0.87870  0.69590  0.16030  Biso   1.000  H
  C277     1.0000 0.83720  0.84600  0.10040  Biso   1.000  C
  H183     1.0000 0.84070  0.90690  0.09400  Biso   1.000  H
  C278     1.0000 0.80510  0.80700  0.07870  Biso   1.000  C
  H184     1.0000 0.78600  0.83840  0.05870  Biso   1.000  H
  C279     1.0000 0.66990  0.69800  0.98620  Biso   1.000  C
  C280     1.0000 0.67390  0.79100  0.97440  Biso   1.000  C
  H185     1.0000 0.69890  0.82500  0.98570  Biso   1.000  H
  C281     1.0000 0.64350  0.82600  0.94840  Biso   1.000  C
  H186     1.0000 0.64520  0.88890  0.94330  Biso   1.000  H
  C282     1.0000 0.60400  0.69500  0.93770  Biso   1.000  C
  H187     1.0000 0.57810  0.66460  0.92580  Biso   1.000  H
  C283     1.0000 0.63360  0.65200  0.96360  Biso   1.000  C
  H188     1.0000 0.63060  0.58890  0.96700  Biso   1.000  H
  C284     1.0000 0.73120  0.43200  0.05680  Biso   1.000  C
  C285     1.0000 0.69920  0.37300  0.03500  Biso   1.000  C
  H189     1.0000 0.67520  0.39500  0.01630  Biso   1.000  H
  C286     1.0000 0.70480  0.28200  0.04240  Biso   1.000  C
  H190     1.0000 0.68630  0.23960  0.02660  Biso   1.000  H
  C287     1.0000 0.76270  0.31100  0.09520  Biso   1.000  C
  H191     1.0000 0.78330  0.29020  0.11710  Biso   1.000  H
  C288     1.0000 0.75910  0.39600  0.08700  Biso   1.000  C
  H192     1.0000 0.77780  0.43650  0.10370  Biso   1.000  H
  Zn34     1.0000 0.03920  0.66830  0.88420  Biso   1.000  Zn
  Zn35     1.0000 0.22660  0.39530  0.08010  Biso   1.000  Zn
  I145     1.0000 0.06680  0.50970  0.87380  Biso   1.000  I
  I146     1.0000 0.96530  0.68790  0.90520  Biso   1.000  I
  I147     1.0000 0.20070  0.48690  0.01910  Biso   1.000  I
  I148     1.0000 0.30300  0.41520  0.12220  Biso   1.000  I
  I149     1.0000 0.99421  0.13160  0.40943  Biso   1.000  I
  Zn36     1.0000 0.06550  0.15780  0.38415  Biso   1.000  Zn
  I150     1.0000 0.10644  0.02450  0.35930  Biso   1.000  I
  I151     1.0000 0.04600  0.10010  0.94304  Biso   1.000  I
  I152     1.0000 0.03760  0.19280  0.00968  Biso   1.000  I
  Zn37     1.0000 0.71310  0.11600  0.07690  Biso   1.000  Zn
  I153     1.0000 0.78810  0.08800  0.12040  Biso   1.000  I
  I154     1.0000 0.69280  0.03000  0.01280  Biso   1.000  I
  Zn38     1.0000 0.05590  0.64930  0.87590  Biso   1.000  Zn
  I155     1.0000 0.01860  0.36100  0.10380  Biso   1.000  I
  Zn39     1.0000 0.20190  0.40040  0.05570  Biso   1.000  Zn
  I156     1.0000 0.16230  0.46360  0.99100  Biso   1.000  I
  I157     1.0000 0.27950  0.45360  0.08550  Biso   1.000  I
  Zn40     1.0000 0.04290  0.16600  0.38700  Biso   1.000  Zn
  I158     1.0000 0.24430  0.59600  0.14210  Biso   1.000  I
  I159     1.0000 0.21650  0.71220  0.19330  Biso   1.000  I
  I160     1.0000 0.18560  0.73890  0.14010  Biso   1.000  I
  I161     1.0000 0.26170  0.67200  0.18160  Biso   1.000  I
  I162     1.0000 0.00810  0.00520  0.97680  Biso   1.000  I
  I163     1.0000 0.04880  0.16200  0.96610  Biso   1.000  I
  I164     1.0000 0.07940  0.43200  0.94390  Biso   1.000  I
  I165     1.0000 0.06100  0.40640  0.01760  Biso   1.000  I
  I166     1.0000 0.08100  0.40700  0.93860  Biso   1.000  I
  I167     1.0000 0.04060  0.49200  0.99250  Biso   1.000  I
  I168     1.0000 0.10020  0.13100  0.11660  Biso   1.000  I
  I169     1.0000 0.16190  0.00300  0.13900  Biso   1.000  I
  I170     1.0000 0.05210  0.17670  0.09720  Biso   1.000  I
  I171     1.0000 0.07850  0.00410  0.09150  Biso   1.000  I
  I172     1.0000 0.06140  0.75200  0.05920  Biso   1.000  I
  I173     1.0000 0.13480  0.75620  0.11570  Biso   1.000  I
  I174     1.0000 0.08690  0.80300  0.07380  Biso   1.000  I
  I175     1.0000 0.06980  0.63580  0.04410  Biso   1.000  I
  I176     1.0000 0.96790  0.15000  0.40590  Biso   1.000  I
  I177     1.0000 0.93010  0.29730  0.39830  Biso   1.000  I
  I178     1.0000 0.86290  0.41640  0.38080  Biso   1.000  I
  I179     1.0000 0.93480  0.32930  0.41290  Biso   1.000  I
  I180     1.0000 0.88920  0.48460  0.41500  Biso   1.000  I
  I181     1.0000 0.09400  0.50840  0.85600  Biso   1.000  I
  I182     1.0000 0.11940  0.59690  0.71620  Biso   1.000  I
  I183     1.0000 0.09850  0.54840  0.78670  Biso   1.000  I
  I184     1.0000 0.08110  0.02500  0.36460  Biso   1.000  I
