data_image0
_cell_length_a       35.143
_cell_length_b       15.039
_cell_length_c       30.68
_cell_angle_alpha    90
_cell_angle_beta     101.549
_cell_angle_gamma    90

_symmetry_space_group_name_H-M    "P 1"
_symmetry_int_tables_number       1

loop_
  _symmetry_equiv_pos_as_xyz
  'x, y, z'

loop_
  _atom_site_label
  _atom_site_occupancy
  _atom_site_fract_x
  _atom_site_fract_y
  _atom_site_fract_z
  _atom_site_thermal_displace_type
  _atom_site_B_iso_or_equiv
  _atom_site_type_symbol
  Zn1      1.0000 0.86870  0.16047  0.06403  Biso   1.000  Zn
  I1       1.0000 0.88296  0.16684  0.98658  Biso   1.000  I
  I2       1.0000 0.85130  0.01742  0.10034  Biso   1.000  I
  Zn2      1.0000 0.55860  0.38770  0.22390  Biso   1.000  Zn
  I3       1.0000 0.49640  0.46020  0.18240  Biso   1.000  I
  Zn3      1.0000 0.66335  0.86518  0.90814  Biso   1.000  Zn
  I4       1.0000 0.63253  0.99123  0.94378  Biso   1.000  I
  Zn4      1.0000 0.38309  0.84030  0.54490  Biso   1.000  Zn
  I5       1.0000 0.36700  0.98465  0.58114  Biso   1.000  I
  Zn5      1.0000 0.16037  0.12657  0.41782  Biso   1.000  Zn
  I6       1.0000 0.12957  0.01110  0.46016  Biso   1.000  I
  I7       1.0000 0.21269  0.10088  0.37222  Biso   1.000  I
  Zn6      1.0000 0.08618  0.87078  0.23244  Biso   1.000  Zn
  I8       1.0000 0.13165  0.89321  0.30757  Biso   1.000  I
  I9       1.0000 0.02622  0.96916  0.20957  Biso   1.000  I
  N1       1.0000 0.60140  0.41300  0.18770  Biso   1.000  N
  C1       1.0000 0.60180  0.48800  0.16650  Biso   1.000  C
  H1       1.0000 0.58440  0.53350  0.17170  Biso   1.000  H
  C2       1.0000 0.62520  0.50600  0.13760  Biso   1.000  C
  H2       1.0000 0.62180  0.55960  0.12120  Biso   1.000  H
  C3       1.0000 0.65380  0.44760  0.13130  Biso   1.000  C
  C4       1.0000 0.65520  0.37110  0.15550  Biso   1.000  C
  H3       1.0000 0.67480  0.32840  0.15380  Biso   1.000  H
  C5       1.0000 0.62890  0.35390  0.18230  Biso   1.000  C
  H4       1.0000 0.63020  0.29850  0.19740  Biso   1.000  H
  C6       1.0000 0.67810  0.46610  0.10090  Biso   1.000  C
  N2       1.0000 0.67180  0.53600  0.07430  Biso   1.000  N
  C7       1.0000 0.69290  0.54030  0.04540  Biso   1.000  C
  N3       1.0000 0.72190  0.48390  0.03870  Biso   1.000  N
  C8       1.0000 0.72750  0.41680  0.06980  Biso   1.000  C
  N4       1.0000 0.70670  0.40330  0.09900  Biso   1.000  N
  C9       1.0000 0.76110  0.35650  0.06510  Biso   1.000  C
  C10      1.0000 0.77830  0.35800  0.03210  Biso   1.000  C
  H5       1.0000 0.76930  0.39700  0.00790  Biso   1.000  H
  C11      1.0000 0.81090  0.30180  0.03130  Biso   1.000  C
  H6       1.0000 0.82360  0.30420  0.00670  Biso   1.000  H
  N5       1.0000 0.82370  0.24630  0.06470  Biso   1.000  N
  C12      1.0000 0.80480  0.24600  0.09940  Biso   1.000  C
  H7       1.0000 0.81370  0.20820  0.12410  Biso   1.000  H
  C13      1.0000 0.77330  0.29920  0.09930  Biso   1.000  C
  H8       1.0000 0.75980  0.29610  0.12320  Biso   1.000  H
  C14      1.0000 0.68900  0.62050  0.01310  Biso   1.000  C
  C15      1.0000 0.65500  0.67140  0.00880  Biso   1.000  C
  H9       1.0000 0.63590  0.65850  0.02590  Biso   1.000  H
  C16      1.0000 0.65040  0.73930  0.97960  Biso   1.000  C
  H10      1.0000 0.62730  0.77350  0.97690  Biso   1.000  H
  N6       1.0000 0.67500  0.76220  0.95460  Biso   1.000  N
  C17      1.0000 0.70760  0.71610  0.95870  Biso   1.000  C
  H11      1.0000 0.72590  0.73060  0.94080  Biso   1.000  H
  C18      1.0000 0.71540  0.64510  0.98980  Biso   1.000  C
  H12      1.0000 0.73970  0.61500  0.99400  Biso   1.000  H
  N7       1.0000 0.62450  0.79740  0.86000  Biso   1.000  N
  C19      1.0000 0.60160  0.84300  0.82970  Biso   1.000  C
  H13      1.0000 0.59950  0.90520  0.83330  Biso   1.000  H
  C20      1.0000 0.57910  0.79990  0.79030  Biso   1.000  C
  H14      1.0000 0.56230  0.83370  0.76830  Biso   1.000  H
  C21      1.0000 0.58260  0.71040  0.78560  Biso   1.000  C
  C22      1.0000 0.60380  0.66910  0.82150  Biso   1.000  C
  H15      1.0000 0.60450  0.60600  0.82140  Biso   1.000  H
  C23      1.0000 0.62460  0.71310  0.85870  Biso   1.000  C
  H16      1.0000 0.63870  0.68010  0.88300  Biso   1.000  H
  C24      1.0000 0.56180  0.66000  0.74650  Biso   1.000  C
  N8       1.0000 0.53620  0.70690  0.71640  Biso   1.000  N
  C25      1.0000 0.51650  0.65370  0.68250  Biso   1.000  C
  N9       1.0000 0.52140  0.56810  0.67840  Biso   1.000  N
  C26      1.0000 0.54730  0.53240  0.71140  Biso   1.000  C
  N10      1.0000 0.56910  0.57600  0.74460  Biso   1.000  N
  C27      1.0000 0.48890  0.69890  0.64990  Biso   1.000  C
  C28      1.0000 0.47720  0.78600  0.65380  Biso   1.000  C
  H17      1.0000 0.49030  0.81820  0.67890  Biso   1.000  H
  C29      1.0000 0.44830  0.82950  0.62470  Biso   1.000  C
  H18      1.0000 0.44210  0.88990  0.62920  Biso   1.000  H
  N11      1.0000 0.42830  0.78020  0.58810  Biso   1.000  N
  C30      1.0000 0.43880  0.70050  0.58320  Biso   1.000  C
  H19      1.0000 0.42410  0.66820  0.55890  Biso   1.000  H
  C31      1.0000 0.46900  0.65700  0.60940  Biso   1.000  C
  H20      1.0000 0.47680  0.59970  0.60110  Biso   1.000  H
  C32      1.0000 0.55210  0.43500  0.71110  Biso   1.000  C
  C33      1.0000 0.52850  0.37600  0.68290  Biso   1.000  C
  H21      1.0000 0.50960  0.39990  0.65930  Biso   1.000  H
  C34      1.0000 0.53070  0.28500  0.68670  Biso   1.000  C
  H22      1.0000 0.51380  0.24890  0.66620  Biso   1.000  H
  N12      1.0000 0.55700  0.24830  0.71980  Biso   1.000  N
  C35      1.0000 0.57900  0.30000  0.75040  Biso   1.000  C
  H23      1.0000 0.59640  0.27300  0.77430  Biso   1.000  H
  C36      1.0000 0.57720  0.39300  0.74830  Biso   1.000  C
  H24      1.0000 0.59240  0.42850  0.77100  Biso   1.000  H
  N13      1.0000 0.33620  0.75520  0.54530  Biso   1.000  N
  C37      1.0000 0.32690  0.75000  0.58520  Biso   1.000  C
  H25      1.0000 0.34230  0.77930  0.61000  Biso   1.000  H
  C38      1.0000 0.29220  0.69700  0.59060  Biso   1.000  C
  H26      1.0000 0.28360  0.69440  0.61800  Biso   1.000  H
  C39      1.0000 0.27320  0.65220  0.55250  Biso   1.000  C
  C40      1.0000 0.28530  0.65760  0.51380  Biso   1.000  C
  H27      1.0000 0.27330  0.62300  0.48890  Biso   1.000  H
  C41      1.0000 0.31600  0.71560  0.51090  Biso   1.000  C
  H28      1.0000 0.32230  0.72610  0.48260  Biso   1.000  H
  C42      1.0000 0.23940  0.59210  0.55690  Biso   1.000  C
  N14      1.0000 0.22060  0.60880  0.58990  Biso   1.000  N
  C43      1.0000 0.19260  0.55640  0.59320  Biso   1.000  C
  N15      1.0000 0.18290  0.48360  0.56800  Biso   1.000  N
  C44      1.0000 0.20440  0.46920  0.53710  Biso   1.000  C
  N16      1.0000 0.23180  0.52370  0.52770  Biso   1.000  N
  C45      1.0000 0.16820  0.57540  0.62430  Biso   1.000  C
  C46      1.0000 0.17820  0.63350  0.66150  Biso   1.000  C
  H29      1.0000 0.20250  0.66320  0.66580  Biso   1.000  H
  C47      1.0000 0.15580  0.64850  0.69000  Biso   1.000  C
  H30      1.0000 0.16490  0.68670  0.71450  Biso   1.000  H
  N17      1.0000 0.11870  0.61030  0.68580  Biso   1.000  N
  C48      1.0000 0.10920  0.55490  0.65010  Biso   1.000  C
  H31      1.0000 0.08460  0.52650  0.64550  Biso   1.000  H
  C49      1.0000 0.13180  0.53780  0.62110  Biso   1.000  C
  H32      1.0000 0.12270  0.49810  0.59720  Biso   1.000  H
  C50      1.0000 0.19630  0.38700  0.50900  Biso   1.000  C
  C51      1.0000 0.16870  0.32500  0.51770  Biso   1.000  C
  H33      1.0000 0.15580  0.33510  0.54160  Biso   1.000  H
  C52      1.0000 0.16060  0.25220  0.49250  Biso   1.000  C
  H34      1.0000 0.14090  0.21290  0.49800  Biso   1.000  H
  N18      1.0000 0.17890  0.23360  0.46090  Biso   1.000  N
  C53      1.0000 0.20660  0.28690  0.45270  Biso   1.000  C
  H35      1.0000 0.22020  0.27130  0.42990  Biso   1.000  H
  C54      1.0000 0.21670  0.36820  0.47740  Biso   1.000  C
  H36      1.0000 0.23660  0.40640  0.47170  Biso   1.000  H
  N19      1.0000 0.11640  0.18720  0.37160  Biso   1.000  N
  C55      1.0000 0.09510  0.14530  0.33810  Biso   1.000  C
  H37      1.0000 0.09440  0.08210  0.33910  Biso   1.000  H
  C56      1.0000 0.07380  0.18680  0.30190  Biso   1.000  C
  H38      1.0000 0.05920  0.15270  0.27820  Biso   1.000  H
  C57      1.0000 0.07340  0.27870  0.29950  Biso   1.000  C
  C58      1.0000 0.09320  0.32220  0.33670  Biso   1.000  C
  H39      1.0000 0.09100  0.38500  0.33840  Biso   1.000  H
  C59      1.0000 0.11600  0.27770  0.37120  Biso   1.000  C
  H40      1.0000 0.13160  0.30990  0.39490  Biso   1.000  H
  C60      1.0000 0.05230  0.32800  0.25910  Biso   1.000  C
  N20      1.0000 0.02710  0.28890  0.23060  Biso   1.000  N
  C61      1.0000 0.00990  0.33790  0.19600  Biso   1.000  C
  N21      1.0000 0.01720  0.42450  0.19060  Biso   1.000  N
  C62      1.0000 0.04540  0.45730  0.22170  Biso   1.000  C
  N22      1.0000 0.06500  0.41450  0.25690  Biso   1.000  N
  C63      1.0000 0.05480  0.55820  0.22230  Biso   1.000  C
  C64      1.0000 0.03200  0.61510  0.19480  Biso   1.000  C
  H41      1.0000 0.01090  0.59300  0.17330  Biso   1.000  H
  C65      1.0000 0.03940  0.70720  0.19790  Biso   1.000  C
  H42      1.0000 0.02250  0.74760  0.17970  Biso   1.000  H
  N23      1.0000 0.06950  0.73660  0.22580  Biso   1.000  N
  C66      1.0000 0.09210  0.67900  0.25300  Biso   1.000  C
  H43      1.0000 0.11250  0.70260  0.27490  Biso   1.000  H
  C67      1.0000 0.08760  0.58760  0.25120  Biso   1.000  C
  H44      1.0000 0.10570  0.54820  0.26840  Biso   1.000  H
  C68      1.0000 0.97580  0.29490  0.16440  Biso   1.000  C
  C69      1.0000 0.97070  0.20900  0.16630  Biso   1.000  C
  H45      1.0000 0.98870  0.17380  0.18630  Biso   1.000  H
  C70      1.0000 0.93830  0.16840  0.13880  Biso   1.000  C
  H46      1.0000 0.93250  0.10760  0.14270  Biso   1.000  H
  N24      1.0000 0.91560  0.21790  0.10680  Biso   1.000  N
  C71      1.0000 0.92150  0.30220  0.10430  Biso   1.000  C
  H47      1.0000 0.90420  0.33630  0.08280  Biso   1.000  H
  C72      1.0000 0.95320  0.34570  0.13280  Biso   1.000  C
  H48      1.0000 0.95820  0.40730  0.12980  Biso   1.000  H
  I10      1.0000 0.39787  0.83200  0.46670  Biso   1.000  I
  I11      1.0000 0.72176  0.88893  0.87236  Biso   1.000  I
  I12      1.0000 0.58770  0.41500  0.30480  Biso   1.000  I
  C73      1.0000 0.68650  0.52170  0.75800  Biso   1.000  C
  H49      1.0000 0.67840  0.49320  0.73010  Biso   1.000  H
  C74      1.0000 0.69170  0.61330  0.76000  Biso   1.000  C
  H50      1.0000 0.68700  0.64750  0.73340  Biso   1.000  H
  C75      1.0000 0.70360  0.65500  0.80090  Biso   1.000  C
  H51      1.0000 0.70720  0.71770  0.80230  Biso   1.000  H
  C76      1.0000 0.71050  0.60500  0.83980  Biso   1.000  C
  H52      1.0000 0.71860  0.63360  0.86780  Biso   1.000  H
  C77      1.0000 0.70530  0.51300  0.83780  Biso   1.000  C
  H53      1.0000 0.71000  0.47930  0.86440  Biso   1.000  H
  C78      1.0000 0.69340  0.47170  0.79690  Biso   1.000  C
  N25      1.0000 0.68840  0.37670  0.79420  Biso   1.000  N
  O1       1.0000 0.69750  0.33600  0.82870  Biso   1.000  O
  O2       1.0000 0.68100  0.34400  0.75720  Biso   1.000  O
  Zn7      1.0000 0.57030  0.38500  0.23570  Biso   1.000  Zn
  I13      1.0000 0.50990  0.47930  0.20770  Biso   1.000  I
  Zn8      1.0000 0.59000  0.38250  0.22090  Biso   1.000  Zn
  I14      1.0000 0.53010  0.48080  0.19590  Biso   1.000  I
  Zn9      1.0000 0.65330  0.88100  0.92870  Biso   1.000  Zn
  I15      1.0000 0.62610  0.00200  0.97090  Biso   1.000  I
  Zn10     1.0000 0.36480  0.84630  0.57370  Biso   1.000  Zn
  I16      1.0000 0.34880  0.99070  0.60890  Biso   1.000  I
  I17      1.0000 0.38010  0.84130  0.49610  Biso   1.000  I
  I18      1.0000 0.39150  0.70100  0.42480  Biso   1.000  I
  I19      1.0000 0.38250  0.56700  0.36250  Biso   1.000  I
  I20      1.0000 0.63110  0.40550  0.29810  Biso   1.000  I
  I21      1.0000 0.69390  0.72200  0.82790  Biso   1.000  I
  I22      1.0000 0.67290  0.56500  0.78300  Biso   1.000  I
  I23      1.0000 0.60670  0.40120  0.31530  Biso   1.000  I
  I24      1.0000 0.70310  0.91400  0.88170  Biso   1.000  I
  C79      1.0000 0.42700  0.38600  0.41900  Biso   1.000  C
  H54      1.0000 0.44030  0.34330  0.43940  Biso   1.000  H
  C80      1.0000 0.43100  0.47600  0.42800  Biso   1.000  C
  H55      1.0000 0.44770  0.49520  0.45540  Biso   1.000  H
  C81      1.0000 0.41200  0.53800  0.39900  Biso   1.000  C
  H56      1.0000 0.41510  0.60000  0.40500  Biso   1.000  H
  C82      1.0000 0.38800  0.51000  0.35900  Biso   1.000  C
  H57      1.0000 0.37510  0.55300  0.33870  Biso   1.000  H
  C83      1.0000 0.38400  0.42000  0.35000  Biso   1.000  C
  H58      1.0000 0.36770  0.40110  0.32270  Biso   1.000  H
  C84      1.0000 0.40300  0.35800  0.37950  Biso   1.000  C
  N26      1.0000 0.40190  0.26500  0.36820  Biso   1.000  N
  O3       1.0000 0.37800  0.24500  0.33480  Biso   1.000  O
  O4       1.0000 0.41400  0.21300  0.39800  Biso   1.000  O
  C85      1.0000 0.39700  0.46200  0.41000  Biso   1.000  C
  H59      1.0000 0.40910  0.43310  0.43680  Biso   1.000  H
  C86      1.0000 0.39300  0.55400  0.40900  Biso   1.000  C
  H60      1.0000 0.40210  0.58780  0.43510  Biso   1.000  H
  C87      1.0000 0.37600  0.59600  0.37000  Biso   1.000  C
  H61      1.0000 0.37290  0.65890  0.36900  Biso   1.000  H
  C88      1.0000 0.36300  0.54600  0.33100  Biso   1.000  C
  H62      1.0000 0.35070  0.57520  0.30460  Biso   1.000  H
  C89      1.0000 0.36700  0.45400  0.33200  Biso   1.000  C
  H63      1.0000 0.35770  0.42040  0.30640  Biso   1.000  H
  C90      1.0000 0.38400  0.41200  0.37200  Biso   1.000  C
  N27      1.0000 0.39300  0.31900  0.37100  Biso   1.000  N
  O5       1.0000 0.39600  0.28800  0.33500  Biso   1.000  O
  O6       1.0000 0.40700  0.28400  0.40700  Biso   1.000  O
  Zn11     1.0000 0.86870  0.33953  0.56403  Biso   1.000  Zn
  I25      1.0000 0.88296  0.33316  0.48658  Biso   1.000  I
  I26      1.0000 0.85130  0.48258  0.60034  Biso   1.000  I
  Zn12     1.0000 0.55860  0.11230  0.72390  Biso   1.000  Zn
  I27      1.0000 0.49640  0.03980  0.68240  Biso   1.000  I
  Zn13     1.0000 0.66335  0.63482  0.40814  Biso   1.000  Zn
  I28      1.0000 0.63253  0.50877  0.44378  Biso   1.000  I
  Zn14     1.0000 0.38309  0.65970  0.04490  Biso   1.000  Zn
  I29      1.0000 0.36700  0.51535  0.08114  Biso   1.000  I
  Zn15     1.0000 0.16037  0.37343  0.91782  Biso   1.000  Zn
  I30      1.0000 0.12957  0.48890  0.96016  Biso   1.000  I
  I31      1.0000 0.21269  0.39912  0.87222  Biso   1.000  I
  Zn16     1.0000 0.08618  0.62922  0.73244  Biso   1.000  Zn
  I32      1.0000 0.13165  0.60679  0.80757  Biso   1.000  I
  I33      1.0000 0.02622  0.53084  0.70957  Biso   1.000  I
  N28      1.0000 0.60140  0.08700  0.68770  Biso   1.000  N
  C91      1.0000 0.60180  0.01200  0.66650  Biso   1.000  C
  H64      1.0000 0.58440  0.96650  0.67170  Biso   1.000  H
  C92      1.0000 0.62520  0.99400  0.63760  Biso   1.000  C
  H65      1.0000 0.62180  0.94040  0.62120  Biso   1.000  H
  C93      1.0000 0.65380  0.05240  0.63130  Biso   1.000  C
  C94      1.0000 0.65520  0.12890  0.65550  Biso   1.000  C
  H66      1.0000 0.67480  0.17160  0.65380  Biso   1.000  H
  C95      1.0000 0.62890  0.14610  0.68230  Biso   1.000  C
  H67      1.0000 0.63020  0.20150  0.69740  Biso   1.000  H
  C96      1.0000 0.67810  0.03390  0.60090  Biso   1.000  C
  N29      1.0000 0.67180  0.96400  0.57430  Biso   1.000  N
  C97      1.0000 0.69290  0.95970  0.54540  Biso   1.000  C
  N30      1.0000 0.72190  0.01610  0.53870  Biso   1.000  N
  C98      1.0000 0.72750  0.08320  0.56980  Biso   1.000  C
  N31      1.0000 0.70670  0.09670  0.59900  Biso   1.000  N
  C99      1.0000 0.76110  0.14350  0.56510  Biso   1.000  C
  C100     1.0000 0.77830  0.14200  0.53210  Biso   1.000  C
  H68      1.0000 0.76930  0.10300  0.50790  Biso   1.000  H
  C101     1.0000 0.81090  0.19820  0.53130  Biso   1.000  C
  H69      1.0000 0.82360  0.19580  0.50670  Biso   1.000  H
  N32      1.0000 0.82370  0.25370  0.56470  Biso   1.000  N
  C102     1.0000 0.80480  0.25400  0.59940  Biso   1.000  C
  H70      1.0000 0.81370  0.29180  0.62410  Biso   1.000  H
  C103     1.0000 0.77330  0.20080  0.59930  Biso   1.000  C
  H71      1.0000 0.75980  0.20390  0.62320  Biso   1.000  H
  C104     1.0000 0.68900  0.87950  0.51310  Biso   1.000  C
  C105     1.0000 0.65500  0.82860  0.50880  Biso   1.000  C
  H72      1.0000 0.63590  0.84150  0.52590  Biso   1.000  H
  C106     1.0000 0.65040  0.76070  0.47960  Biso   1.000  C
  H73      1.0000 0.62730  0.72650  0.47690  Biso   1.000  H
  N33      1.0000 0.67500  0.73780  0.45460  Biso   1.000  N
  C107     1.0000 0.70760  0.78390  0.45870  Biso   1.000  C
  H74      1.0000 0.72590  0.76940  0.44080  Biso   1.000  H
  C108     1.0000 0.71540  0.85490  0.48980  Biso   1.000  C
  H75      1.0000 0.73970  0.88500  0.49400  Biso   1.000  H
  N34      1.0000 0.62450  0.70260  0.36000  Biso   1.000  N
  C109     1.0000 0.60160  0.65700  0.32970  Biso   1.000  C
  H76      1.0000 0.59950  0.59480  0.33330  Biso   1.000  H
  C110     1.0000 0.57910  0.70010  0.29030  Biso   1.000  C
  H77      1.0000 0.56230  0.66630  0.26830  Biso   1.000  H
  C111     1.0000 0.58260  0.78960  0.28560  Biso   1.000  C
  C112     1.0000 0.60380  0.83090  0.32150  Biso   1.000  C
  H78      1.0000 0.60450  0.89400  0.32140  Biso   1.000  H
  C113     1.0000 0.62460  0.78690  0.35870  Biso   1.000  C
  H79      1.0000 0.63870  0.81990  0.38300  Biso   1.000  H
  C114     1.0000 0.56180  0.84000  0.24650  Biso   1.000  C
  N35      1.0000 0.53620  0.79310  0.21640  Biso   1.000  N
  C115     1.0000 0.51650  0.84630  0.18250  Biso   1.000  C
  N36      1.0000 0.52140  0.93190  0.17840  Biso   1.000  N
  C116     1.0000 0.54730  0.96760  0.21140  Biso   1.000  C
  N37      1.0000 0.56910  0.92400  0.24460  Biso   1.000  N
  C117     1.0000 0.48890  0.80110  0.14990  Biso   1.000  C
  C118     1.0000 0.47720  0.71400  0.15380  Biso   1.000  C
  H80      1.0000 0.49030  0.68180  0.17890  Biso   1.000  H
  C119     1.0000 0.44830  0.67050  0.12470  Biso   1.000  C
  H81      1.0000 0.44210  0.61010  0.12920  Biso   1.000  H
  N38      1.0000 0.42830  0.71980  0.08810  Biso   1.000  N
  C120     1.0000 0.43880  0.79950  0.08320  Biso   1.000  C
  H82      1.0000 0.42410  0.83180  0.05890  Biso   1.000  H
  C121     1.0000 0.46900  0.84300  0.10940  Biso   1.000  C
  H83      1.0000 0.47680  0.90030  0.10110  Biso   1.000  H
  C122     1.0000 0.55210  0.06500  0.21110  Biso   1.000  C
  C123     1.0000 0.52850  0.12400  0.18290  Biso   1.000  C
  H84      1.0000 0.50960  0.10010  0.15930  Biso   1.000  H
  C124     1.0000 0.53070  0.21500  0.18670  Biso   1.000  C
  H85      1.0000 0.51380  0.25110  0.16620  Biso   1.000  H
  N39      1.0000 0.55700  0.25170  0.21980  Biso   1.000  N
  C125     1.0000 0.57900  0.20000  0.25040  Biso   1.000  C
  H86      1.0000 0.59640  0.22700  0.27430  Biso   1.000  H
  C126     1.0000 0.57720  0.10700  0.24830  Biso   1.000  C
  H87      1.0000 0.59240  0.07150  0.27100  Biso   1.000  H
  N40      1.0000 0.33620  0.74480  0.04530  Biso   1.000  N
  C127     1.0000 0.32690  0.75000  0.08520  Biso   1.000  C
  H88      1.0000 0.34230  0.72070  0.11000  Biso   1.000  H
  C128     1.0000 0.29220  0.80300  0.09060  Biso   1.000  C
  H89      1.0000 0.28360  0.80560  0.11800  Biso   1.000  H
  C129     1.0000 0.27320  0.84780  0.05250  Biso   1.000  C
  C130     1.0000 0.28530  0.84240  0.01380  Biso   1.000  C
  H90      1.0000 0.27330  0.87700  0.98890  Biso   1.000  H
  C131     1.0000 0.31600  0.78440  0.01090  Biso   1.000  C
  H91      1.0000 0.32230  0.77390  0.98260  Biso   1.000  H
  C132     1.0000 0.23940  0.90790  0.05690  Biso   1.000  C
  N41      1.0000 0.22060  0.89120  0.08990  Biso   1.000  N
  C133     1.0000 0.19260  0.94360  0.09320  Biso   1.000  C
  N42      1.0000 0.18290  0.01640  0.06800  Biso   1.000  N
  C134     1.0000 0.20440  0.03080  0.03710  Biso   1.000  C
  N43      1.0000 0.23180  0.97630  0.02770  Biso   1.000  N
  C135     1.0000 0.16820  0.92460  0.12430  Biso   1.000  C
  C136     1.0000 0.17820  0.86650  0.16150  Biso   1.000  C
  H92      1.0000 0.20250  0.83680  0.16580  Biso   1.000  H
  C137     1.0000 0.15580  0.85150  0.19000  Biso   1.000  C
  H93      1.0000 0.16490  0.81330  0.21450  Biso   1.000  H
  N44      1.0000 0.11870  0.88970  0.18580  Biso   1.000  N
  C138     1.0000 0.10920  0.94510  0.15010  Biso   1.000  C
  H94      1.0000 0.08460  0.97350  0.14550  Biso   1.000  H
  C139     1.0000 0.13180  0.96220  0.12110  Biso   1.000  C
  H95      1.0000 0.12270  0.00190  0.09720  Biso   1.000  H
  C140     1.0000 0.19630  0.11300  0.00900  Biso   1.000  C
  C141     1.0000 0.16870  0.17500  0.01770  Biso   1.000  C
  H96      1.0000 0.15580  0.16490  0.04160  Biso   1.000  H
  C142     1.0000 0.16060  0.24780  0.99250  Biso   1.000  C
  H97      1.0000 0.14090  0.28710  0.99800  Biso   1.000  H
  N45      1.0000 0.17890  0.26640  0.96090  Biso   1.000  N
  C143     1.0000 0.20660  0.21310  0.95270  Biso   1.000  C
  H98      1.0000 0.22020  0.22870  0.92990  Biso   1.000  H
  C144     1.0000 0.21670  0.13180  0.97740  Biso   1.000  C
  H99      1.0000 0.23660  0.09360  0.97170  Biso   1.000  H
  N46      1.0000 0.11640  0.31280  0.87160  Biso   1.000  N
  C145     1.0000 0.09510  0.35470  0.83810  Biso   1.000  C
  H100     1.0000 0.09440  0.41790  0.83910  Biso   1.000  H
  C146     1.0000 0.07380  0.31320  0.80190  Biso   1.000  C
  H101     1.0000 0.05920  0.34730  0.77820  Biso   1.000  H
  C147     1.0000 0.07340  0.22130  0.79950  Biso   1.000  C
  C148     1.0000 0.09320  0.17780  0.83670  Biso   1.000  C
  H102     1.0000 0.09100  0.11500  0.83840  Biso   1.000  H
  C149     1.0000 0.11600  0.22230  0.87120  Biso   1.000  C
  H103     1.0000 0.13160  0.19010  0.89490  Biso   1.000  H
  C150     1.0000 0.05230  0.17200  0.75910  Biso   1.000  C
  N47      1.0000 0.02710  0.21110  0.73060  Biso   1.000  N
  C151     1.0000 0.00990  0.16210  0.69600  Biso   1.000  C
  N48      1.0000 0.01720  0.07550  0.69060  Biso   1.000  N
  C152     1.0000 0.04540  0.04270  0.72170  Biso   1.000  C
  N49      1.0000 0.06500  0.08550  0.75690  Biso   1.000  N
  C153     1.0000 0.05480  0.94180  0.72230  Biso   1.000  C
  C154     1.0000 0.03200  0.88490  0.69480  Biso   1.000  C
  H104     1.0000 0.01090  0.90700  0.67330  Biso   1.000  H
  C155     1.0000 0.03940  0.79280  0.69790  Biso   1.000  C
  H105     1.0000 0.02250  0.75240  0.67970  Biso   1.000  H
  N50      1.0000 0.06950  0.76340  0.72580  Biso   1.000  N
  C156     1.0000 0.09210  0.82100  0.75300  Biso   1.000  C
  H106     1.0000 0.11250  0.79740  0.77490  Biso   1.000  H
  C157     1.0000 0.08760  0.91240  0.75120  Biso   1.000  C
  H107     1.0000 0.10570  0.95180  0.76840  Biso   1.000  H
  C158     1.0000 0.97580  0.20510  0.66440  Biso   1.000  C
  C159     1.0000 0.97070  0.29100  0.66630  Biso   1.000  C
  H108     1.0000 0.98870  0.32620  0.68630  Biso   1.000  H
  C160     1.0000 0.93830  0.33160  0.63880  Biso   1.000  C
  H109     1.0000 0.93250  0.39240  0.64270  Biso   1.000  H
  N51      1.0000 0.91560  0.28210  0.60680  Biso   1.000  N
  C161     1.0000 0.92150  0.19780  0.60430  Biso   1.000  C
  H110     1.0000 0.90420  0.16370  0.58280  Biso   1.000  H
  C162     1.0000 0.95320  0.15430  0.63280  Biso   1.000  C
  H111     1.0000 0.95820  0.09270  0.62980  Biso   1.000  H
  I34      1.0000 0.39787  0.66800  0.96670  Biso   1.000  I
  I35      1.0000 0.72176  0.61107  0.37236  Biso   1.000  I
  I36      1.0000 0.58770  0.08500  0.80480  Biso   1.000  I
  C163     1.0000 0.68650  0.97830  0.25800  Biso   1.000  C
  H112     1.0000 0.67840  0.00680  0.23010  Biso   1.000  H
  C164     1.0000 0.69170  0.88670  0.26000  Biso   1.000  C
  H113     1.0000 0.68700  0.85250  0.23340  Biso   1.000  H
  C165     1.0000 0.70360  0.84500  0.30090  Biso   1.000  C
  H114     1.0000 0.70720  0.78230  0.30230  Biso   1.000  H
  C166     1.0000 0.71050  0.89500  0.33980  Biso   1.000  C
  H115     1.0000 0.71860  0.86640  0.36780  Biso   1.000  H
  C167     1.0000 0.70530  0.98700  0.33780  Biso   1.000  C
  H116     1.0000 0.71000  0.02070  0.36440  Biso   1.000  H
  C168     1.0000 0.69340  0.02830  0.29690  Biso   1.000  C
  N52      1.0000 0.68840  0.12330  0.29420  Biso   1.000  N
  O7       1.0000 0.69750  0.16400  0.32870  Biso   1.000  O
  O8       1.0000 0.68100  0.15600  0.25720  Biso   1.000  O
  Zn17     1.0000 0.57030  0.11500  0.73570  Biso   1.000  Zn
  I37      1.0000 0.50990  0.02070  0.70770  Biso   1.000  I
  Zn18     1.0000 0.59000  0.11750  0.72090  Biso   1.000  Zn
  I38      1.0000 0.53010  0.01920  0.69590  Biso   1.000  I
  Zn19     1.0000 0.65330  0.61900  0.42870  Biso   1.000  Zn
  I39      1.0000 0.62610  0.49800  0.47090  Biso   1.000  I
  Zn20     1.0000 0.36480  0.65370  0.07370  Biso   1.000  Zn
  I40      1.0000 0.34880  0.50930  0.10890  Biso   1.000  I
  I41      1.0000 0.38010  0.65870  0.99610  Biso   1.000  I
  I42      1.0000 0.39150  0.79900  0.92480  Biso   1.000  I
  I43      1.0000 0.38250  0.93300  0.86250  Biso   1.000  I
  I44      1.0000 0.63110  0.09450  0.79810  Biso   1.000  I
  I45      1.0000 0.69390  0.77800  0.32790  Biso   1.000  I
  I46      1.0000 0.67290  0.93500  0.28300  Biso   1.000  I
  I47      1.0000 0.60670  0.09880  0.81530  Biso   1.000  I
  I48      1.0000 0.70310  0.58600  0.38170  Biso   1.000  I
  C169     1.0000 0.42700  0.11400  0.91900  Biso   1.000  C
  H117     1.0000 0.44030  0.15670  0.93940  Biso   1.000  H
  C170     1.0000 0.43100  0.02400  0.92800  Biso   1.000  C
  H118     1.0000 0.44770  0.00480  0.95540  Biso   1.000  H
  C171     1.0000 0.41200  0.96200  0.89900  Biso   1.000  C
  H119     1.0000 0.41510  0.90000  0.90500  Biso   1.000  H
  C172     1.0000 0.38800  0.99000  0.85900  Biso   1.000  C
  H120     1.0000 0.37510  0.94700  0.83870  Biso   1.000  H
  C173     1.0000 0.38400  0.08000  0.85000  Biso   1.000  C
  H121     1.0000 0.36770  0.09890  0.82270  Biso   1.000  H
  C174     1.0000 0.40300  0.14200  0.87950  Biso   1.000  C
  N53      1.0000 0.40190  0.23500  0.86820  Biso   1.000  N
  O9       1.0000 0.37800  0.25500  0.83480  Biso   1.000  O
  O10      1.0000 0.41400  0.28700  0.89800  Biso   1.000  O
  C175     1.0000 0.39700  0.03800  0.91000  Biso   1.000  C
  H122     1.0000 0.40910  0.06690  0.93680  Biso   1.000  H
  C176     1.0000 0.39300  0.94600  0.90900  Biso   1.000  C
  H123     1.0000 0.40210  0.91220  0.93510  Biso   1.000  H
  C177     1.0000 0.37600  0.90400  0.87000  Biso   1.000  C
  H124     1.0000 0.37290  0.84110  0.86900  Biso   1.000  H
  C178     1.0000 0.36300  0.95400  0.83100  Biso   1.000  C
  H125     1.0000 0.35070  0.92480  0.80460  Biso   1.000  H
  C179     1.0000 0.36700  0.04600  0.83200  Biso   1.000  C
  H126     1.0000 0.35770  0.07960  0.80640  Biso   1.000  H
  C180     1.0000 0.38400  0.08800  0.87200  Biso   1.000  C
  N54      1.0000 0.39300  0.18100  0.87100  Biso   1.000  N
  O11      1.0000 0.39600  0.21200  0.83500  Biso   1.000  O
  O12      1.0000 0.40700  0.21600  0.90700  Biso   1.000  O
  Zn21     1.0000 0.13130  0.66047  0.43597  Biso   1.000  Zn
  I49      1.0000 0.11704  0.66684  0.51342  Biso   1.000  I
  I50      1.0000 0.14870  0.51742  0.39966  Biso   1.000  I
  Zn22     1.0000 0.44140  0.88770  0.27610  Biso   1.000  Zn
  I51      1.0000 0.50360  0.96020  0.31760  Biso   1.000  I
  Zn23     1.0000 0.33665  0.36518  0.59186  Biso   1.000  Zn
  I52      1.0000 0.36747  0.49123  0.55622  Biso   1.000  I
  Zn24     1.0000 0.61691  0.34030  0.95510  Biso   1.000  Zn
  I53      1.0000 0.63300  0.48465  0.91886  Biso   1.000  I
  Zn25     1.0000 0.83963  0.62657  0.08218  Biso   1.000  Zn
  I54      1.0000 0.87043  0.51110  0.03984  Biso   1.000  I
  I55      1.0000 0.78731  0.60088  0.12778  Biso   1.000  I
  Zn26     1.0000 0.91382  0.37078  0.26756  Biso   1.000  Zn
  I56      1.0000 0.86835  0.39321  0.19243  Biso   1.000  I
  I57      1.0000 0.97378  0.46916  0.29043  Biso   1.000  I
  N55      1.0000 0.39860  0.91300  0.31230  Biso   1.000  N
  C181     1.0000 0.39820  0.98800  0.33350  Biso   1.000  C
  H127     1.0000 0.41560  0.03350  0.32830  Biso   1.000  H
  C182     1.0000 0.37480  0.00600  0.36240  Biso   1.000  C
  H128     1.0000 0.37820  0.05960  0.37880  Biso   1.000  H
  C183     1.0000 0.34620  0.94760  0.36870  Biso   1.000  C
  C184     1.0000 0.34480  0.87110  0.34450  Biso   1.000  C
  H129     1.0000 0.32520  0.82840  0.34620  Biso   1.000  H
  C185     1.0000 0.37110  0.85390  0.31770  Biso   1.000  C
  H130     1.0000 0.36980  0.79850  0.30260  Biso   1.000  H
  C186     1.0000 0.32190  0.96610  0.39910  Biso   1.000  C
  N56      1.0000 0.32820  0.03600  0.42570  Biso   1.000  N
  C187     1.0000 0.30710  0.04030  0.45460  Biso   1.000  C
  N57      1.0000 0.27810  0.98390  0.46130  Biso   1.000  N
  C188     1.0000 0.27250  0.91680  0.43020  Biso   1.000  C
  N58      1.0000 0.29330  0.90330  0.40100  Biso   1.000  N
  C189     1.0000 0.23890  0.85650  0.43490  Biso   1.000  C
  C190     1.0000 0.22170  0.85800  0.46790  Biso   1.000  C
  H131     1.0000 0.23070  0.89700  0.49210  Biso   1.000  H
  C191     1.0000 0.18910  0.80180  0.46870  Biso   1.000  C
  H132     1.0000 0.17640  0.80420  0.49330  Biso   1.000  H
  N59      1.0000 0.17630  0.74630  0.43530  Biso   1.000  N
  C192     1.0000 0.19520  0.74600  0.40060  Biso   1.000  C
  H133     1.0000 0.18630  0.70820  0.37590  Biso   1.000  H
  C193     1.0000 0.22670  0.79920  0.40070  Biso   1.000  C
  H134     1.0000 0.24020  0.79610  0.37680  Biso   1.000  H
  C194     1.0000 0.31100  0.12050  0.48690  Biso   1.000  C
  C195     1.0000 0.34500  0.17140  0.49120  Biso   1.000  C
  H135     1.0000 0.36410  0.15850  0.47410  Biso   1.000  H
  C196     1.0000 0.34960  0.23930  0.52040  Biso   1.000  C
  H136     1.0000 0.37270  0.27350  0.52310  Biso   1.000  H
  N60      1.0000 0.32500  0.26220  0.54540  Biso   1.000  N
  C197     1.0000 0.29240  0.21610  0.54130  Biso   1.000  C
  H137     1.0000 0.27410  0.23060  0.55920  Biso   1.000  H
  C198     1.0000 0.28460  0.14510  0.51020  Biso   1.000  C
  H138     1.0000 0.26030  0.11500  0.50600  Biso   1.000  H
  N61      1.0000 0.37550  0.29740  0.64000  Biso   1.000  N
  C199     1.0000 0.39840  0.34300  0.67030  Biso   1.000  C
  H139     1.0000 0.40050  0.40520  0.66670  Biso   1.000  H
  C200     1.0000 0.42090  0.29990  0.70970  Biso   1.000  C
  H140     1.0000 0.43770  0.33370  0.73170  Biso   1.000  H
  C201     1.0000 0.41740  0.21040  0.71440  Biso   1.000  C
  C202     1.0000 0.39620  0.16910  0.67850  Biso   1.000  C
  H141     1.0000 0.39550  0.10600  0.67860  Biso   1.000  H
  C203     1.0000 0.37540  0.21310  0.64130  Biso   1.000  C
  H142     1.0000 0.36130  0.18010  0.61700  Biso   1.000  H
  C204     1.0000 0.43820  0.16000  0.75350  Biso   1.000  C
  N62      1.0000 0.46380  0.20690  0.78360  Biso   1.000  N
  C205     1.0000 0.48350  0.15370  0.81750  Biso   1.000  C
  N63      1.0000 0.47860  0.06810  0.82160  Biso   1.000  N
  C206     1.0000 0.45270  0.03240  0.78860  Biso   1.000  C
  N64      1.0000 0.43090  0.07600  0.75540  Biso   1.000  N
  C207     1.0000 0.51110  0.19890  0.85010  Biso   1.000  C
  C208     1.0000 0.52280  0.28600  0.84620  Biso   1.000  C
  H143     1.0000 0.50970  0.31820  0.82110  Biso   1.000  H
  C209     1.0000 0.55170  0.32950  0.87530  Biso   1.000  C
  H144     1.0000 0.55790  0.38990  0.87080  Biso   1.000  H
  N65      1.0000 0.57170  0.28020  0.91190  Biso   1.000  N
  C210     1.0000 0.56120  0.20050  0.91680  Biso   1.000  C
  H145     1.0000 0.57590  0.16820  0.94110  Biso   1.000  H
  C211     1.0000 0.53100  0.15700  0.89060  Biso   1.000  C
  H146     1.0000 0.52320  0.09970  0.89890  Biso   1.000  H
  C212     1.0000 0.44790  0.93500  0.78890  Biso   1.000  C
  C213     1.0000 0.47150  0.87600  0.81710  Biso   1.000  C
  H147     1.0000 0.49040  0.89990  0.84070  Biso   1.000  H
  C214     1.0000 0.46930  0.78500  0.81330  Biso   1.000  C
  H148     1.0000 0.48620  0.74890  0.83380  Biso   1.000  H
  N66      1.0000 0.44300  0.74830  0.78020  Biso   1.000  N
  C215     1.0000 0.42100  0.80000  0.74960  Biso   1.000  C
  H149     1.0000 0.40360  0.77300  0.72570  Biso   1.000  H
  C216     1.0000 0.42280  0.89300  0.75170  Biso   1.000  C
  H150     1.0000 0.40760  0.92850  0.72900  Biso   1.000  H
  N67      1.0000 0.66380  0.25520  0.95470  Biso   1.000  N
  C217     1.0000 0.67310  0.25000  0.91480  Biso   1.000  C
  H151     1.0000 0.65770  0.27930  0.89000  Biso   1.000  H
  C218     1.0000 0.70780  0.19700  0.90940  Biso   1.000  C
  H152     1.0000 0.71640  0.19440  0.88200  Biso   1.000  H
  C219     1.0000 0.72680  0.15220  0.94750  Biso   1.000  C
  C220     1.0000 0.71470  0.15760  0.98620  Biso   1.000  C
  H153     1.0000 0.72670  0.12300  0.01110  Biso   1.000  H
  C221     1.0000 0.68400  0.21560  0.98910  Biso   1.000  C
  H154     1.0000 0.67770  0.22610  0.01740  Biso   1.000  H
  C222     1.0000 0.76060  0.09210  0.94310  Biso   1.000  C
  N68      1.0000 0.77940  0.10880  0.91010  Biso   1.000  N
  C223     1.0000 0.80740  0.05640  0.90680  Biso   1.000  C
  N69      1.0000 0.81710  0.98360  0.93200  Biso   1.000  N
  C224     1.0000 0.79560  0.96920  0.96290  Biso   1.000  C
  N70      1.0000 0.76820  0.02370  0.97230  Biso   1.000  N
  C225     1.0000 0.83180  0.07540  0.87570  Biso   1.000  C
  C226     1.0000 0.82180  0.13350  0.83850  Biso   1.000  C
  H155     1.0000 0.79750  0.16320  0.83420  Biso   1.000  H
  C227     1.0000 0.84420  0.14850  0.81000  Biso   1.000  C
  H156     1.0000 0.83510  0.18670  0.78550  Biso   1.000  H
  N71      1.0000 0.88130  0.11030  0.81420  Biso   1.000  N
  C228     1.0000 0.89080  0.05490  0.84990  Biso   1.000  C
  H157     1.0000 0.91540  0.02650  0.85450  Biso   1.000  H
  C229     1.0000 0.86820  0.03780  0.87890  Biso   1.000  C
  H158     1.0000 0.87730  0.99810  0.90280  Biso   1.000  H
  C230     1.0000 0.80370  0.88700  0.99100  Biso   1.000  C
  C231     1.0000 0.83130  0.82500  0.98230  Biso   1.000  C
  H159     1.0000 0.84420  0.83510  0.95840  Biso   1.000  H
  C232     1.0000 0.83940  0.75220  0.00750  Biso   1.000  C
  H160     1.0000 0.85910  0.71290  0.00200  Biso   1.000  H
  N72      1.0000 0.82110  0.73360  0.03910  Biso   1.000  N
  C233     1.0000 0.79340  0.78690  0.04730  Biso   1.000  C
  H161     1.0000 0.77980  0.77130  0.07010  Biso   1.000  H
  C234     1.0000 0.78330  0.86820  0.02260  Biso   1.000  C
  H162     1.0000 0.76340  0.90640  0.02830  Biso   1.000  H
  N73      1.0000 0.88360  0.68720  0.12840  Biso   1.000  N
  C235     1.0000 0.90490  0.64530  0.16190  Biso   1.000  C
  H163     1.0000 0.90560  0.58210  0.16090  Biso   1.000  H
  C236     1.0000 0.92620  0.68680  0.19810  Biso   1.000  C
  H164     1.0000 0.94080  0.65270  0.22180  Biso   1.000  H
  C237     1.0000 0.92660  0.77870  0.20050  Biso   1.000  C
  C238     1.0000 0.90680  0.82220  0.16330  Biso   1.000  C
  H165     1.0000 0.90900  0.88500  0.16160  Biso   1.000  H
  C239     1.0000 0.88400  0.77770  0.12880  Biso   1.000  C
  H166     1.0000 0.86840  0.80990  0.10510  Biso   1.000  H
  C240     1.0000 0.94770  0.82800  0.24090  Biso   1.000  C
  N74      1.0000 0.97290  0.78890  0.26940  Biso   1.000  N
  C241     1.0000 0.99010  0.83790  0.30400  Biso   1.000  C
  N75      1.0000 0.98280  0.92450  0.30940  Biso   1.000  N
  C242     1.0000 0.95460  0.95730  0.27830  Biso   1.000  C
  N76      1.0000 0.93500  0.91450  0.24310  Biso   1.000  N
  C243     1.0000 0.94520  0.05820  0.27770  Biso   1.000  C
  C244     1.0000 0.96800  0.11510  0.30520  Biso   1.000  C
  H167     1.0000 0.98910  0.09300  0.32670  Biso   1.000  H
  C245     1.0000 0.96060  0.20720  0.30210  Biso   1.000  C
  H168     1.0000 0.97750  0.24760  0.32030  Biso   1.000  H
  N77      1.0000 0.93050  0.23660  0.27420  Biso   1.000  N
  C246     1.0000 0.90790  0.17900  0.24700  Biso   1.000  C
  H169     1.0000 0.88750  0.20260  0.22510  Biso   1.000  H
  C247     1.0000 0.91240  0.08760  0.24880  Biso   1.000  C
  H170     1.0000 0.89430  0.04820  0.23160  Biso   1.000  H
  C248     1.0000 0.02420  0.79490  0.33560  Biso   1.000  C
  C249     1.0000 0.02930  0.70900  0.33370  Biso   1.000  C
  H171     1.0000 0.01130  0.67380  0.31370  Biso   1.000  H
  C250     1.0000 0.06170  0.66840  0.36120  Biso   1.000  C
  H172     1.0000 0.06750  0.60760  0.35730  Biso   1.000  H
  N78      1.0000 0.08440  0.71790  0.39320  Biso   1.000  N
  C251     1.0000 0.07850  0.80220  0.39570  Biso   1.000  C
  H173     1.0000 0.09580  0.83630  0.41720  Biso   1.000  H
  C252     1.0000 0.04680  0.84570  0.36720  Biso   1.000  C
  H174     1.0000 0.04180  0.90730  0.37020  Biso   1.000  H
  I58      1.0000 0.60213  0.33200  0.03330  Biso   1.000  I
  I59      1.0000 0.27824  0.38893  0.62764  Biso   1.000  I
  I60      1.0000 0.41230  0.91500  0.19520  Biso   1.000  I
  C253     1.0000 0.31350  0.02170  0.74200  Biso   1.000  C
  H175     1.0000 0.32160  0.99320  0.76990  Biso   1.000  H
  C254     1.0000 0.30830  0.11330  0.74000  Biso   1.000  C
  H176     1.0000 0.31300  0.14750  0.76660  Biso   1.000  H
  C255     1.0000 0.29640  0.15500  0.69910  Biso   1.000  C
  H177     1.0000 0.29280  0.21770  0.69770  Biso   1.000  H
  C256     1.0000 0.28950  0.10500  0.66020  Biso   1.000  C
  H178     1.0000 0.28140  0.13360  0.63220  Biso   1.000  H
  C257     1.0000 0.29470  0.01300  0.66220  Biso   1.000  C
  H179     1.0000 0.29000  0.97930  0.63560  Biso   1.000  H
  C258     1.0000 0.30660  0.97170  0.70310  Biso   1.000  C
  N79      1.0000 0.31160  0.87670  0.70580  Biso   1.000  N
  O13      1.0000 0.30250  0.83600  0.67130  Biso   1.000  O
  O14      1.0000 0.31900  0.84400  0.74280  Biso   1.000  O
  Zn27     1.0000 0.42970  0.88500  0.26430  Biso   1.000  Zn
  I61      1.0000 0.49010  0.97930  0.29230  Biso   1.000  I
  Zn28     1.0000 0.41000  0.88250  0.27910  Biso   1.000  Zn
  I62      1.0000 0.46990  0.98080  0.30410  Biso   1.000  I
  Zn29     1.0000 0.34670  0.38100  0.57130  Biso   1.000  Zn
  I63      1.0000 0.37390  0.50200  0.52910  Biso   1.000  I
  Zn30     1.0000 0.63520  0.34630  0.92630  Biso   1.000  Zn
  I64      1.0000 0.65120  0.49070  0.89110  Biso   1.000  I
  I65      1.0000 0.61990  0.34130  0.00390  Biso   1.000  I
  I66      1.0000 0.60850  0.20100  0.07520  Biso   1.000  I
  I67      1.0000 0.61750  0.06700  0.13750  Biso   1.000  I
  I68      1.0000 0.36890  0.90550  0.20190  Biso   1.000  I
  I69      1.0000 0.30610  0.22200  0.67210  Biso   1.000  I
  I70      1.0000 0.32710  0.06500  0.71700  Biso   1.000  I
  I71      1.0000 0.39330  0.90120  0.18470  Biso   1.000  I
  I72      1.0000 0.29690  0.41400  0.61830  Biso   1.000  I
  C259     1.0000 0.57300  0.88600  0.08100  Biso   1.000  C
  H180     1.0000 0.55970  0.84330  0.06060  Biso   1.000  H
  C260     1.0000 0.56900  0.97600  0.07200  Biso   1.000  C
  H181     1.0000 0.55230  0.99520  0.04460  Biso   1.000  H
  C261     1.0000 0.58800  0.03800  0.10100  Biso   1.000  C
  H182     1.0000 0.58490  0.10000  0.09500  Biso   1.000  H
  C262     1.0000 0.61200  0.01000  0.14100  Biso   1.000  C
  H183     1.0000 0.62490  0.05300  0.16130  Biso   1.000  H
  C263     1.0000 0.61600  0.92000  0.15000  Biso   1.000  C
  H184     1.0000 0.63230  0.90110  0.17730  Biso   1.000  H
  C264     1.0000 0.59700  0.85800  0.12050  Biso   1.000  C
  N80      1.0000 0.59810  0.76500  0.13180  Biso   1.000  N
  O15      1.0000 0.62200  0.74500  0.16520  Biso   1.000  O
  O16      1.0000 0.58600  0.71300  0.10200  Biso   1.000  O
  C265     1.0000 0.60300  0.96200  0.09000  Biso   1.000  C
  H185     1.0000 0.59090  0.93310  0.06320  Biso   1.000  H
  C266     1.0000 0.60700  0.05400  0.09100  Biso   1.000  C
  H186     1.0000 0.59790  0.08780  0.06490  Biso   1.000  H
  C267     1.0000 0.62400  0.09600  0.13000  Biso   1.000  C
  H187     1.0000 0.62710  0.15890  0.13100  Biso   1.000  H
  C268     1.0000 0.63700  0.04600  0.16900  Biso   1.000  C
  H188     1.0000 0.64930  0.07520  0.19540  Biso   1.000  H
  C269     1.0000 0.63300  0.95400  0.16800  Biso   1.000  C
  H189     1.0000 0.64230  0.92040  0.19360  Biso   1.000  H
  C270     1.0000 0.61600  0.91200  0.12800  Biso   1.000  C
  N81      1.0000 0.60700  0.81900  0.12900  Biso   1.000  N
  O17      1.0000 0.60400  0.78800  0.16500  Biso   1.000  O
  O18      1.0000 0.59300  0.78400  0.09300  Biso   1.000  O
  Zn31     1.0000 0.13130  0.83953  0.93597  Biso   1.000  Zn
  I73      1.0000 0.11704  0.83316  0.01342  Biso   1.000  I
  I74      1.0000 0.14870  0.98258  0.89966  Biso   1.000  I
  Zn32     1.0000 0.44140  0.61230  0.77610  Biso   1.000  Zn
  I75      1.0000 0.50360  0.53980  0.81760  Biso   1.000  I
  Zn33     1.0000 0.33665  0.13482  0.09186  Biso   1.000  Zn
  I76      1.0000 0.36747  0.00877  0.05622  Biso   1.000  I
  Zn34     1.0000 0.61691  0.15970  0.45510  Biso   1.000  Zn
  I77      1.0000 0.63300  0.01535  0.41886  Biso   1.000  I
  Zn35     1.0000 0.83963  0.87343  0.58218  Biso   1.000  Zn
  I78      1.0000 0.87043  0.98890  0.53984  Biso   1.000  I
  I79      1.0000 0.78731  0.89912  0.62778  Biso   1.000  I
  Zn36     1.0000 0.91382  0.12922  0.76756  Biso   1.000  Zn
  I80      1.0000 0.86835  0.10679  0.69243  Biso   1.000  I
  I81      1.0000 0.97378  0.03084  0.79043  Biso   1.000  I
  N82      1.0000 0.39860  0.58700  0.81230  Biso   1.000  N
  C271     1.0000 0.39820  0.51200  0.83350  Biso   1.000  C
  H190     1.0000 0.41560  0.46650  0.82830  Biso   1.000  H
  C272     1.0000 0.37480  0.49400  0.86240  Biso   1.000  C
  H191     1.0000 0.37820  0.44040  0.87880  Biso   1.000  H
  C273     1.0000 0.34620  0.55240  0.86870  Biso   1.000  C
  C274     1.0000 0.34480  0.62890  0.84450  Biso   1.000  C
  H192     1.0000 0.32520  0.67160  0.84620  Biso   1.000  H
  C275     1.0000 0.37110  0.64610  0.81770  Biso   1.000  C
  H193     1.0000 0.36980  0.70150  0.80260  Biso   1.000  H
  C276     1.0000 0.32190  0.53390  0.89910  Biso   1.000  C
  N83      1.0000 0.32820  0.46400  0.92570  Biso   1.000  N
  C277     1.0000 0.30710  0.45970  0.95460  Biso   1.000  C
  N84      1.0000 0.27810  0.51610  0.96130  Biso   1.000  N
  C278     1.0000 0.27250  0.58320  0.93020  Biso   1.000  C
  N85      1.0000 0.29330  0.59670  0.90100  Biso   1.000  N
  C279     1.0000 0.23890  0.64350  0.93490  Biso   1.000  C
  C280     1.0000 0.22170  0.64200  0.96790  Biso   1.000  C
  H194     1.0000 0.23070  0.60300  0.99210  Biso   1.000  H
  C281     1.0000 0.18910  0.69820  0.96870  Biso   1.000  C
  H195     1.0000 0.17640  0.69580  0.99330  Biso   1.000  H
  N86      1.0000 0.17630  0.75370  0.93530  Biso   1.000  N
  C282     1.0000 0.19520  0.75400  0.90060  Biso   1.000  C
  H196     1.0000 0.18630  0.79180  0.87590  Biso   1.000  H
  C283     1.0000 0.22670  0.70080  0.90070  Biso   1.000  C
  H197     1.0000 0.24020  0.70390  0.87680  Biso   1.000  H
  C284     1.0000 0.31100  0.37950  0.98690  Biso   1.000  C
  C285     1.0000 0.34500  0.32860  0.99120  Biso   1.000  C
  H198     1.0000 0.36410  0.34150  0.97410  Biso   1.000  H
  C286     1.0000 0.34960  0.26070  0.02040  Biso   1.000  C
  H199     1.0000 0.37270  0.22650  0.02310  Biso   1.000  H
  N87      1.0000 0.32500  0.23780  0.04540  Biso   1.000  N
  C287     1.0000 0.29240  0.28390  0.04130  Biso   1.000  C
  H200     1.0000 0.27410  0.26940  0.05920  Biso   1.000  H
  C288     1.0000 0.28460  0.35490  0.01020  Biso   1.000  C
  H201     1.0000 0.26030  0.38500  0.00600  Biso   1.000  H
  N88      1.0000 0.37550  0.20260  0.14000  Biso   1.000  N
  C289     1.0000 0.39840  0.15700  0.17030  Biso   1.000  C
  H202     1.0000 0.40050  0.09480  0.16670  Biso   1.000  H
  C290     1.0000 0.42090  0.20010  0.20970  Biso   1.000  C
  H203     1.0000 0.43770  0.16630  0.23170  Biso   1.000  H
  C291     1.0000 0.41740  0.28960  0.21440  Biso   1.000  C
  C292     1.0000 0.39620  0.33090  0.17850  Biso   1.000  C
  H204     1.0000 0.39550  0.39400  0.17860  Biso   1.000  H
  C293     1.0000 0.37540  0.28690  0.14130  Biso   1.000  C
  H205     1.0000 0.36130  0.31990  0.11700  Biso   1.000  H
  C294     1.0000 0.43820  0.34000  0.25350  Biso   1.000  C
  N89      1.0000 0.46380  0.29310  0.28360  Biso   1.000  N
  C295     1.0000 0.48350  0.34630  0.31750  Biso   1.000  C
  N90      1.0000 0.47860  0.43190  0.32160  Biso   1.000  N
  C296     1.0000 0.45270  0.46760  0.28860  Biso   1.000  C
  N91      1.0000 0.43090  0.42400  0.25540  Biso   1.000  N
  C297     1.0000 0.51110  0.30110  0.35010  Biso   1.000  C
  C298     1.0000 0.52280  0.21400  0.34620  Biso   1.000  C
  H206     1.0000 0.50970  0.18180  0.32110  Biso   1.000  H
  C299     1.0000 0.55170  0.17050  0.37530  Biso   1.000  C
  H207     1.0000 0.55790  0.11010  0.37080  Biso   1.000  H
  N92      1.0000 0.57170  0.21980  0.41190  Biso   1.000  N
  C300     1.0000 0.56120  0.29950  0.41680  Biso   1.000  C
  H208     1.0000 0.57590  0.33180  0.44110  Biso   1.000  H
  C301     1.0000 0.53100  0.34300  0.39060  Biso   1.000  C
  H209     1.0000 0.52320  0.40030  0.39890  Biso   1.000  H
  C302     1.0000 0.44790  0.56500  0.28890  Biso   1.000  C
  C303     1.0000 0.47150  0.62400  0.31710  Biso   1.000  C
  H210     1.0000 0.49040  0.60010  0.34070  Biso   1.000  H
  C304     1.0000 0.46930  0.71500  0.31330  Biso   1.000  C
  H211     1.0000 0.48620  0.75110  0.33380  Biso   1.000  H
  N93      1.0000 0.44300  0.75170  0.28020  Biso   1.000  N
  C305     1.0000 0.42100  0.70000  0.24960  Biso   1.000  C
  H212     1.0000 0.40360  0.72700  0.22570  Biso   1.000  H
  C306     1.0000 0.42280  0.60700  0.25170  Biso   1.000  C
  H213     1.0000 0.40760  0.57150  0.22900  Biso   1.000  H
  N94      1.0000 0.66380  0.24480  0.45470  Biso   1.000  N
  C307     1.0000 0.67310  0.25000  0.41480  Biso   1.000  C
  H214     1.0000 0.65770  0.22070  0.39000  Biso   1.000  H
  C308     1.0000 0.70780  0.30300  0.40940  Biso   1.000  C
  H215     1.0000 0.71640  0.30560  0.38200  Biso   1.000  H
  C309     1.0000 0.72680  0.34780  0.44750  Biso   1.000  C
  C310     1.0000 0.71470  0.34240  0.48620  Biso   1.000  C
  H216     1.0000 0.72670  0.37700  0.51110  Biso   1.000  H
  C311     1.0000 0.68400  0.28440  0.48910  Biso   1.000  C
  H217     1.0000 0.67770  0.27390  0.51740  Biso   1.000  H
  C312     1.0000 0.76060  0.40790  0.44310  Biso   1.000  C
  N95      1.0000 0.77940  0.39120  0.41010  Biso   1.000  N
  C313     1.0000 0.80740  0.44360  0.40680  Biso   1.000  C
  N96      1.0000 0.81710  0.51640  0.43200  Biso   1.000  N
  C314     1.0000 0.79560  0.53080  0.46290  Biso   1.000  C
  N97      1.0000 0.76820  0.47630  0.47230  Biso   1.000  N
  C315     1.0000 0.83180  0.42460  0.37570  Biso   1.000  C
  C316     1.0000 0.82180  0.36650  0.33850  Biso   1.000  C
  H218     1.0000 0.79750  0.33680  0.33420  Biso   1.000  H
  C317     1.0000 0.84420  0.35150  0.31000  Biso   1.000  C
  H219     1.0000 0.83510  0.31330  0.28550  Biso   1.000  H
  N98      1.0000 0.88130  0.38970  0.31420  Biso   1.000  N
  C318     1.0000 0.89080  0.44510  0.34990  Biso   1.000  C
  H220     1.0000 0.91540  0.47350  0.35450  Biso   1.000  H
  C319     1.0000 0.86820  0.46220  0.37890  Biso   1.000  C
  H221     1.0000 0.87730  0.50190  0.40280  Biso   1.000  H
  C320     1.0000 0.80370  0.61300  0.49100  Biso   1.000  C
  C321     1.0000 0.83130  0.67500  0.48230  Biso   1.000  C
  H222     1.0000 0.84420  0.66490  0.45840  Biso   1.000  H
  C322     1.0000 0.83940  0.74780  0.50750  Biso   1.000  C
  H223     1.0000 0.85910  0.78710  0.50200  Biso   1.000  H
  N99      1.0000 0.82110  0.76640  0.53910  Biso   1.000  N
  C323     1.0000 0.79340  0.71310  0.54730  Biso   1.000  C
  H224     1.0000 0.77980  0.72870  0.57010  Biso   1.000  H
  C324     1.0000 0.78330  0.63180  0.52260  Biso   1.000  C
  H225     1.0000 0.76340  0.59360  0.52830  Biso   1.000  H
  N100     1.0000 0.88360  0.81280  0.62840  Biso   1.000  N
  C325     1.0000 0.90490  0.85470  0.66190  Biso   1.000  C
  H226     1.0000 0.90560  0.91790  0.66090  Biso   1.000  H
  C326     1.0000 0.92620  0.81320  0.69810  Biso   1.000  C
  H227     1.0000 0.94080  0.84730  0.72180  Biso   1.000  H
  C327     1.0000 0.92660  0.72130  0.70050  Biso   1.000  C
  C328     1.0000 0.90680  0.67780  0.66330  Biso   1.000  C
  H228     1.0000 0.90900  0.61500  0.66160  Biso   1.000  H
  C329     1.0000 0.88400  0.72230  0.62880  Biso   1.000  C
  H229     1.0000 0.86840  0.69010  0.60510  Biso   1.000  H
  C330     1.0000 0.94770  0.67200  0.74090  Biso   1.000  C
  N101     1.0000 0.97290  0.71110  0.76940  Biso   1.000  N
  C331     1.0000 0.99010  0.66210  0.80400  Biso   1.000  C
  N102     1.0000 0.98280  0.57550  0.80940  Biso   1.000  N
  C332     1.0000 0.95460  0.54270  0.77830  Biso   1.000  C
  N103     1.0000 0.93500  0.58550  0.74310  Biso   1.000  N
  C333     1.0000 0.94520  0.44180  0.77770  Biso   1.000  C
  C334     1.0000 0.96800  0.38490  0.80520  Biso   1.000  C
  H230     1.0000 0.98910  0.40700  0.82670  Biso   1.000  H
  C335     1.0000 0.96060  0.29280  0.80210  Biso   1.000  C
  H231     1.0000 0.97750  0.25240  0.82030  Biso   1.000  H
  N104     1.0000 0.93050  0.26340  0.77420  Biso   1.000  N
  C336     1.0000 0.90790  0.32100  0.74700  Biso   1.000  C
  H232     1.0000 0.88750  0.29740  0.72510  Biso   1.000  H
  C337     1.0000 0.91240  0.41240  0.74880  Biso   1.000  C
  H233     1.0000 0.89430  0.45180  0.73160  Biso   1.000  H
  C338     1.0000 0.02420  0.70510  0.83560  Biso   1.000  C
  C339     1.0000 0.02930  0.79100  0.83370  Biso   1.000  C
  H234     1.0000 0.01130  0.82620  0.81370  Biso   1.000  H
  C340     1.0000 0.06170  0.83160  0.86120  Biso   1.000  C
  H235     1.0000 0.06750  0.89240  0.85730  Biso   1.000  H
  N105     1.0000 0.08440  0.78210  0.89320  Biso   1.000  N
  C341     1.0000 0.07850  0.69780  0.89570  Biso   1.000  C
  H236     1.0000 0.09580  0.66370  0.91720  Biso   1.000  H
  C342     1.0000 0.04680  0.65430  0.86720  Biso   1.000  C
  H237     1.0000 0.04180  0.59270  0.87020  Biso   1.000  H
  I82      1.0000 0.60213  0.16800  0.53330  Biso   1.000  I
  I83      1.0000 0.27824  0.11107  0.12764  Biso   1.000  I
  I84      1.0000 0.41230  0.58500  0.69520  Biso   1.000  I
  C343     1.0000 0.31350  0.47830  0.24200  Biso   1.000  C
  H238     1.0000 0.32160  0.50680  0.26990  Biso   1.000  H
  C344     1.0000 0.30830  0.38670  0.24000  Biso   1.000  C
  H239     1.0000 0.31300  0.35250  0.26660  Biso   1.000  H
  C345     1.0000 0.29640  0.34500  0.19910  Biso   1.000  C
  H240     1.0000 0.29280  0.28230  0.19770  Biso   1.000  H
  C346     1.0000 0.28950  0.39500  0.16020  Biso   1.000  C
  H241     1.0000 0.28140  0.36640  0.13220  Biso   1.000  H
  C347     1.0000 0.29470  0.48700  0.16220  Biso   1.000  C
  H242     1.0000 0.29000  0.52070  0.13560  Biso   1.000  H
  C348     1.0000 0.30660  0.52830  0.20310  Biso   1.000  C
  N106     1.0000 0.31160  0.62330  0.20580  Biso   1.000  N
  O19      1.0000 0.30250  0.66400  0.17130  Biso   1.000  O
  O20      1.0000 0.31900  0.65600  0.24280  Biso   1.000  O
  Zn37     1.0000 0.42970  0.61500  0.76430  Biso   1.000  Zn
  I85      1.0000 0.49010  0.52070  0.79230  Biso   1.000  I
  Zn38     1.0000 0.41000  0.61750  0.77910  Biso   1.000  Zn
  I86      1.0000 0.46990  0.51920  0.80410  Biso   1.000  I
  Zn39     1.0000 0.34670  0.11900  0.07130  Biso   1.000  Zn
  I87      1.0000 0.37390  0.99800  0.02910  Biso   1.000  I
  Zn40     1.0000 0.63520  0.15370  0.42630  Biso   1.000  Zn
  I88      1.0000 0.65120  0.00930  0.39110  Biso   1.000  I
  I89      1.0000 0.61990  0.15870  0.50390  Biso   1.000  I
  I90      1.0000 0.60850  0.29900  0.57520  Biso   1.000  I
  I91      1.0000 0.61750  0.43300  0.63750  Biso   1.000  I
  I92      1.0000 0.36890  0.59450  0.70190  Biso   1.000  I
  I93      1.0000 0.30610  0.27800  0.17210  Biso   1.000  I
  I94      1.0000 0.32710  0.43500  0.21700  Biso   1.000  I
  I95      1.0000 0.39330  0.59880  0.68470  Biso   1.000  I
  I96      1.0000 0.29690  0.08600  0.11830  Biso   1.000  I
  C349     1.0000 0.57300  0.61400  0.58100  Biso   1.000  C
  H243     1.0000 0.55970  0.65670  0.56060  Biso   1.000  H
  C350     1.0000 0.56900  0.52400  0.57200  Biso   1.000  C
  H244     1.0000 0.55230  0.50480  0.54460  Biso   1.000  H
  C351     1.0000 0.58800  0.46200  0.60100  Biso   1.000  C
  H245     1.0000 0.58490  0.40000  0.59500  Biso   1.000  H
  C352     1.0000 0.61200  0.49000  0.64100  Biso   1.000  C
  H246     1.0000 0.62490  0.44700  0.66130  Biso   1.000  H
  C353     1.0000 0.61600  0.58000  0.65000  Biso   1.000  C
  H247     1.0000 0.63230  0.59890  0.67730  Biso   1.000  H
  C354     1.0000 0.59700  0.64200  0.62050  Biso   1.000  C
  N107     1.0000 0.59810  0.73500  0.63180  Biso   1.000  N
  O21      1.0000 0.62200  0.75500  0.66520  Biso   1.000  O
  O22      1.0000 0.58600  0.78700  0.60200  Biso   1.000  O
  C355     1.0000 0.60300  0.53800  0.59000  Biso   1.000  C
  H248     1.0000 0.59090  0.56690  0.56320  Biso   1.000  H
  C356     1.0000 0.60700  0.44600  0.59100  Biso   1.000  C
  H249     1.0000 0.59790  0.41220  0.56490  Biso   1.000  H
  C357     1.0000 0.62400  0.40400  0.63000  Biso   1.000  C
  H250     1.0000 0.62710  0.34110  0.63100  Biso   1.000  H
  C358     1.0000 0.63700  0.45400  0.66900  Biso   1.000  C
  H251     1.0000 0.64930  0.42480  0.69540  Biso   1.000  H
  C359     1.0000 0.63300  0.54600  0.66800  Biso   1.000  C
  H252     1.0000 0.64230  0.57960  0.69360  Biso   1.000  H
  C360     1.0000 0.61600  0.58800  0.62800  Biso   1.000  C
  N108     1.0000 0.60700  0.68100  0.62900  Biso   1.000  N
  O23      1.0000 0.60400  0.71200  0.66500  Biso   1.000  O
  O24      1.0000 0.59300  0.71600  0.59300  Biso   1.000  O
