data_image0
_cell_length_a       35.047
_cell_length_b       15.0048
_cell_length_c       30.5654
_cell_angle_alpha    90
_cell_angle_beta     101.464
_cell_angle_gamma    90

_symmetry_space_group_name_H-M    "P 1"
_symmetry_int_tables_number       1

loop_
  _symmetry_equiv_pos_as_xyz
  'x, y, z'

loop_
  _atom_site_label
  _atom_site_occupancy
  _atom_site_fract_x
  _atom_site_fract_y
  _atom_site_fract_z
  _atom_site_thermal_displace_type
  _atom_site_B_iso_or_equiv
  _atom_site_type_symbol
  Zn1      1.0000 0.66119  0.12555  0.41741  Biso   1.000  Zn
  I1       1.0000 0.71371  0.09969  0.37181  Biso   1.000  I
  I2       1.0000 0.63042  0.01004  0.46007  Biso   1.000  I
  Zn2      1.0000 0.58634  0.86904  0.23223  Biso   1.000  Zn
  I3       1.0000 0.63238  0.89168  0.30700  Biso   1.000  I
  I4       1.0000 0.52655  0.96784  0.20981  Biso   1.000  I
  Zn3      1.0000 0.36901  0.15880  0.06404  Biso   1.000  Zn
  I5       1.0000 0.35108  0.01677  0.10115  Biso   1.000  I
  Zn4      1.0000 0.06400  0.38670  0.23040  Biso   1.000  Zn
  N1       1.0000 0.52720  0.28540  0.22950  Biso   1.000  N
  N2       1.0000 0.51650  0.42160  0.19100  Biso   1.000  N
  N3       1.0000 0.56500  0.41300  0.25680  Biso   1.000  N
  N4       1.0000 0.61890  0.18870  0.37150  Biso   1.000  N
  N5       1.0000 0.41570  0.21630  0.10600  Biso   1.000  N
  N6       1.0000 0.57090  0.73570  0.22630  Biso   1.000  N
  N7       1.0000 0.73180  0.52450  0.52770  Biso   1.000  N
  N8       1.0000 0.68270  0.48240  0.56700  Biso   1.000  N
  N9       1.0000 0.72060  0.61290  0.58740  Biso   1.000  N
  N10      1.0000 0.83740  0.75960  0.54610  Biso   1.000  N
  N11      1.0000 0.67920  0.23310  0.46040  Biso   1.000  N
  N12      1.0000 0.61900  0.61330  0.68430  Biso   1.000  N
  N13      1.0000 0.17280  0.53600  0.07180  Biso   1.000  N
  N14      1.0000 0.22320  0.48670  0.03640  Biso   1.000  N
  N15      1.0000 0.20670  0.40500  0.09610  Biso   1.000  N
  N16      1.0000 0.10230  0.41010  0.18700  Biso   1.000  N
  N17      1.0000 0.32280  0.24550  0.06380  Biso   1.000  N
  N18      1.0000 0.17670  0.76650  0.95390  Biso   1.000  N
  C1       1.0000 0.55430  0.32870  0.25890  Biso   1.000  C
  C2       1.0000 0.50910  0.33730  0.19630  Biso   1.000  C
  C3       1.0000 0.54460  0.45830  0.22230  Biso   1.000  C
  C4       1.0000 0.57430  0.27650  0.29960  Biso   1.000  C
  C5       1.0000 0.59390  0.32150  0.33440  Biso   1.000  C
  H1       1.0000 0.59270  0.38480  0.33450  Biso   1.000  H
  C6       1.0000 0.61710  0.27570  0.37200  Biso   1.000  C
  H2       1.0000 0.63090  0.30830  0.39680  Biso   1.000  H
  C7       1.0000 0.59690  0.14590  0.33730  Biso   1.000  C
  H3       1.0000 0.59700  0.08260  0.33800  Biso   1.000  H
  C8       1.0000 0.57480  0.18590  0.30190  Biso   1.000  C
  H4       1.0000 0.55960  0.15140  0.27870  Biso   1.000  H
  C9       1.0000 0.47690  0.29440  0.16300  Biso   1.000  C
  C10      1.0000 0.47140  0.20580  0.16560  Biso   1.000  C
  H5       1.0000 0.48880  0.17030  0.18630  Biso   1.000  H
  C11      1.0000 0.43990  0.16800  0.13720  Biso   1.000  C
  H6       1.0000 0.43510  0.10610  0.13970  Biso   1.000  H
  C12      1.0000 0.42160  0.30240  0.10430  Biso   1.000  C
  H7       1.0000 0.40440  0.33750  0.08320  Biso   1.000  H
  C13      1.0000 0.45250  0.34340  0.13250  Biso   1.000  C
  H8       1.0000 0.45640  0.40570  0.13030  Biso   1.000  H
  C14      1.0000 0.55420  0.55670  0.22320  Biso   1.000  C
  C15      1.0000 0.53130  0.61480  0.19420  Biso   1.000  C
  H9       1.0000 0.51000  0.59390  0.17240  Biso   1.000  H
  C16      1.0000 0.54050  0.70390  0.19790  Biso   1.000  C
  H10      1.0000 0.52410  0.74480  0.17920  Biso   1.000  H
  C17      1.0000 0.59300  0.67840  0.25150  Biso   1.000  C
  H11      1.0000 0.61580  0.69950  0.27080  Biso   1.000  H
  C18      1.0000 0.58470  0.58710  0.25150  Biso   1.000  C
  H12      1.0000 0.60080  0.54780  0.27160  Biso   1.000  H
  C19      1.0000 0.73980  0.59430  0.55530  Biso   1.000  C
  C20      1.0000 0.70370  0.46940  0.53590  Biso   1.000  C
  C21      1.0000 0.69180  0.55750  0.59170  Biso   1.000  C
  C22      1.0000 0.77280  0.65320  0.55080  Biso   1.000  C
  C23      1.0000 0.79480  0.69210  0.58980  Biso   1.000  C
  H13      1.0000 0.78880  0.68130  0.61830  Biso   1.000  H
  C24      1.0000 0.82600  0.74760  0.58470  Biso   1.000  C
  H14      1.0000 0.83970  0.77820  0.61030  Biso   1.000  H
  C25      1.0000 0.81690  0.71620  0.51040  Biso   1.000  C
  H15      1.0000 0.82400  0.72450  0.48220  Biso   1.000  H
  C26      1.0000 0.78620  0.66030  0.51280  Biso   1.000  C
  H16      1.0000 0.77440  0.62660  0.48730  Biso   1.000  H
  C27      1.0000 0.69650  0.38570  0.50950  Biso   1.000  C
  C28      1.0000 0.71550  0.36620  0.47740  Biso   1.000  C
  H17      1.0000 0.73460  0.40630  0.47110  Biso   1.000  H
  C29      1.0000 0.70780  0.28610  0.45220  Biso   1.000  C
  H18      1.0000 0.72250  0.27070  0.43030  Biso   1.000  H
  C30      1.0000 0.66190  0.24930  0.49320  Biso   1.000  C
  H19      1.0000 0.64330  0.20770  0.49960  Biso   1.000  H
  C31      1.0000 0.66940  0.32480  0.51890  Biso   1.000  C
  H20      1.0000 0.65620  0.33510  0.54280  Biso   1.000  H
  C32      1.0000 0.66810  0.57520  0.62370  Biso   1.000  C
  C33      1.0000 0.63210  0.53710  0.62100  Biso   1.000  C
  H21      1.0000 0.62310  0.49570  0.59770  Biso   1.000  H
  C34      1.0000 0.60870  0.55660  0.65080  Biso   1.000  C
  H22      1.0000 0.58400  0.52820  0.64730  Biso   1.000  H
  C35      1.0000 0.65460  0.65140  0.68910  Biso   1.000  C
  H23      1.0000 0.66300  0.68920  0.71410  Biso   1.000  H
  C36      1.0000 0.67950  0.63850  0.65960  Biso   1.000  C
  H24      1.0000 0.70340  0.67030  0.66280  Biso   1.000  H
  C37      1.0000 0.17930  0.46630  0.09770  Biso   1.000  C
  C38      1.0000 0.19420  0.54170  0.04310  Biso   1.000  C
  C39      1.0000 0.22830  0.41890  0.06580  Biso   1.000  C
  C40      1.0000 0.15330  0.44620  0.13000  Biso   1.000  C
  C41      1.0000 0.12500  0.50730  0.13610  Biso   1.000  C
  H25      1.0000 0.12250  0.56230  0.12040  Biso   1.000  H
  C42      1.0000 0.10140  0.48800  0.16420  Biso   1.000  C
  H26      1.0000 0.08290  0.53200  0.16850  Biso   1.000  H
  C43      1.0000 0.12880  0.35820  0.17960  Biso   1.000  C
  H27      1.0000 0.13040  0.30300  0.19510  Biso   1.000  H
  C44      1.0000 0.15540  0.36900  0.15280  Biso   1.000  C
  H28      1.0000 0.17430  0.32480  0.15040  Biso   1.000  H
  C45      1.0000 0.26160  0.35730  0.06410  Biso   1.000  C
  C46      1.0000 0.27360  0.30100  0.09960  Biso   1.000  C
  H29      1.0000 0.26100  0.29990  0.12440  Biso   1.000  H
  C47      1.0000 0.30520  0.24550  0.09740  Biso   1.000  C
  H30      1.0000 0.31420  0.20610  0.12160  Biso   1.000  H
  C48      1.0000 0.31030  0.29740  0.02880  Biso   1.000  C
  H31      1.0000 0.32280  0.29570  0.00390  Biso   1.000  H
  C49      1.0000 0.27800  0.35600  0.02850  Biso   1.000  C
  H32      1.0000 0.26850  0.39290  0.00340  Biso   1.000  H
  C50      1.0000 0.18950  0.62300  0.01150  Biso   1.000  C
  C51      1.0000 0.21640  0.64760  0.98870  Biso   1.000  C
  H33      1.0000 0.24070  0.61730  0.99370  Biso   1.000  H
  C52      1.0000 0.20990  0.71540  0.95840  Biso   1.000  C
  H34      1.0000 0.22840  0.72750  0.94030  Biso   1.000  H
  C53      1.0000 0.14930  0.73880  0.97790  Biso   1.000  C
  H35      1.0000 0.12500  0.76910  0.97370  Biso   1.000  H
  C54      1.0000 0.15570  0.67190  0.00640  Biso   1.000  C
  H36      1.0000 0.13670  0.65730  0.02350  Biso   1.000  H
  I6       1.0000 0.38402  0.16251  0.98687  Biso   1.000  I
  N19      1.0000 0.06820  0.92600  0.24580  Biso   1.000  N
  N20      1.0000 0.02080  0.93570  0.18050  Biso   1.000  N
  N21      1.0000 0.03330  0.79750  0.21770  Biso   1.000  N
  N22      1.0000 0.12470  0.70180  0.35990  Biso   1.000  N
  N23      1.0000 0.05670  0.25340  0.21770  Biso   1.000  N
  N24      1.0000 0.92790  0.71890  0.09120  Biso   1.000  N
  C55      1.0000 0.06030  0.84090  0.24720  Biso   1.000  C
  C56      1.0000 0.04540  0.97270  0.21240  Biso   1.000  C
  C57      1.0000 0.01560  0.85120  0.18390  Biso   1.000  C
  C58      1.0000 0.08340  0.79030  0.28480  Biso   1.000  C
  C59      1.0000 0.07790  0.70250  0.29100  Biso   1.000  C
  H37      1.0000 0.06030  0.66960  0.26930  Biso   1.000  H
  C60      1.0000 0.09810  0.65980  0.32960  Biso   1.000  C
  H38      1.0000 0.09270  0.59900  0.33440  Biso   1.000  H
  C61      1.0000 0.12610  0.78930  0.35610  Biso   1.000  C
  H39      1.0000 0.14280  0.82240  0.37860  Biso   1.000  H
  C62      1.0000 0.10490  0.83260  0.32150  Biso   1.000  C
  H40      1.0000 0.10470  0.89580  0.32220  Biso   1.000  H
  C63      1.0000 0.04980  0.06840  0.21270  Biso   1.000  C
  C64      1.0000 0.07640  0.10850  0.24730  Biso   1.000  C
  H41      1.0000 0.09280  0.07390  0.26940  Biso   1.000  H
  C65      1.0000 0.07770  0.20150  0.24810  Biso   1.000  C
  H42      1.0000 0.09480  0.22920  0.27220  Biso   1.000  H
  C66      1.0000 0.03190  0.21800  0.18600  Biso   1.000  C
  H43      1.0000 0.01610  0.25550  0.16470  Biso   1.000  H
  C67      1.0000 0.02760  0.12560  0.18190  Biso   1.000  C
  H44      1.0000 0.00930  0.10150  0.15780  Biso   1.000  H
  C68      1.0000 0.98630  0.80350  0.15100  Biso   1.000  C
  C69      1.0000 0.96720  0.84610  0.11220  Biso   1.000  C
  H45      1.0000 0.97420  0.90500  0.10550  Biso   1.000  H
  C70      1.0000 0.93910  0.80270  0.08450  Biso   1.000  C
  H46      1.0000 0.92610  0.83290  0.05850  Biso   1.000  H
  C71      1.0000 0.94710  0.67290  0.12430  Biso   1.000  C
  H47      1.0000 0.94150  0.61150  0.12750  Biso   1.000  H
  C72      1.0000 0.97690  0.71640  0.15600  Biso   1.000  C
  H48      1.0000 0.99040  0.68380  0.18090  Biso   1.000  H
  Zn5      1.0000 0.16388  0.86700  0.90670  Biso   1.000  Zn
  Zn6      1.0000 0.88445  0.83930  0.54356  Biso   1.000  Zn
  I7       1.0000 0.13197  0.99310  0.94223  Biso   1.000  I
  I8       1.0000 0.09735  0.40660  0.31040  Biso   1.000  I
  I9       1.0000 0.00230  0.46930  0.19360  Biso   1.000  I
  I10      1.0000 0.22209  0.89270  0.87123  Biso   1.000  I
  I11      1.0000 0.89984  0.82910  0.46640  Biso   1.000  I
  I12      1.0000 0.86862  0.98606  0.57936  Biso   1.000  I
  I13      1.0000 0.98149  0.71110  0.45861  Biso   1.000  I
  I14      1.0000 0.04575  0.61648  0.44668  Biso   1.000  I
  Zn7      1.0000 0.87670  0.85150  0.55570  Biso   1.000  Zn
  I15      1.0000 0.90270  0.87310  0.48490  Biso   1.000  I
  Zn8      1.0000 0.68070  0.10800  0.40240  Biso   1.000  Zn
  I16      1.0000 0.72760  0.07800  0.36270  Biso   1.000  I
  I17      1.0000 0.64240  0.98700  0.44460  Biso   1.000  I
  Zn9      1.0000 0.15990  0.85410  0.91300  Biso   1.000  Zn
  I18      1.0000 0.21680  0.90300  0.87930  Biso   1.000  I
  I19      1.0000 0.11740  0.53210  0.44250  Biso   1.000  I
  Zn10     1.0000 0.05410  0.39650  0.21210  Biso   1.000  Zn
  I20      1.0000 0.01030  0.95450  0.33130  Biso   1.000  I
  Zn11     1.0000 0.08090  0.38810  0.22930  Biso   1.000  Zn
  I21      1.0000 0.05970  0.90650  0.41160  Biso   1.000  I
  I22      1.0000 0.99330  0.82140  0.41700  Biso   1.000  I
  I23      1.0000 0.90230  0.68340  0.42770  Biso   1.000  I
  I24      1.0000 0.90070  0.52710  0.38100  Biso   1.000  I
  I25      1.0000 0.03030  0.51370  0.48040  Biso   1.000  I
  I26      1.0000 0.85710  0.98770  0.59810  Biso   1.000  I
  I27      1.0000 0.08360  0.45710  0.28740  Biso   1.000  I
  I28      1.0000 0.12500  0.41120  0.30430  Biso   1.000  I
  I29      1.0000 0.02130  0.48680  0.20870  Biso   1.000  I
  Zn12     1.0000 0.33881  0.62555  0.08259  Biso   1.000  Zn
  I30      1.0000 0.28629  0.59969  0.12819  Biso   1.000  I
  I31      1.0000 0.36958  0.51004  0.03993  Biso   1.000  I
  Zn13     1.0000 0.41366  0.36904  0.26777  Biso   1.000  Zn
  I32      1.0000 0.36762  0.39168  0.19300  Biso   1.000  I
  I33      1.0000 0.47345  0.46784  0.29019  Biso   1.000  I
  Zn14     1.0000 0.63099  0.65880  0.43596  Biso   1.000  Zn
  I34      1.0000 0.64892  0.51677  0.39885  Biso   1.000  I
  Zn15     1.0000 0.93600  0.88670  0.26960  Biso   1.000  Zn
  N25      1.0000 0.47280  0.78540  0.27050  Biso   1.000  N
  N26      1.0000 0.48350  0.92160  0.30900  Biso   1.000  N
  N27      1.0000 0.43500  0.91300  0.24320  Biso   1.000  N
  N28      1.0000 0.38110  0.68870  0.12850  Biso   1.000  N
  N29      1.0000 0.58430  0.71630  0.39400  Biso   1.000  N
  N30      1.0000 0.42910  0.23570  0.27370  Biso   1.000  N
  N31      1.0000 0.26820  0.02450  0.97230  Biso   1.000  N
  N32      1.0000 0.31730  0.98240  0.93300  Biso   1.000  N
  N33      1.0000 0.27940  0.11290  0.91260  Biso   1.000  N
  N34      1.0000 0.16260  0.25960  0.95390  Biso   1.000  N
  N35      1.0000 0.32080  0.73310  0.03960  Biso   1.000  N
  N36      1.0000 0.38100  0.11330  0.81570  Biso   1.000  N
  N37      1.0000 0.82720  0.03600  0.42820  Biso   1.000  N
  N38      1.0000 0.77680  0.98670  0.46360  Biso   1.000  N
  N39      1.0000 0.79330  0.90500  0.40390  Biso   1.000  N
  N40      1.0000 0.89770  0.91010  0.31300  Biso   1.000  N
  N41      1.0000 0.67720  0.74550  0.43620  Biso   1.000  N
  N42      1.0000 0.82330  0.26650  0.54610  Biso   1.000  N
  C73      1.0000 0.44570  0.82870  0.24110  Biso   1.000  C
  C74      1.0000 0.49090  0.83730  0.30370  Biso   1.000  C
  C75      1.0000 0.45540  0.95830  0.27770  Biso   1.000  C
  C76      1.0000 0.42570  0.77650  0.20040  Biso   1.000  C
  C77      1.0000 0.40610  0.82150  0.16560  Biso   1.000  C
  H49      1.0000 0.40730  0.88480  0.16550  Biso   1.000  H
  C78      1.0000 0.38290  0.77570  0.12800  Biso   1.000  C
  H50      1.0000 0.36910  0.80830  0.10320  Biso   1.000  H
  C79      1.0000 0.40310  0.64590  0.16270  Biso   1.000  C
  H51      1.0000 0.40300  0.58260  0.16200  Biso   1.000  H
  C80      1.0000 0.42520  0.68590  0.19810  Biso   1.000  C
  H52      1.0000 0.44040  0.65140  0.22130  Biso   1.000  H
  C81      1.0000 0.52310  0.79440  0.33700  Biso   1.000  C
  C82      1.0000 0.52860  0.70580  0.33440  Biso   1.000  C
  H53      1.0000 0.51120  0.67030  0.31370  Biso   1.000  H
  C83      1.0000 0.56010  0.66800  0.36280  Biso   1.000  C
  H54      1.0000 0.56490  0.60610  0.36030  Biso   1.000  H
  C84      1.0000 0.57840  0.80240  0.39570  Biso   1.000  C
  H55      1.0000 0.59560  0.83750  0.41680  Biso   1.000  H
  C85      1.0000 0.54750  0.84340  0.36750  Biso   1.000  C
  H56      1.0000 0.54360  0.90570  0.36970  Biso   1.000  H
  C86      1.0000 0.44580  0.05670  0.27680  Biso   1.000  C
  C87      1.0000 0.46870  0.11480  0.30580  Biso   1.000  C
  H57      1.0000 0.49000  0.09390  0.32760  Biso   1.000  H
  C88      1.0000 0.45950  0.20390  0.30210  Biso   1.000  C
  H58      1.0000 0.47590  0.24480  0.32080  Biso   1.000  H
  C89      1.0000 0.40700  0.17840  0.24850  Biso   1.000  C
  H59      1.0000 0.38420  0.19950  0.22920  Biso   1.000  H
  C90      1.0000 0.41530  0.08710  0.24850  Biso   1.000  C
  H60      1.0000 0.39920  0.04780  0.22840  Biso   1.000  H
  C91      1.0000 0.26020  0.09430  0.94470  Biso   1.000  C
  C92      1.0000 0.29630  0.96940  0.96410  Biso   1.000  C
  C93      1.0000 0.30820  0.05750  0.90830  Biso   1.000  C
  C94      1.0000 0.22720  0.15320  0.94920  Biso   1.000  C
  C95      1.0000 0.20520  0.19210  0.91020  Biso   1.000  C
  H61      1.0000 0.21120  0.18130  0.88170  Biso   1.000  H
  C96      1.0000 0.17400  0.24760  0.91530  Biso   1.000  C
  H62      1.0000 0.16030  0.27820  0.88970  Biso   1.000  H
  C97      1.0000 0.18310  0.21620  0.98960  Biso   1.000  C
  H63      1.0000 0.17600  0.22450  0.01780  Biso   1.000  H
  C98      1.0000 0.21380  0.16030  0.98720  Biso   1.000  C
  H64      1.0000 0.22560  0.12660  0.01270  Biso   1.000  H
  C99      1.0000 0.30350  0.88570  0.99050  Biso   1.000  C
  C100     1.0000 0.28450  0.86620  0.02260  Biso   1.000  C
  H65      1.0000 0.26540  0.90630  0.02890  Biso   1.000  H
  C101     1.0000 0.29220  0.78610  0.04780  Biso   1.000  C
  H66      1.0000 0.27750  0.77070  0.06970  Biso   1.000  H
  C102     1.0000 0.33810  0.74930  0.00680  Biso   1.000  C
  H67      1.0000 0.35670  0.70770  0.00040  Biso   1.000  H
  C103     1.0000 0.33060  0.82480  0.98110  Biso   1.000  C
  H68      1.0000 0.34380  0.83510  0.95720  Biso   1.000  H
  C104     1.0000 0.33190  0.07520  0.87630  Biso   1.000  C
  C105     1.0000 0.36790  0.03710  0.87900  Biso   1.000  C
  H69      1.0000 0.37690  0.99570  0.90230  Biso   1.000  H
  C106     1.0000 0.39130  0.05660  0.84920  Biso   1.000  C
  H70      1.0000 0.41600  0.02820  0.85270  Biso   1.000  H
  C107     1.0000 0.34540  0.15140  0.81090  Biso   1.000  C
  H71      1.0000 0.33700  0.18920  0.78590  Biso   1.000  H
  C108     1.0000 0.32050  0.13850  0.84040  Biso   1.000  C
  H72      1.0000 0.29660  0.17030  0.83720  Biso   1.000  H
  C109     1.0000 0.82070  0.96630  0.40230  Biso   1.000  C
  C110     1.0000 0.80580  0.04170  0.45690  Biso   1.000  C
  C111     1.0000 0.77170  0.91890  0.43420  Biso   1.000  C
  C112     1.0000 0.84670  0.94620  0.37000  Biso   1.000  C
  C113     1.0000 0.87500  0.00730  0.36390  Biso   1.000  C
  H73      1.0000 0.87750  0.06230  0.37960  Biso   1.000  H
  C114     1.0000 0.89860  0.98800  0.33580  Biso   1.000  C
  H74      1.0000 0.91710  0.03200  0.33150  Biso   1.000  H
  C115     1.0000 0.87120  0.85820  0.32040  Biso   1.000  C
  H75      1.0000 0.86960  0.80300  0.30490  Biso   1.000  H
  C116     1.0000 0.84460  0.86900  0.34720  Biso   1.000  C
  H76      1.0000 0.82570  0.82480  0.34960  Biso   1.000  H
  C117     1.0000 0.73840  0.85730  0.43590  Biso   1.000  C
  C118     1.0000 0.72640  0.80100  0.40040  Biso   1.000  C
  H77      1.0000 0.73900  0.79990  0.37560  Biso   1.000  H
  C119     1.0000 0.69480  0.74550  0.40260  Biso   1.000  C
  H78      1.0000 0.68580  0.70610  0.37840  Biso   1.000  H
  C120     1.0000 0.68970  0.79740  0.47120  Biso   1.000  C
  H79      1.0000 0.67720  0.79570  0.49610  Biso   1.000  H
  C121     1.0000 0.72200  0.85600  0.47150  Biso   1.000  C
  H80      1.0000 0.73150  0.89290  0.49660  Biso   1.000  H
  C122     1.0000 0.81050  0.12300  0.48850  Biso   1.000  C
  C123     1.0000 0.78360  0.14760  0.51130  Biso   1.000  C
  H81      1.0000 0.75930  0.11730  0.50630  Biso   1.000  H
  C124     1.0000 0.79010  0.21540  0.54160  Biso   1.000  C
  H82      1.0000 0.77160  0.22750  0.55970  Biso   1.000  H
  C125     1.0000 0.85070  0.23880  0.52210  Biso   1.000  C
  H83      1.0000 0.87500  0.26910  0.52630  Biso   1.000  H
  C126     1.0000 0.84430  0.17190  0.49360  Biso   1.000  C
  H84      1.0000 0.86330  0.15730  0.47650  Biso   1.000  H
  I35      1.0000 0.61598  0.66251  0.51313  Biso   1.000  I
  N43      1.0000 0.93180  0.42600  0.25420  Biso   1.000  N
  N44      1.0000 0.97920  0.43570  0.31950  Biso   1.000  N
  N45      1.0000 0.96670  0.29750  0.28230  Biso   1.000  N
  N46      1.0000 0.87530  0.20180  0.14010  Biso   1.000  N
  N47      1.0000 0.94330  0.75340  0.28230  Biso   1.000  N
  N48      1.0000 0.07210  0.21890  0.40880  Biso   1.000  N
  C127     1.0000 0.93970  0.34090  0.25280  Biso   1.000  C
  C128     1.0000 0.95460  0.47270  0.28760  Biso   1.000  C
  C129     1.0000 0.98440  0.35120  0.31610  Biso   1.000  C
  C130     1.0000 0.91660  0.29030  0.21520  Biso   1.000  C
  C131     1.0000 0.92210  0.20250  0.20900  Biso   1.000  C
  H85      1.0000 0.93970  0.16960  0.23070  Biso   1.000  H
  C132     1.0000 0.90190  0.15980  0.17040  Biso   1.000  C
  H86      1.0000 0.90730  0.09900  0.16560  Biso   1.000  H
  C133     1.0000 0.87390  0.28930  0.14390  Biso   1.000  C
  H87      1.0000 0.85720  0.32240  0.12140  Biso   1.000  H
  C134     1.0000 0.89510  0.33260  0.17850  Biso   1.000  C
  H88      1.0000 0.89530  0.39580  0.17780  Biso   1.000  H
  C135     1.0000 0.95020  0.56840  0.28730  Biso   1.000  C
  C136     1.0000 0.92360  0.60850  0.25270  Biso   1.000  C
  H89      1.0000 0.90720  0.57390  0.23060  Biso   1.000  H
  C137     1.0000 0.92230  0.70150  0.25190  Biso   1.000  C
  H90      1.0000 0.90520  0.72920  0.22780  Biso   1.000  H
  C138     1.0000 0.96810  0.71800  0.31400  Biso   1.000  C
  H91      1.0000 0.98390  0.75550  0.33530  Biso   1.000  H
  C139     1.0000 0.97240  0.62560  0.31810  Biso   1.000  C
  H92      1.0000 0.99070  0.60150  0.34220  Biso   1.000  H
  C140     1.0000 0.01370  0.30350  0.34900  Biso   1.000  C
  C141     1.0000 0.03280  0.34610  0.38780  Biso   1.000  C
  H93      1.0000 0.02580  0.40500  0.39450  Biso   1.000  H
  C142     1.0000 0.06090  0.30270  0.41550  Biso   1.000  C
  H94      1.0000 0.07390  0.33290  0.44150  Biso   1.000  H
  C143     1.0000 0.05290  0.17290  0.37570  Biso   1.000  C
  H95      1.0000 0.05850  0.11150  0.37250  Biso   1.000  H
  C144     1.0000 0.02310  0.21640  0.34400  Biso   1.000  C
  H96      1.0000 0.00960  0.18380  0.31910  Biso   1.000  H
  Zn16     1.0000 0.83612  0.36700  0.59330  Biso   1.000  Zn
  Zn17     1.0000 0.11555  0.33930  0.95644  Biso   1.000  Zn
  I36      1.0000 0.86803  0.49310  0.55777  Biso   1.000  I
  I37      1.0000 0.90265  0.90660  0.18960  Biso   1.000  I
  I38      1.0000 0.99770  0.96930  0.30640  Biso   1.000  I
  I39      1.0000 0.77791  0.39270  0.62877  Biso   1.000  I
  I40      1.0000 0.10016  0.32910  0.03360  Biso   1.000  I
  I41      1.0000 0.13138  0.48606  0.92064  Biso   1.000  I
  I42      1.0000 0.01851  0.21110  0.04139  Biso   1.000  I
  I43      1.0000 0.95425  0.11648  0.05332  Biso   1.000  I
  Zn18     1.0000 0.12330  0.35150  0.94430  Biso   1.000  Zn
  I44      1.0000 0.09730  0.37310  0.01510  Biso   1.000  I
  Zn19     1.0000 0.31930  0.60800  0.09760  Biso   1.000  Zn
  I45      1.0000 0.27240  0.57800  0.13730  Biso   1.000  I
  I46      1.0000 0.35760  0.48700  0.05540  Biso   1.000  I
  Zn20     1.0000 0.84010  0.35410  0.58700  Biso   1.000  Zn
  I47      1.0000 0.78320  0.40300  0.62070  Biso   1.000  I
  I48      1.0000 0.88260  0.03210  0.05750  Biso   1.000  I
  Zn21     1.0000 0.94590  0.89650  0.28790  Biso   1.000  Zn
  I49      1.0000 0.98970  0.45450  0.16870  Biso   1.000  I
  Zn22     1.0000 0.91910  0.88810  0.27070  Biso   1.000  Zn
  I50      1.0000 0.94030  0.40650  0.08840  Biso   1.000  I
  I51      1.0000 0.00670  0.32140  0.08300  Biso   1.000  I
  I52      1.0000 0.09770  0.18340  0.07230  Biso   1.000  I
  I53      1.0000 0.09930  0.02710  0.11900  Biso   1.000  I
  I54      1.0000 0.96970  0.01370  0.01960  Biso   1.000  I
  I55      1.0000 0.14290  0.48770  0.90190  Biso   1.000  I
  I56      1.0000 0.91640  0.95710  0.21260  Biso   1.000  I
  I57      1.0000 0.87500  0.91120  0.19570  Biso   1.000  I
  I58      1.0000 0.97870  0.98680  0.29130  Biso   1.000  I
  Zn23     1.0000 0.33881  0.87445  0.58259  Biso   1.000  Zn
  I59      1.0000 0.28629  0.90031  0.62819  Biso   1.000  I
  I60      1.0000 0.36958  0.98996  0.53993  Biso   1.000  I
  Zn24     1.0000 0.41366  0.13096  0.76777  Biso   1.000  Zn
  I61      1.0000 0.36762  0.10832  0.69300  Biso   1.000  I
  I62      1.0000 0.47345  0.03216  0.79019  Biso   1.000  I
  Zn25     1.0000 0.63099  0.84120  0.93596  Biso   1.000  Zn
  I63      1.0000 0.64892  0.98323  0.89885  Biso   1.000  I
  Zn26     1.0000 0.93600  0.61330  0.76960  Biso   1.000  Zn
  N49      1.0000 0.47280  0.71460  0.77050  Biso   1.000  N
  N50      1.0000 0.48350  0.57840  0.80900  Biso   1.000  N
  N51      1.0000 0.43500  0.58700  0.74320  Biso   1.000  N
  N52      1.0000 0.38110  0.81130  0.62850  Biso   1.000  N
  N53      1.0000 0.58430  0.78370  0.89400  Biso   1.000  N
  N54      1.0000 0.42910  0.26430  0.77370  Biso   1.000  N
  N55      1.0000 0.26820  0.47550  0.47230  Biso   1.000  N
  N56      1.0000 0.31730  0.51760  0.43300  Biso   1.000  N
  N57      1.0000 0.27940  0.38710  0.41260  Biso   1.000  N
  N58      1.0000 0.16260  0.24040  0.45390  Biso   1.000  N
  N59      1.0000 0.32080  0.76690  0.53960  Biso   1.000  N
  N60      1.0000 0.38100  0.38670  0.31570  Biso   1.000  N
  N61      1.0000 0.82720  0.46400  0.92820  Biso   1.000  N
  N62      1.0000 0.77680  0.51330  0.96360  Biso   1.000  N
  N63      1.0000 0.79330  0.59500  0.90390  Biso   1.000  N
  N64      1.0000 0.89770  0.58990  0.81300  Biso   1.000  N
  N65      1.0000 0.67720  0.75450  0.93620  Biso   1.000  N
  N66      1.0000 0.82330  0.23350  0.04610  Biso   1.000  N
  C145     1.0000 0.44570  0.67130  0.74110  Biso   1.000  C
  C146     1.0000 0.49090  0.66270  0.80370  Biso   1.000  C
  C147     1.0000 0.45540  0.54170  0.77770  Biso   1.000  C
  C148     1.0000 0.42570  0.72350  0.70040  Biso   1.000  C
  C149     1.0000 0.40610  0.67850  0.66560  Biso   1.000  C
  H97      1.0000 0.40730  0.61520  0.66550  Biso   1.000  H
  C150     1.0000 0.38290  0.72430  0.62800  Biso   1.000  C
  H98      1.0000 0.36910  0.69170  0.60320  Biso   1.000  H
  C151     1.0000 0.40310  0.85410  0.66270  Biso   1.000  C
  H99      1.0000 0.40300  0.91740  0.66200  Biso   1.000  H
  C152     1.0000 0.42520  0.81410  0.69810  Biso   1.000  C
  H100     1.0000 0.44040  0.84860  0.72130  Biso   1.000  H
  C153     1.0000 0.52310  0.70560  0.83700  Biso   1.000  C
  C154     1.0000 0.52860  0.79420  0.83440  Biso   1.000  C
  H101     1.0000 0.51120  0.82970  0.81370  Biso   1.000  H
  C155     1.0000 0.56010  0.83200  0.86280  Biso   1.000  C
  H102     1.0000 0.56490  0.89390  0.86030  Biso   1.000  H
  C156     1.0000 0.57840  0.69760  0.89570  Biso   1.000  C
  H103     1.0000 0.59560  0.66250  0.91680  Biso   1.000  H
  C157     1.0000 0.54750  0.65660  0.86750  Biso   1.000  C
  H104     1.0000 0.54360  0.59430  0.86970  Biso   1.000  H
  C158     1.0000 0.44580  0.44330  0.77680  Biso   1.000  C
  C159     1.0000 0.46870  0.38520  0.80580  Biso   1.000  C
  H105     1.0000 0.49000  0.40610  0.82760  Biso   1.000  H
  C160     1.0000 0.45950  0.29610  0.80210  Biso   1.000  C
  H106     1.0000 0.47590  0.25520  0.82080  Biso   1.000  H
  C161     1.0000 0.40700  0.32160  0.74850  Biso   1.000  C
  H107     1.0000 0.38420  0.30050  0.72920  Biso   1.000  H
  C162     1.0000 0.41530  0.41290  0.74850  Biso   1.000  C
  H108     1.0000 0.39920  0.45220  0.72840  Biso   1.000  H
  C163     1.0000 0.26020  0.40570  0.44470  Biso   1.000  C
  C164     1.0000 0.29630  0.53060  0.46410  Biso   1.000  C
  C165     1.0000 0.30820  0.44250  0.40830  Biso   1.000  C
  C166     1.0000 0.22720  0.34680  0.44920  Biso   1.000  C
  C167     1.0000 0.20520  0.30790  0.41020  Biso   1.000  C
  H109     1.0000 0.21120  0.31870  0.38170  Biso   1.000  H
  C168     1.0000 0.17400  0.25240  0.41530  Biso   1.000  C
  H110     1.0000 0.16030  0.22180  0.38970  Biso   1.000  H
  C169     1.0000 0.18310  0.28380  0.48960  Biso   1.000  C
  H111     1.0000 0.17600  0.27550  0.51780  Biso   1.000  H
  C170     1.0000 0.21380  0.33970  0.48720  Biso   1.000  C
  H112     1.0000 0.22560  0.37340  0.51270  Biso   1.000  H
  C171     1.0000 0.30350  0.61430  0.49050  Biso   1.000  C
  C172     1.0000 0.28450  0.63380  0.52260  Biso   1.000  C
  H113     1.0000 0.26540  0.59370  0.52890  Biso   1.000  H
  C173     1.0000 0.29220  0.71390  0.54780  Biso   1.000  C
  H114     1.0000 0.27750  0.72930  0.56970  Biso   1.000  H
  C174     1.0000 0.33810  0.75070  0.50680  Biso   1.000  C
  H115     1.0000 0.35670  0.79230  0.50040  Biso   1.000  H
  C175     1.0000 0.33060  0.67520  0.48110  Biso   1.000  C
  H116     1.0000 0.34380  0.66490  0.45720  Biso   1.000  H
  C176     1.0000 0.33190  0.42480  0.37630  Biso   1.000  C
  C177     1.0000 0.36790  0.46290  0.37900  Biso   1.000  C
  H117     1.0000 0.37690  0.50430  0.40230  Biso   1.000  H
  C178     1.0000 0.39130  0.44340  0.34920  Biso   1.000  C
  H118     1.0000 0.41600  0.47180  0.35270  Biso   1.000  H
  C179     1.0000 0.34540  0.34860  0.31090  Biso   1.000  C
  H119     1.0000 0.33700  0.31080  0.28590  Biso   1.000  H
  C180     1.0000 0.32050  0.36150  0.34040  Biso   1.000  C
  H120     1.0000 0.29660  0.32970  0.33720  Biso   1.000  H
  C181     1.0000 0.82070  0.53370  0.90230  Biso   1.000  C
  C182     1.0000 0.80580  0.45830  0.95690  Biso   1.000  C
  C183     1.0000 0.77170  0.58110  0.93420  Biso   1.000  C
  C184     1.0000 0.84670  0.55380  0.87000  Biso   1.000  C
  C185     1.0000 0.87500  0.49270  0.86390  Biso   1.000  C
  H121     1.0000 0.87750  0.43770  0.87960  Biso   1.000  H
  C186     1.0000 0.89860  0.51200  0.83580  Biso   1.000  C
  H122     1.0000 0.91710  0.46800  0.83150  Biso   1.000  H
  C187     1.0000 0.87120  0.64180  0.82040  Biso   1.000  C
  H123     1.0000 0.86960  0.69700  0.80490  Biso   1.000  H
  C188     1.0000 0.84460  0.63100  0.84720  Biso   1.000  C
  H124     1.0000 0.82570  0.67520  0.84960  Biso   1.000  H
  C189     1.0000 0.73840  0.64270  0.93590  Biso   1.000  C
  C190     1.0000 0.72640  0.69900  0.90040  Biso   1.000  C
  H125     1.0000 0.73900  0.70010  0.87560  Biso   1.000  H
  C191     1.0000 0.69480  0.75450  0.90260  Biso   1.000  C
  H126     1.0000 0.68580  0.79390  0.87840  Biso   1.000  H
  C192     1.0000 0.68970  0.70260  0.97120  Biso   1.000  C
  H127     1.0000 0.67720  0.70430  0.99610  Biso   1.000  H
  C193     1.0000 0.72200  0.64400  0.97150  Biso   1.000  C
  H128     1.0000 0.73150  0.60710  0.99660  Biso   1.000  H
  C194     1.0000 0.81050  0.37700  0.98850  Biso   1.000  C
  C195     1.0000 0.78360  0.35240  0.01130  Biso   1.000  C
  H129     1.0000 0.75930  0.38270  0.00630  Biso   1.000  H
  C196     1.0000 0.79010  0.28460  0.04160  Biso   1.000  C
  H130     1.0000 0.77160  0.27250  0.05970  Biso   1.000  H
  C197     1.0000 0.85070  0.26120  0.02210  Biso   1.000  C
  H131     1.0000 0.87500  0.23090  0.02630  Biso   1.000  H
  C198     1.0000 0.84430  0.32810  0.99360  Biso   1.000  C
  H132     1.0000 0.86330  0.34270  0.97650  Biso   1.000  H
  I64      1.0000 0.61598  0.83749  0.01313  Biso   1.000  I
  N67      1.0000 0.93180  0.07400  0.75420  Biso   1.000  N
  N68      1.0000 0.97920  0.06430  0.81950  Biso   1.000  N
  N69      1.0000 0.96670  0.20250  0.78230  Biso   1.000  N
  N70      1.0000 0.87530  0.29820  0.64010  Biso   1.000  N
  N71      1.0000 0.94330  0.74660  0.78230  Biso   1.000  N
  N72      1.0000 0.07210  0.28110  0.90880  Biso   1.000  N
  C199     1.0000 0.93970  0.15910  0.75280  Biso   1.000  C
  C200     1.0000 0.95460  0.02730  0.78760  Biso   1.000  C
  C201     1.0000 0.98440  0.14880  0.81610  Biso   1.000  C
  C202     1.0000 0.91660  0.20970  0.71520  Biso   1.000  C
  C203     1.0000 0.92210  0.29750  0.70900  Biso   1.000  C
  H133     1.0000 0.93970  0.33040  0.73070  Biso   1.000  H
  C204     1.0000 0.90190  0.34020  0.67040  Biso   1.000  C
  H134     1.0000 0.90730  0.40100  0.66560  Biso   1.000  H
  C205     1.0000 0.87390  0.21070  0.64390  Biso   1.000  C
  H135     1.0000 0.85720  0.17760  0.62140  Biso   1.000  H
  C206     1.0000 0.89510  0.16740  0.67850  Biso   1.000  C
  H136     1.0000 0.89530  0.10420  0.67780  Biso   1.000  H
  C207     1.0000 0.95020  0.93160  0.78730  Biso   1.000  C
  C208     1.0000 0.92360  0.89150  0.75270  Biso   1.000  C
  H137     1.0000 0.90720  0.92610  0.73060  Biso   1.000  H
  C209     1.0000 0.92230  0.79850  0.75190  Biso   1.000  C
  H138     1.0000 0.90520  0.77080  0.72780  Biso   1.000  H
  C210     1.0000 0.96810  0.78200  0.81400  Biso   1.000  C
  H139     1.0000 0.98390  0.74450  0.83530  Biso   1.000  H
  C211     1.0000 0.97240  0.87440  0.81810  Biso   1.000  C
  H140     1.0000 0.99070  0.89850  0.84220  Biso   1.000  H
  C212     1.0000 0.01370  0.19650  0.84900  Biso   1.000  C
  C213     1.0000 0.03280  0.15390  0.88780  Biso   1.000  C
  H141     1.0000 0.02580  0.09500  0.89450  Biso   1.000  H
  C214     1.0000 0.06090  0.19730  0.91550  Biso   1.000  C
  H142     1.0000 0.07390  0.16710  0.94150  Biso   1.000  H
  C215     1.0000 0.05290  0.32710  0.87570  Biso   1.000  C
  H143     1.0000 0.05850  0.38850  0.87250  Biso   1.000  H
  C216     1.0000 0.02310  0.28360  0.84400  Biso   1.000  C
  H144     1.0000 0.00960  0.31620  0.81910  Biso   1.000  H
  Zn27     1.0000 0.83612  0.13300  0.09330  Biso   1.000  Zn
  Zn28     1.0000 0.11555  0.16070  0.45644  Biso   1.000  Zn
  I65      1.0000 0.86803  0.00690  0.05777  Biso   1.000  I
  I66      1.0000 0.90265  0.59340  0.68960  Biso   1.000  I
  I67      1.0000 0.99770  0.53070  0.80640  Biso   1.000  I
  I68      1.0000 0.77791  0.10730  0.12877  Biso   1.000  I
  I69      1.0000 0.10016  0.17090  0.53360  Biso   1.000  I
  I70      1.0000 0.13138  0.01394  0.42064  Biso   1.000  I
  I71      1.0000 0.01851  0.28890  0.54139  Biso   1.000  I
  I72      1.0000 0.95425  0.38352  0.55332  Biso   1.000  I
  Zn29     1.0000 0.12330  0.14850  0.44430  Biso   1.000  Zn
  I73      1.0000 0.09730  0.12690  0.51510  Biso   1.000  I
  Zn30     1.0000 0.31930  0.89200  0.59760  Biso   1.000  Zn
  I74      1.0000 0.27240  0.92200  0.63730  Biso   1.000  I
  I75      1.0000 0.35760  0.01300  0.55540  Biso   1.000  I
  Zn31     1.0000 0.84010  0.14590  0.08700  Biso   1.000  Zn
  I76      1.0000 0.78320  0.09700  0.12070  Biso   1.000  I
  I77      1.0000 0.88260  0.46790  0.55750  Biso   1.000  I
  Zn32     1.0000 0.94590  0.60350  0.78790  Biso   1.000  Zn
  I78      1.0000 0.98970  0.04550  0.66870  Biso   1.000  I
  Zn33     1.0000 0.91910  0.61190  0.77070  Biso   1.000  Zn
  I79      1.0000 0.94030  0.09350  0.58840  Biso   1.000  I
  I80      1.0000 0.00670  0.17860  0.58300  Biso   1.000  I
  I81      1.0000 0.09770  0.31660  0.57230  Biso   1.000  I
  I82      1.0000 0.09930  0.47290  0.61900  Biso   1.000  I
  I83      1.0000 0.96970  0.48630  0.51960  Biso   1.000  I
  I84      1.0000 0.14290  0.01230  0.40190  Biso   1.000  I
  I85      1.0000 0.91640  0.54290  0.71260  Biso   1.000  I
  I86      1.0000 0.87500  0.58880  0.69570  Biso   1.000  I
  I87      1.0000 0.97870  0.51320  0.79130  Biso   1.000  I
  Zn34     1.0000 0.66119  0.37445  0.91741  Biso   1.000  Zn
  I88      1.0000 0.71371  0.40031  0.87181  Biso   1.000  I
  I89      1.0000 0.63042  0.48996  0.96007  Biso   1.000  I
  Zn35     1.0000 0.58634  0.63096  0.73223  Biso   1.000  Zn
  I90      1.0000 0.63238  0.60832  0.80700  Biso   1.000  I
  I91      1.0000 0.52655  0.53216  0.70981  Biso   1.000  I
  Zn36     1.0000 0.36901  0.34120  0.56404  Biso   1.000  Zn
  I92      1.0000 0.35108  0.48323  0.60115  Biso   1.000  I
  Zn37     1.0000 0.06400  0.11330  0.73040  Biso   1.000  Zn
  N73      1.0000 0.52720  0.21460  0.72950  Biso   1.000  N
  N74      1.0000 0.51650  0.07840  0.69100  Biso   1.000  N
  N75      1.0000 0.56500  0.08700  0.75680  Biso   1.000  N
  N76      1.0000 0.61890  0.31130  0.87150  Biso   1.000  N
  N77      1.0000 0.41570  0.28370  0.60600  Biso   1.000  N
  N78      1.0000 0.57090  0.76430  0.72630  Biso   1.000  N
  N79      1.0000 0.73180  0.97550  0.02770  Biso   1.000  N
  N80      1.0000 0.68270  0.01760  0.06700  Biso   1.000  N
  N81      1.0000 0.72060  0.88710  0.08740  Biso   1.000  N
  N82      1.0000 0.83740  0.74040  0.04610  Biso   1.000  N
  N83      1.0000 0.67920  0.26690  0.96040  Biso   1.000  N
  N84      1.0000 0.61900  0.88670  0.18430  Biso   1.000  N
  N85      1.0000 0.17280  0.96400  0.57180  Biso   1.000  N
  N86      1.0000 0.22320  0.01330  0.53640  Biso   1.000  N
  N87      1.0000 0.20670  0.09500  0.59610  Biso   1.000  N
  N88      1.0000 0.10230  0.08990  0.68700  Biso   1.000  N
  N89      1.0000 0.32280  0.25450  0.56380  Biso   1.000  N
  N90      1.0000 0.17670  0.73350  0.45390  Biso   1.000  N
  C217     1.0000 0.55430  0.17130  0.75890  Biso   1.000  C
  C218     1.0000 0.50910  0.16270  0.69630  Biso   1.000  C
  C219     1.0000 0.54460  0.04170  0.72230  Biso   1.000  C
  C220     1.0000 0.57430  0.22350  0.79960  Biso   1.000  C
  C221     1.0000 0.59390  0.17850  0.83440  Biso   1.000  C
  H145     1.0000 0.59270  0.11520  0.83450  Biso   1.000  H
  C222     1.0000 0.61710  0.22430  0.87200  Biso   1.000  C
  H146     1.0000 0.63090  0.19170  0.89680  Biso   1.000  H
  C223     1.0000 0.59690  0.35410  0.83730  Biso   1.000  C
  H147     1.0000 0.59700  0.41740  0.83800  Biso   1.000  H
  C224     1.0000 0.57480  0.31410  0.80190  Biso   1.000  C
  H148     1.0000 0.55960  0.34860  0.77870  Biso   1.000  H
  C225     1.0000 0.47690  0.20560  0.66300  Biso   1.000  C
  C226     1.0000 0.47140  0.29420  0.66560  Biso   1.000  C
  H149     1.0000 0.48880  0.32970  0.68630  Biso   1.000  H
  C227     1.0000 0.43990  0.33200  0.63720  Biso   1.000  C
  H150     1.0000 0.43510  0.39390  0.63970  Biso   1.000  H
  C228     1.0000 0.42160  0.19760  0.60430  Biso   1.000  C
  H151     1.0000 0.40440  0.16250  0.58320  Biso   1.000  H
  C229     1.0000 0.45250  0.15660  0.63250  Biso   1.000  C
  H152     1.0000 0.45640  0.09430  0.63030  Biso   1.000  H
  C230     1.0000 0.55420  0.94330  0.72320  Biso   1.000  C
  C231     1.0000 0.53130  0.88520  0.69420  Biso   1.000  C
  H153     1.0000 0.51000  0.90610  0.67240  Biso   1.000  H
  C232     1.0000 0.54050  0.79610  0.69790  Biso   1.000  C
  H154     1.0000 0.52410  0.75520  0.67920  Biso   1.000  H
  C233     1.0000 0.59300  0.82160  0.75150  Biso   1.000  C
  H155     1.0000 0.61580  0.80050  0.77080  Biso   1.000  H
  C234     1.0000 0.58470  0.91290  0.75150  Biso   1.000  C
  H156     1.0000 0.60080  0.95220  0.77160  Biso   1.000  H
  C235     1.0000 0.73980  0.90570  0.05530  Biso   1.000  C
  C236     1.0000 0.70370  0.03060  0.03590  Biso   1.000  C
  C237     1.0000 0.69180  0.94250  0.09170  Biso   1.000  C
  C238     1.0000 0.77280  0.84680  0.05080  Biso   1.000  C
  C239     1.0000 0.79480  0.80790  0.08980  Biso   1.000  C
  H157     1.0000 0.78880  0.81870  0.11830  Biso   1.000  H
  C240     1.0000 0.82600  0.75240  0.08470  Biso   1.000  C
  H158     1.0000 0.83970  0.72180  0.11030  Biso   1.000  H
  C241     1.0000 0.81690  0.78380  0.01040  Biso   1.000  C
  H159     1.0000 0.82400  0.77550  0.98220  Biso   1.000  H
  C242     1.0000 0.78620  0.83970  0.01280  Biso   1.000  C
  H160     1.0000 0.77440  0.87340  0.98730  Biso   1.000  H
  C243     1.0000 0.69650  0.11430  0.00950  Biso   1.000  C
  C244     1.0000 0.71550  0.13380  0.97740  Biso   1.000  C
  H161     1.0000 0.73460  0.09370  0.97110  Biso   1.000  H
  C245     1.0000 0.70780  0.21390  0.95220  Biso   1.000  C
  H162     1.0000 0.72250  0.22930  0.93030  Biso   1.000  H
  C246     1.0000 0.66190  0.25070  0.99320  Biso   1.000  C
  H163     1.0000 0.64330  0.29230  0.99960  Biso   1.000  H
  C247     1.0000 0.66940  0.17520  0.01890  Biso   1.000  C
  H164     1.0000 0.65620  0.16490  0.04280  Biso   1.000  H
  C248     1.0000 0.66810  0.92480  0.12370  Biso   1.000  C
  C249     1.0000 0.63210  0.96290  0.12100  Biso   1.000  C
  H165     1.0000 0.62310  0.00430  0.09770  Biso   1.000  H
  C250     1.0000 0.60870  0.94340  0.15080  Biso   1.000  C
  H166     1.0000 0.58400  0.97180  0.14730  Biso   1.000  H
  C251     1.0000 0.65460  0.84860  0.18910  Biso   1.000  C
  H167     1.0000 0.66300  0.81080  0.21410  Biso   1.000  H
  C252     1.0000 0.67950  0.86150  0.15960  Biso   1.000  C
  H168     1.0000 0.70340  0.82970  0.16280  Biso   1.000  H
  C253     1.0000 0.17930  0.03370  0.59770  Biso   1.000  C
  C254     1.0000 0.19420  0.95830  0.54310  Biso   1.000  C
  C255     1.0000 0.22830  0.08110  0.56580  Biso   1.000  C
  C256     1.0000 0.15330  0.05380  0.63000  Biso   1.000  C
  C257     1.0000 0.12500  0.99270  0.63610  Biso   1.000  C
  H169     1.0000 0.12250  0.93770  0.62040  Biso   1.000  H
  C258     1.0000 0.10140  0.01200  0.66420  Biso   1.000  C
  H170     1.0000 0.08290  0.96800  0.66850  Biso   1.000  H
  C259     1.0000 0.12880  0.14180  0.67960  Biso   1.000  C
  H171     1.0000 0.13040  0.19700  0.69510  Biso   1.000  H
  C260     1.0000 0.15540  0.13100  0.65280  Biso   1.000  C
  H172     1.0000 0.17430  0.17520  0.65040  Biso   1.000  H
  C261     1.0000 0.26160  0.14270  0.56410  Biso   1.000  C
  C262     1.0000 0.27360  0.19900  0.59960  Biso   1.000  C
  H173     1.0000 0.26100  0.20010  0.62440  Biso   1.000  H
  C263     1.0000 0.30520  0.25450  0.59740  Biso   1.000  C
  H174     1.0000 0.31420  0.29390  0.62160  Biso   1.000  H
  C264     1.0000 0.31030  0.20260  0.52880  Biso   1.000  C
  H175     1.0000 0.32280  0.20430  0.50390  Biso   1.000  H
  C265     1.0000 0.27800  0.14400  0.52850  Biso   1.000  C
  H176     1.0000 0.26850  0.10710  0.50340  Biso   1.000  H
  C266     1.0000 0.18950  0.87700  0.51150  Biso   1.000  C
  C267     1.0000 0.21640  0.85240  0.48870  Biso   1.000  C
  H177     1.0000 0.24070  0.88270  0.49370  Biso   1.000  H
  C268     1.0000 0.20990  0.78460  0.45840  Biso   1.000  C
  H178     1.0000 0.22840  0.77250  0.44030  Biso   1.000  H
  C269     1.0000 0.14930  0.76120  0.47790  Biso   1.000  C
  H179     1.0000 0.12500  0.73090  0.47370  Biso   1.000  H
  C270     1.0000 0.15570  0.82810  0.50640  Biso   1.000  C
  H180     1.0000 0.13670  0.84270  0.52350  Biso   1.000  H
  I93      1.0000 0.38402  0.33749  0.48687  Biso   1.000  I
  N91      1.0000 0.06820  0.57400  0.74580  Biso   1.000  N
  N92      1.0000 0.02080  0.56430  0.68050  Biso   1.000  N
  N93      1.0000 0.03330  0.70250  0.71770  Biso   1.000  N
  N94      1.0000 0.12470  0.79820  0.85990  Biso   1.000  N
  N95      1.0000 0.05670  0.24660  0.71770  Biso   1.000  N
  N96      1.0000 0.92790  0.78110  0.59120  Biso   1.000  N
  C271     1.0000 0.06030  0.65910  0.74720  Biso   1.000  C
  C272     1.0000 0.04540  0.52730  0.71240  Biso   1.000  C
  C273     1.0000 0.01560  0.64880  0.68390  Biso   1.000  C
  C274     1.0000 0.08340  0.70970  0.78480  Biso   1.000  C
  C275     1.0000 0.07790  0.79750  0.79100  Biso   1.000  C
  H181     1.0000 0.06030  0.83040  0.76930  Biso   1.000  H
  C276     1.0000 0.09810  0.84020  0.82960  Biso   1.000  C
  H182     1.0000 0.09270  0.90100  0.83440  Biso   1.000  H
  C277     1.0000 0.12610  0.71070  0.85610  Biso   1.000  C
  H183     1.0000 0.14280  0.67760  0.87860  Biso   1.000  H
  C278     1.0000 0.10490  0.66740  0.82150  Biso   1.000  C
  H184     1.0000 0.10470  0.60420  0.82220  Biso   1.000  H
  C279     1.0000 0.04980  0.43160  0.71270  Biso   1.000  C
  C280     1.0000 0.07640  0.39150  0.74730  Biso   1.000  C
  H185     1.0000 0.09280  0.42610  0.76940  Biso   1.000  H
  C281     1.0000 0.07770  0.29850  0.74810  Biso   1.000  C
  H186     1.0000 0.09480  0.27080  0.77220  Biso   1.000  H
  C282     1.0000 0.03190  0.28200  0.68600  Biso   1.000  C
  H187     1.0000 0.01610  0.24450  0.66470  Biso   1.000  H
  C283     1.0000 0.02760  0.37440  0.68190  Biso   1.000  C
  H188     1.0000 0.00930  0.39850  0.65780  Biso   1.000  H
  C284     1.0000 0.98630  0.69650  0.65100  Biso   1.000  C
  C285     1.0000 0.96720  0.65390  0.61220  Biso   1.000  C
  H189     1.0000 0.97420  0.59500  0.60550  Biso   1.000  H
  C286     1.0000 0.93910  0.69730  0.58450  Biso   1.000  C
  H190     1.0000 0.92610  0.66710  0.55850  Biso   1.000  H
  C287     1.0000 0.94710  0.82710  0.62430  Biso   1.000  C
  H191     1.0000 0.94150  0.88850  0.62750  Biso   1.000  H
  C288     1.0000 0.97690  0.78360  0.65600  Biso   1.000  C
  H192     1.0000 0.99040  0.81620  0.68090  Biso   1.000  H
  Zn38     1.0000 0.16388  0.63300  0.40670  Biso   1.000  Zn
  Zn39     1.0000 0.88445  0.66070  0.04356  Biso   1.000  Zn
  I94      1.0000 0.13197  0.50690  0.44223  Biso   1.000  I
  I95      1.0000 0.09735  0.09340  0.81040  Biso   1.000  I
  I96      1.0000 0.00230  0.03070  0.69360  Biso   1.000  I
  I97      1.0000 0.22209  0.60730  0.37123  Biso   1.000  I
  I98      1.0000 0.89984  0.67090  0.96640  Biso   1.000  I
  I99      1.0000 0.86862  0.51394  0.07936  Biso   1.000  I
  I100     1.0000 0.98149  0.78890  0.95861  Biso   1.000  I
  I101     1.0000 0.04575  0.88352  0.94668  Biso   1.000  I
  Zn40     1.0000 0.87670  0.64850  0.05570  Biso   1.000  Zn
  I102     1.0000 0.90270  0.62690  0.98490  Biso   1.000  I
  Zn41     1.0000 0.68070  0.39200  0.90240  Biso   1.000  Zn
  I103     1.0000 0.72760  0.42200  0.86270  Biso   1.000  I
  I104     1.0000 0.64240  0.51300  0.94460  Biso   1.000  I
  Zn42     1.0000 0.15990  0.64590  0.41300  Biso   1.000  Zn
  I105     1.0000 0.21680  0.59700  0.37930  Biso   1.000  I
  I106     1.0000 0.11740  0.96790  0.94250  Biso   1.000  I
  Zn43     1.0000 0.05410  0.10350  0.71210  Biso   1.000  Zn
  I107     1.0000 0.01030  0.54550  0.83130  Biso   1.000  I
  Zn44     1.0000 0.08090  0.11190  0.72930  Biso   1.000  Zn
  I108     1.0000 0.05970  0.59350  0.91160  Biso   1.000  I
  I109     1.0000 0.99330  0.67860  0.91700  Biso   1.000  I
  I110     1.0000 0.90230  0.81660  0.92770  Biso   1.000  I
  I111     1.0000 0.90070  0.97290  0.88100  Biso   1.000  I
  I112     1.0000 0.03030  0.98630  0.98040  Biso   1.000  I
  I113     1.0000 0.85710  0.51230  0.09810  Biso   1.000  I
  I114     1.0000 0.08360  0.04290  0.78740  Biso   1.000  I
  I115     1.0000 0.12500  0.08880  0.80430  Biso   1.000  I
  I116     1.0000 0.02130  0.01320  0.70870  Biso   1.000  I
