data_image0
_cell_length_a       33.5429
_cell_length_b       34.1738
_cell_length_c       24.3555
_cell_angle_alpha    90
_cell_angle_beta     90
_cell_angle_gamma    90

_symmetry_space_group_name_H-M    "P 1"
_symmetry_int_tables_number       1

loop_
  _symmetry_equiv_pos_as_xyz
  'x, y, z'

loop_
  _atom_site_label
  _atom_site_occupancy
  _atom_site_fract_x
  _atom_site_fract_y
  _atom_site_fract_z
  _atom_site_thermal_displace_type
  _atom_site_B_iso_or_equiv
  _atom_site_type_symbol
  Cd1      1.0000 0.50106  0.31729  0.31878  Biso   1.000  Cd
  Cd2      1.0000 0.60792  0.24828  0.53540  Biso   1.000  Cd
  Mg1      1.0000 0.55738  0.28181  0.42334  Biso   1.000  Mg
  O1       1.0000 0.82349  0.02346  0.70620  Biso   1.000  O
  O2       1.0000 0.57188  0.28986  0.58720  Biso   1.000  O
  O3       1.0000 0.55421  0.30135  0.50120  Biso   1.000  O
  O4       1.0000 0.80656  0.05045  0.78450  Biso   1.000  O
  O5       1.0000 0.71386  0.52783  0.51350  Biso   1.000  O
  O6       1.0000 0.68868  0.51250  0.59470  Biso   1.000  O
  O7       1.0000 0.29860  0.11790  0.58090  Biso   1.000  O
  O8       1.0000 0.29040  0.08980  0.50040  Biso   1.000  O
  O9       1.0000 0.49831  0.26685  0.42770  Biso   1.000  O
  O10      1.0000 0.46114  0.27225  0.35300  Biso   1.000  O
  O11      1.0000 0.62932  0.21976  0.61900  Biso   1.000  O
  O12      1.0000 0.65630  0.19973  0.54150  Biso   1.000  O
  O13      1.0000 0.36583  0.45343  0.67080  Biso   1.000  O
  O14      1.0000 0.39910  0.45859  0.75090  Biso   1.000  O
  O15      1.0000 0.53997  0.33752  0.39350  Biso   1.000  O
  O16      1.0000 0.55085  0.36645  0.31430  Biso   1.000  O
  C1       1.0000 0.42680  0.41890  0.68230  Biso   1.000  C
  C2       1.0000 0.45370  0.40260  0.71910  Biso   1.000  C
  H1       1.0000 0.45170  0.40850  0.75630  Biso   1.000  H
  C3       1.0000 0.46830  0.25930  0.39960  Biso   1.000  C
  C4       1.0000 0.48270  0.37820  0.70150  Biso   1.000  C
  H2       1.0000 0.50020  0.36730  0.72680  Biso   1.000  H
  C5       1.0000 0.30760  0.11530  0.53270  Biso   1.000  C
  C6       1.0000 0.51650  0.34340  0.62600  Biso   1.000  C
  H3       1.0000 0.53420  0.33220  0.65080  Biso   1.000  H
  C7       1.0000 0.55110  0.30660  0.55180  Biso   1.000  C
  C8       1.0000 0.51950  0.33460  0.57130  Biso   1.000  C
  C9       1.0000 0.48700  0.36920  0.64490  Biso   1.000  C
  C10      1.0000 0.42930  0.41060  0.62780  Biso   1.000  C
  H4       1.0000 0.41110  0.42170  0.60350  Biso   1.000  H
  C11      1.0000 0.45940  0.38520  0.60750  Biso   1.000  C
  C12      1.0000 0.46320  0.37620  0.55200  Biso   1.000  C
  H5       1.0000 0.44520  0.38700  0.52720  Biso   1.000  H
  C13      1.0000 0.49270  0.35170  0.53260  Biso   1.000  C
  H6       1.0000 0.49510  0.34650  0.49530  Biso   1.000  H
  C14      1.0000 0.39440  0.44560  0.70220  Biso   1.000  C
  C15      1.0000 0.77640  0.07350  0.69550  Biso   1.000  C
  C16      1.0000 0.77860  0.07250  0.63860  Biso   1.000  C
  H7       1.0000 0.79650  0.05570  0.62160  Biso   1.000  H
  C17      1.0000 0.75060  0.09790  0.72150  Biso   1.000  C
  H8       1.0000 0.74990  0.09870  0.75960  Biso   1.000  H
  C18      1.0000 0.75500  0.09560  0.60790  Biso   1.000  C
  H9       1.0000 0.75620  0.09450  0.56980  Biso   1.000  H
  C19      1.0000 0.72790  0.12190  0.63460  Biso   1.000  C
  C20      1.0000 0.70250  0.14740  0.60290  Biso   1.000  C
  H10      1.0000 0.70370  0.14700  0.56480  Biso   1.000  H
  C21      1.0000 0.67670  0.17200  0.62910  Biso   1.000  C
  C22      1.0000 0.67290  0.17140  0.68630  Biso   1.000  C
  H11      1.0000 0.65440  0.18750  0.70360  Biso   1.000  H
  C23      1.0000 0.69670  0.14700  0.71670  Biso   1.000  C
  H12      1.0000 0.69450  0.14670  0.75480  Biso   1.000  H
  C24      1.0000 0.72460  0.12220  0.69050  Biso   1.000  C
  C25      1.0000 0.80310  0.04800  0.73380  Biso   1.000  C
  C26      1.0000 0.65270  0.19860  0.59300  Biso   1.000  C
  C27      1.0000 0.69090  0.50840  0.54390  Biso   1.000  C
  C28      1.0000 0.66390  0.47860  0.51750  Biso   1.000  C
  C29      1.0000 0.63840  0.45530  0.55140  Biso   1.000  C
  H13      1.0000 0.63800  0.45940  0.58910  Biso   1.000  H
  C30      1.0000 0.61510  0.42760  0.52880  Biso   1.000  C
  H14      1.0000 0.59940  0.41200  0.55140  Biso   1.000  H
  C31      1.0000 0.61410  0.42180  0.47120  Biso   1.000  C
  C32      1.0000 0.58810  0.39380  0.44490  Biso   1.000  C
  H15      1.0000 0.57240  0.37750  0.46650  Biso   1.000  H
  C33      1.0000 0.58600  0.39080  0.39060  Biso   1.000  C
  C34      1.0000 0.55760  0.36300  0.36430  Biso   1.000  C
  C35      1.0000 0.61020  0.41490  0.35720  Biso   1.000  C
  H16      1.0000 0.60850  0.41280  0.31920  Biso   1.000  H
  C36      1.0000 0.63610  0.44130  0.38010  Biso   1.000  C
  H17      1.0000 0.65230  0.45660  0.35770  Biso   1.000  H
  C37      1.0000 0.63810  0.44520  0.43670  Biso   1.000  C
  C38      1.0000 0.66360  0.47320  0.46220  Biso   1.000  C
  H18      1.0000 0.68040  0.48820  0.44030  Biso   1.000  H
  C39      1.0000 0.43620  0.23020  0.41280  Biso   1.000  C
  C40      1.0000 0.37760  0.17750  0.44930  Biso   1.000  C
  C41      1.0000 0.40200  0.19650  0.49020  Biso   1.000  C
  C42      1.0000 0.38210  0.18580  0.39410  Biso   1.000  C
  H19      1.0000 0.36570  0.17370  0.36840  Biso   1.000  H
  C43      1.0000 0.41060  0.21190  0.37720  Biso   1.000  C
  H20      1.0000 0.41270  0.21740  0.33990  Biso   1.000  H
  C44      1.0000 0.34800  0.15040  0.47010  Biso   1.000  C
  H21      1.0000 0.33220  0.13670  0.44520  Biso   1.000  H
  C45      1.0000 0.43280  0.22330  0.46900  Biso   1.000  C
  H22      1.0000 0.45020  0.23560  0.49330  Biso   1.000  H
  C46      1.0000 0.34310  0.14450  0.52110  Biso   1.000  C
  C47      1.0000 0.39560  0.18820  0.54510  Biso   1.000  C
  H23      1.0000 0.41140  0.20050  0.57130  Biso   1.000  H
  C48      1.0000 0.36770  0.16350  0.56160  Biso   1.000  C
  H24      1.0000 0.36420  0.15830  0.59880  Biso   1.000  H
  C49      1.0000 0.44100  0.23310  0.49520  Biso   1.000  C
  H25      1.0000 0.45960  0.24770  0.51470  Biso   1.000  H
  C50      1.0000 0.43920  0.23530  0.43350  Biso   1.000  C
  C51      1.0000 0.41320  0.21380  0.40670  Biso   1.000  C
  H26      1.0000 0.41300  0.21420  0.36850  Biso   1.000  H
  C52      1.0000 0.38500  0.18970  0.43550  Biso   1.000  C
  C53      1.0000 0.38720  0.18730  0.49200  Biso   1.000  C
  C54      1.0000 0.41560  0.21040  0.52070  Biso   1.000  C
  H27      1.0000 0.41630  0.20920  0.55890  Biso   1.000  H
  C55      1.0000 0.35940  0.16230  0.51850  Biso   1.000  C
  H28      1.0000 0.35950  0.16150  0.55660  Biso   1.000  H
  C56      1.0000 0.33240  0.13940  0.49140  Biso   1.000  C
  C57      1.0000 0.33140  0.14220  0.43340  Biso   1.000  C
  H29      1.0000 0.31270  0.12770  0.41390  Biso   1.000  H
  C58      1.0000 0.35740  0.16600  0.40530  Biso   1.000  C
  H30      1.0000 0.35700  0.16670  0.36710  Biso   1.000  H
  C59      1.0000 0.77040  0.07630  0.72300  Biso   1.000  C
  C60      1.0000 0.74680  0.09750  0.76090  Biso   1.000  C
  H31      1.0000 0.75030  0.09390  0.79850  Biso   1.000  H
  C61      1.0000 0.71930  0.12280  0.74240  Biso   1.000  C
  H32      1.0000 0.70270  0.13530  0.76740  Biso   1.000  H
  C62      1.0000 0.76530  0.08150  0.66670  Biso   1.000  C
  H33      1.0000 0.78020  0.06630  0.64250  Biso   1.000  H
  C63      1.0000 0.74000  0.10730  0.64670  Biso   1.000  C
  C64      1.0000 0.71510  0.13050  0.68860  Biso   1.000  C
  C65      1.0000 0.68830  0.15650  0.66230  Biso   1.000  C
  H34      1.0000 0.67190  0.17090  0.68560  Biso   1.000  H
  C66      1.0000 0.68330  0.16310  0.61030  Biso   1.000  C
  C67      1.0000 0.70950  0.14170  0.57220  Biso   1.000  C
  H35      1.0000 0.70800  0.14660  0.53470  Biso   1.000  H
  C68      1.0000 0.73510  0.11520  0.59100  Biso   1.000  C
  H36      1.0000 0.75050  0.10140  0.56580  Biso   1.000  H
  Cd3      1.0000 0.50106  0.81729  0.81878  Biso   1.000  Cd
  Cd4      1.0000 0.60792  0.74828  0.03540  Biso   1.000  Cd
  Mg2      1.0000 0.55738  0.78181  0.92334  Biso   1.000  Mg
  O17      1.0000 0.82349  0.52346  0.20620  Biso   1.000  O
  O18      1.0000 0.57188  0.78986  0.08720  Biso   1.000  O
  O19      1.0000 0.55421  0.80135  0.00120  Biso   1.000  O
  O20      1.0000 0.80656  0.55045  0.28450  Biso   1.000  O
  O21      1.0000 0.71386  0.02783  0.01350  Biso   1.000  O
  O22      1.0000 0.68868  0.01250  0.09470  Biso   1.000  O
  O23      1.0000 0.29860  0.61790  0.08090  Biso   1.000  O
  O24      1.0000 0.29040  0.58980  0.00040  Biso   1.000  O
  O25      1.0000 0.49831  0.76685  0.92770  Biso   1.000  O
  O26      1.0000 0.46114  0.77225  0.85300  Biso   1.000  O
  O27      1.0000 0.62932  0.71976  0.11900  Biso   1.000  O
  O28      1.0000 0.65630  0.69973  0.04150  Biso   1.000  O
  O29      1.0000 0.36583  0.95343  0.17080  Biso   1.000  O
  O30      1.0000 0.39910  0.95859  0.25090  Biso   1.000  O
  O31      1.0000 0.53997  0.83752  0.89350  Biso   1.000  O
  O32      1.0000 0.55085  0.86645  0.81430  Biso   1.000  O
  C69      1.0000 0.42680  0.91890  0.18230  Biso   1.000  C
  C70      1.0000 0.45370  0.90260  0.21910  Biso   1.000  C
  H37      1.0000 0.45170  0.90850  0.25630  Biso   1.000  H
  C71      1.0000 0.46830  0.75930  0.89960  Biso   1.000  C
  C72      1.0000 0.48270  0.87820  0.20150  Biso   1.000  C
  H38      1.0000 0.50020  0.86730  0.22680  Biso   1.000  H
  C73      1.0000 0.30760  0.61530  0.03270  Biso   1.000  C
  C74      1.0000 0.51650  0.84340  0.12600  Biso   1.000  C
  H39      1.0000 0.53420  0.83220  0.15080  Biso   1.000  H
  C75      1.0000 0.55110  0.80660  0.05180  Biso   1.000  C
  C76      1.0000 0.51950  0.83460  0.07130  Biso   1.000  C
  C77      1.0000 0.48700  0.86920  0.14490  Biso   1.000  C
  C78      1.0000 0.42930  0.91060  0.12780  Biso   1.000  C
  H40      1.0000 0.41110  0.92170  0.10350  Biso   1.000  H
  C79      1.0000 0.45940  0.88520  0.10750  Biso   1.000  C
  C80      1.0000 0.46320  0.87620  0.05200  Biso   1.000  C
  H41      1.0000 0.44520  0.88700  0.02720  Biso   1.000  H
  C81      1.0000 0.49270  0.85170  0.03260  Biso   1.000  C
  H42      1.0000 0.49510  0.84650  0.99530  Biso   1.000  H
  C82      1.0000 0.39440  0.94560  0.20220  Biso   1.000  C
  C83      1.0000 0.77640  0.57350  0.19550  Biso   1.000  C
  C84      1.0000 0.77860  0.57250  0.13860  Biso   1.000  C
  H43      1.0000 0.79650  0.55570  0.12160  Biso   1.000  H
  C85      1.0000 0.75060  0.59790  0.22150  Biso   1.000  C
  H44      1.0000 0.74990  0.59870  0.25960  Biso   1.000  H
  C86      1.0000 0.75500  0.59560  0.10790  Biso   1.000  C
  H45      1.0000 0.75620  0.59450  0.06980  Biso   1.000  H
  C87      1.0000 0.72790  0.62190  0.13460  Biso   1.000  C
  C88      1.0000 0.70250  0.64740  0.10290  Biso   1.000  C
  H46      1.0000 0.70370  0.64700  0.06480  Biso   1.000  H
  C89      1.0000 0.67670  0.67200  0.12910  Biso   1.000  C
  C90      1.0000 0.67290  0.67140  0.18630  Biso   1.000  C
  H47      1.0000 0.65440  0.68750  0.20360  Biso   1.000  H
  C91      1.0000 0.69670  0.64700  0.21670  Biso   1.000  C
  H48      1.0000 0.69450  0.64670  0.25480  Biso   1.000  H
  C92      1.0000 0.72460  0.62220  0.19050  Biso   1.000  C
  C93      1.0000 0.80310  0.54800  0.23380  Biso   1.000  C
  C94      1.0000 0.65270  0.69860  0.09300  Biso   1.000  C
  C95      1.0000 0.69090  0.00840  0.04390  Biso   1.000  C
  C96      1.0000 0.66390  0.97860  0.01750  Biso   1.000  C
  C97      1.0000 0.63840  0.95530  0.05140  Biso   1.000  C
  H49      1.0000 0.63800  0.95940  0.08910  Biso   1.000  H
  C98      1.0000 0.61510  0.92760  0.02880  Biso   1.000  C
  H50      1.0000 0.59940  0.91200  0.05140  Biso   1.000  H
  C99      1.0000 0.61410  0.92180  0.97120  Biso   1.000  C
  C100     1.0000 0.58810  0.89380  0.94490  Biso   1.000  C
  H51      1.0000 0.57240  0.87750  0.96650  Biso   1.000  H
  C101     1.0000 0.58600  0.89080  0.89060  Biso   1.000  C
  C102     1.0000 0.55760  0.86300  0.86430  Biso   1.000  C
  C103     1.0000 0.61020  0.91490  0.85720  Biso   1.000  C
  H52      1.0000 0.60850  0.91280  0.81920  Biso   1.000  H
  C104     1.0000 0.63610  0.94130  0.88010  Biso   1.000  C
  H53      1.0000 0.65230  0.95660  0.85770  Biso   1.000  H
  C105     1.0000 0.63810  0.94520  0.93670  Biso   1.000  C
  C106     1.0000 0.66360  0.97320  0.96220  Biso   1.000  C
  H54      1.0000 0.68040  0.98820  0.94030  Biso   1.000  H
  C107     1.0000 0.43620  0.73020  0.91280  Biso   1.000  C
  C108     1.0000 0.37760  0.67750  0.94930  Biso   1.000  C
  C109     1.0000 0.40200  0.69650  0.99020  Biso   1.000  C
  C110     1.0000 0.38210  0.68580  0.89410  Biso   1.000  C
  H55      1.0000 0.36570  0.67370  0.86840  Biso   1.000  H
  C111     1.0000 0.41060  0.71190  0.87720  Biso   1.000  C
  H56      1.0000 0.41270  0.71740  0.83990  Biso   1.000  H
  C112     1.0000 0.34800  0.65040  0.97010  Biso   1.000  C
  H57      1.0000 0.33220  0.63670  0.94520  Biso   1.000  H
  C113     1.0000 0.43280  0.72330  0.96900  Biso   1.000  C
  H58      1.0000 0.45020  0.73560  0.99330  Biso   1.000  H
  C114     1.0000 0.34310  0.64450  0.02110  Biso   1.000  C
  C115     1.0000 0.39560  0.68820  0.04510  Biso   1.000  C
  H59      1.0000 0.41140  0.70050  0.07130  Biso   1.000  H
  C116     1.0000 0.36770  0.66350  0.06160  Biso   1.000  C
  H60      1.0000 0.36420  0.65830  0.09880  Biso   1.000  H
  C117     1.0000 0.44100  0.73310  0.99520  Biso   1.000  C
  H61      1.0000 0.45960  0.74770  0.01470  Biso   1.000  H
  C118     1.0000 0.43920  0.73530  0.93350  Biso   1.000  C
  C119     1.0000 0.41320  0.71380  0.90670  Biso   1.000  C
  H62      1.0000 0.41300  0.71420  0.86850  Biso   1.000  H
  C120     1.0000 0.38500  0.68970  0.93550  Biso   1.000  C
  C121     1.0000 0.38720  0.68730  0.99200  Biso   1.000  C
  C122     1.0000 0.41560  0.71040  0.02070  Biso   1.000  C
  H63      1.0000 0.41630  0.70920  0.05890  Biso   1.000  H
  C123     1.0000 0.35940  0.66230  0.01850  Biso   1.000  C
  H64      1.0000 0.35950  0.66150  0.05660  Biso   1.000  H
  C124     1.0000 0.33240  0.63940  0.99140  Biso   1.000  C
  C125     1.0000 0.33140  0.64220  0.93340  Biso   1.000  C
  H65      1.0000 0.31270  0.62770  0.91390  Biso   1.000  H
  C126     1.0000 0.35740  0.66600  0.90530  Biso   1.000  C
  H66      1.0000 0.35700  0.66670  0.86710  Biso   1.000  H
  C127     1.0000 0.77040  0.57630  0.22300  Biso   1.000  C
  C128     1.0000 0.74680  0.59750  0.26090  Biso   1.000  C
  H67      1.0000 0.75030  0.59390  0.29850  Biso   1.000  H
  C129     1.0000 0.71930  0.62280  0.24240  Biso   1.000  C
  H68      1.0000 0.70270  0.63530  0.26740  Biso   1.000  H
  C130     1.0000 0.76530  0.58150  0.16670  Biso   1.000  C
  H69      1.0000 0.78020  0.56630  0.14250  Biso   1.000  H
  C131     1.0000 0.74000  0.60730  0.14670  Biso   1.000  C
  C132     1.0000 0.71510  0.63050  0.18860  Biso   1.000  C
  C133     1.0000 0.68830  0.65650  0.16230  Biso   1.000  C
  H70      1.0000 0.67190  0.67090  0.18560  Biso   1.000  H
  C134     1.0000 0.68330  0.66310  0.11030  Biso   1.000  C
  C135     1.0000 0.70950  0.64170  0.07220  Biso   1.000  C
  H71      1.0000 0.70800  0.64660  0.03470  Biso   1.000  H
  C136     1.0000 0.73510  0.61520  0.09100  Biso   1.000  C
  H72      1.0000 0.75050  0.60140  0.06580  Biso   1.000  H
  Cd5      1.0000 0.00106  0.31729  0.81878  Biso   1.000  Cd
  Cd6      1.0000 0.10792  0.24828  0.03540  Biso   1.000  Cd
  Mg3      1.0000 0.05738  0.28181  0.92334  Biso   1.000  Mg
  O33      1.0000 0.32349  0.02346  0.20620  Biso   1.000  O
  O34      1.0000 0.07188  0.28986  0.08720  Biso   1.000  O
  O35      1.0000 0.05421  0.30135  0.00120  Biso   1.000  O
  O36      1.0000 0.30656  0.05045  0.28450  Biso   1.000  O
  O37      1.0000 0.21386  0.52783  0.01350  Biso   1.000  O
  O38      1.0000 0.18868  0.51250  0.09470  Biso   1.000  O
  O39      1.0000 0.79860  0.11790  0.08090  Biso   1.000  O
  O40      1.0000 0.79040  0.08980  0.00040  Biso   1.000  O
  O41      1.0000 0.99831  0.26685  0.92770  Biso   1.000  O
  O42      1.0000 0.96114  0.27225  0.85300  Biso   1.000  O
  O43      1.0000 0.12932  0.21976  0.11900  Biso   1.000  O
  O44      1.0000 0.15630  0.19973  0.04150  Biso   1.000  O
  O45      1.0000 0.86583  0.45343  0.17080  Biso   1.000  O
  O46      1.0000 0.89910  0.45859  0.25090  Biso   1.000  O
  O47      1.0000 0.03997  0.33752  0.89350  Biso   1.000  O
  O48      1.0000 0.05085  0.36645  0.81430  Biso   1.000  O
  C137     1.0000 0.92680  0.41890  0.18230  Biso   1.000  C
  C138     1.0000 0.95370  0.40260  0.21910  Biso   1.000  C
  H73      1.0000 0.95170  0.40850  0.25630  Biso   1.000  H
  C139     1.0000 0.96830  0.25930  0.89960  Biso   1.000  C
  C140     1.0000 0.98270  0.37820  0.20150  Biso   1.000  C
  H74      1.0000 0.00020  0.36730  0.22680  Biso   1.000  H
  C141     1.0000 0.80760  0.11530  0.03270  Biso   1.000  C
  C142     1.0000 0.01650  0.34340  0.12600  Biso   1.000  C
  H75      1.0000 0.03420  0.33220  0.15080  Biso   1.000  H
  C143     1.0000 0.05110  0.30660  0.05180  Biso   1.000  C
  C144     1.0000 0.01950  0.33460  0.07130  Biso   1.000  C
  C145     1.0000 0.98700  0.36920  0.14490  Biso   1.000  C
  C146     1.0000 0.92930  0.41060  0.12780  Biso   1.000  C
  H76      1.0000 0.91110  0.42170  0.10350  Biso   1.000  H
  C147     1.0000 0.95940  0.38520  0.10750  Biso   1.000  C
  C148     1.0000 0.96320  0.37620  0.05200  Biso   1.000  C
  H77      1.0000 0.94520  0.38700  0.02720  Biso   1.000  H
  C149     1.0000 0.99270  0.35170  0.03260  Biso   1.000  C
  H78      1.0000 0.99510  0.34650  0.99530  Biso   1.000  H
  C150     1.0000 0.89440  0.44560  0.20220  Biso   1.000  C
  C151     1.0000 0.27640  0.07350  0.19550  Biso   1.000  C
  C152     1.0000 0.27860  0.07250  0.13860  Biso   1.000  C
  H79      1.0000 0.29650  0.05570  0.12160  Biso   1.000  H
  C153     1.0000 0.25060  0.09790  0.22150  Biso   1.000  C
  H80      1.0000 0.24990  0.09870  0.25960  Biso   1.000  H
  C154     1.0000 0.25500  0.09560  0.10790  Biso   1.000  C
  H81      1.0000 0.25620  0.09450  0.06980  Biso   1.000  H
  C155     1.0000 0.22790  0.12190  0.13460  Biso   1.000  C
  C156     1.0000 0.20250  0.14740  0.10290  Biso   1.000  C
  H82      1.0000 0.20370  0.14700  0.06480  Biso   1.000  H
  C157     1.0000 0.17670  0.17200  0.12910  Biso   1.000  C
  C158     1.0000 0.17290  0.17140  0.18630  Biso   1.000  C
  H83      1.0000 0.15440  0.18750  0.20360  Biso   1.000  H
  C159     1.0000 0.19670  0.14700  0.21670  Biso   1.000  C
  H84      1.0000 0.19450  0.14670  0.25480  Biso   1.000  H
  C160     1.0000 0.22460  0.12220  0.19050  Biso   1.000  C
  C161     1.0000 0.30310  0.04800  0.23380  Biso   1.000  C
  C162     1.0000 0.15270  0.19860  0.09300  Biso   1.000  C
  C163     1.0000 0.19090  0.50840  0.04390  Biso   1.000  C
  C164     1.0000 0.16390  0.47860  0.01750  Biso   1.000  C
  C165     1.0000 0.13840  0.45530  0.05140  Biso   1.000  C
  H85      1.0000 0.13800  0.45940  0.08910  Biso   1.000  H
  C166     1.0000 0.11510  0.42760  0.02880  Biso   1.000  C
  H86      1.0000 0.09940  0.41200  0.05140  Biso   1.000  H
  C167     1.0000 0.11410  0.42180  0.97120  Biso   1.000  C
  C168     1.0000 0.08810  0.39380  0.94490  Biso   1.000  C
  H87      1.0000 0.07240  0.37750  0.96650  Biso   1.000  H
  C169     1.0000 0.08600  0.39080  0.89060  Biso   1.000  C
  C170     1.0000 0.05760  0.36300  0.86430  Biso   1.000  C
  C171     1.0000 0.11020  0.41490  0.85720  Biso   1.000  C
  H88      1.0000 0.10850  0.41280  0.81920  Biso   1.000  H
  C172     1.0000 0.13610  0.44130  0.88010  Biso   1.000  C
  H89      1.0000 0.15230  0.45660  0.85770  Biso   1.000  H
  C173     1.0000 0.13810  0.44520  0.93670  Biso   1.000  C
  C174     1.0000 0.16360  0.47320  0.96220  Biso   1.000  C
  H90      1.0000 0.18040  0.48820  0.94030  Biso   1.000  H
  C175     1.0000 0.93620  0.23020  0.91280  Biso   1.000  C
  C176     1.0000 0.87760  0.17750  0.94930  Biso   1.000  C
  C177     1.0000 0.90200  0.19650  0.99020  Biso   1.000  C
  C178     1.0000 0.88210  0.18580  0.89410  Biso   1.000  C
  H91      1.0000 0.86570  0.17370  0.86840  Biso   1.000  H
  C179     1.0000 0.91060  0.21190  0.87720  Biso   1.000  C
  H92      1.0000 0.91270  0.21740  0.83990  Biso   1.000  H
  C180     1.0000 0.84800  0.15040  0.97010  Biso   1.000  C
  H93      1.0000 0.83220  0.13670  0.94520  Biso   1.000  H
  C181     1.0000 0.93280  0.22330  0.96900  Biso   1.000  C
  H94      1.0000 0.95020  0.23560  0.99330  Biso   1.000  H
  C182     1.0000 0.84310  0.14450  0.02110  Biso   1.000  C
  C183     1.0000 0.89560  0.18820  0.04510  Biso   1.000  C
  H95      1.0000 0.91140  0.20050  0.07130  Biso   1.000  H
  C184     1.0000 0.86770  0.16350  0.06160  Biso   1.000  C
  H96      1.0000 0.86420  0.15830  0.09880  Biso   1.000  H
  C185     1.0000 0.94100  0.23310  0.99520  Biso   1.000  C
  H97      1.0000 0.95960  0.24770  0.01470  Biso   1.000  H
  C186     1.0000 0.93920  0.23530  0.93350  Biso   1.000  C
  C187     1.0000 0.91320  0.21380  0.90670  Biso   1.000  C
  H98      1.0000 0.91300  0.21420  0.86850  Biso   1.000  H
  C188     1.0000 0.88500  0.18970  0.93550  Biso   1.000  C
  C189     1.0000 0.88720  0.18730  0.99200  Biso   1.000  C
  C190     1.0000 0.91560  0.21040  0.02070  Biso   1.000  C
  H99      1.0000 0.91630  0.20920  0.05890  Biso   1.000  H
  C191     1.0000 0.85940  0.16230  0.01850  Biso   1.000  C
  H100     1.0000 0.85950  0.16150  0.05660  Biso   1.000  H
  C192     1.0000 0.83240  0.13940  0.99140  Biso   1.000  C
  C193     1.0000 0.83140  0.14220  0.93340  Biso   1.000  C
  H101     1.0000 0.81270  0.12770  0.91390  Biso   1.000  H
  C194     1.0000 0.85740  0.16600  0.90530  Biso   1.000  C
  H102     1.0000 0.85700  0.16670  0.86710  Biso   1.000  H
  C195     1.0000 0.27040  0.07630  0.22300  Biso   1.000  C
  C196     1.0000 0.24680  0.09750  0.26090  Biso   1.000  C
  H103     1.0000 0.25030  0.09390  0.29850  Biso   1.000  H
  C197     1.0000 0.21930  0.12280  0.24240  Biso   1.000  C
  H104     1.0000 0.20270  0.13530  0.26740  Biso   1.000  H
  C198     1.0000 0.26530  0.08150  0.16670  Biso   1.000  C
  H105     1.0000 0.28020  0.06630  0.14250  Biso   1.000  H
  C199     1.0000 0.24000  0.10730  0.14670  Biso   1.000  C
  C200     1.0000 0.21510  0.13050  0.18860  Biso   1.000  C
  C201     1.0000 0.18830  0.15650  0.16230  Biso   1.000  C
  H106     1.0000 0.17190  0.17090  0.18560  Biso   1.000  H
  C202     1.0000 0.18330  0.16310  0.11030  Biso   1.000  C
  C203     1.0000 0.20950  0.14170  0.07220  Biso   1.000  C
  H107     1.0000 0.20800  0.14660  0.03470  Biso   1.000  H
  C204     1.0000 0.23510  0.11520  0.09100  Biso   1.000  C
  H108     1.0000 0.25050  0.10140  0.06580  Biso   1.000  H
  Cd7      1.0000 0.00106  0.81729  0.31878  Biso   1.000  Cd
  Cd8      1.0000 0.10792  0.74828  0.53540  Biso   1.000  Cd
  Mg4      1.0000 0.05738  0.78181  0.42334  Biso   1.000  Mg
  O49      1.0000 0.32349  0.52346  0.70620  Biso   1.000  O
  O50      1.0000 0.07188  0.78986  0.58720  Biso   1.000  O
  O51      1.0000 0.05421  0.80135  0.50120  Biso   1.000  O
  O52      1.0000 0.30656  0.55045  0.78450  Biso   1.000  O
  O53      1.0000 0.21386  0.02783  0.51350  Biso   1.000  O
  O54      1.0000 0.18868  0.01250  0.59470  Biso   1.000  O
  O55      1.0000 0.79860  0.61790  0.58090  Biso   1.000  O
  O56      1.0000 0.79040  0.58980  0.50040  Biso   1.000  O
  O57      1.0000 0.99831  0.76685  0.42770  Biso   1.000  O
  O58      1.0000 0.96114  0.77225  0.35300  Biso   1.000  O
  O59      1.0000 0.12932  0.71976  0.61900  Biso   1.000  O
  O60      1.0000 0.15630  0.69973  0.54150  Biso   1.000  O
  O61      1.0000 0.86583  0.95343  0.67080  Biso   1.000  O
  O62      1.0000 0.89910  0.95859  0.75090  Biso   1.000  O
  O63      1.0000 0.03997  0.83752  0.39350  Biso   1.000  O
  O64      1.0000 0.05085  0.86645  0.31430  Biso   1.000  O
  C205     1.0000 0.92680  0.91890  0.68230  Biso   1.000  C
  C206     1.0000 0.95370  0.90260  0.71910  Biso   1.000  C
  H109     1.0000 0.95170  0.90850  0.75630  Biso   1.000  H
  C207     1.0000 0.96830  0.75930  0.39960  Biso   1.000  C
  C208     1.0000 0.98270  0.87820  0.70150  Biso   1.000  C
  H110     1.0000 0.00020  0.86730  0.72680  Biso   1.000  H
  C209     1.0000 0.80760  0.61530  0.53270  Biso   1.000  C
  C210     1.0000 0.01650  0.84340  0.62600  Biso   1.000  C
  H111     1.0000 0.03420  0.83220  0.65080  Biso   1.000  H
  C211     1.0000 0.05110  0.80660  0.55180  Biso   1.000  C
  C212     1.0000 0.01950  0.83460  0.57130  Biso   1.000  C
  C213     1.0000 0.98700  0.86920  0.64490  Biso   1.000  C
  C214     1.0000 0.92930  0.91060  0.62780  Biso   1.000  C
  H112     1.0000 0.91110  0.92170  0.60350  Biso   1.000  H
  C215     1.0000 0.95940  0.88520  0.60750  Biso   1.000  C
  C216     1.0000 0.96320  0.87620  0.55200  Biso   1.000  C
  H113     1.0000 0.94520  0.88700  0.52720  Biso   1.000  H
  C217     1.0000 0.99270  0.85170  0.53260  Biso   1.000  C
  H114     1.0000 0.99510  0.84650  0.49530  Biso   1.000  H
  C218     1.0000 0.89440  0.94560  0.70220  Biso   1.000  C
  C219     1.0000 0.27640  0.57350  0.69550  Biso   1.000  C
  C220     1.0000 0.27860  0.57250  0.63860  Biso   1.000  C
  H115     1.0000 0.29650  0.55570  0.62160  Biso   1.000  H
  C221     1.0000 0.25060  0.59790  0.72150  Biso   1.000  C
  H116     1.0000 0.24990  0.59870  0.75960  Biso   1.000  H
  C222     1.0000 0.25500  0.59560  0.60790  Biso   1.000  C
  H117     1.0000 0.25620  0.59450  0.56980  Biso   1.000  H
  C223     1.0000 0.22790  0.62190  0.63460  Biso   1.000  C
  C224     1.0000 0.20250  0.64740  0.60290  Biso   1.000  C
  H118     1.0000 0.20370  0.64700  0.56480  Biso   1.000  H
  C225     1.0000 0.17670  0.67200  0.62910  Biso   1.000  C
  C226     1.0000 0.17290  0.67140  0.68630  Biso   1.000  C
  H119     1.0000 0.15440  0.68750  0.70360  Biso   1.000  H
  C227     1.0000 0.19670  0.64700  0.71670  Biso   1.000  C
  H120     1.0000 0.19450  0.64670  0.75480  Biso   1.000  H
  C228     1.0000 0.22460  0.62220  0.69050  Biso   1.000  C
  C229     1.0000 0.30310  0.54800  0.73380  Biso   1.000  C
  C230     1.0000 0.15270  0.69860  0.59300  Biso   1.000  C
  C231     1.0000 0.19090  0.00840  0.54390  Biso   1.000  C
  C232     1.0000 0.16390  0.97860  0.51750  Biso   1.000  C
  C233     1.0000 0.13840  0.95530  0.55140  Biso   1.000  C
  H121     1.0000 0.13800  0.95940  0.58910  Biso   1.000  H
  C234     1.0000 0.11510  0.92760  0.52880  Biso   1.000  C
  H122     1.0000 0.09940  0.91200  0.55140  Biso   1.000  H
  C235     1.0000 0.11410  0.92180  0.47120  Biso   1.000  C
  C236     1.0000 0.08810  0.89380  0.44490  Biso   1.000  C
  H123     1.0000 0.07240  0.87750  0.46650  Biso   1.000  H
  C237     1.0000 0.08600  0.89080  0.39060  Biso   1.000  C
  C238     1.0000 0.05760  0.86300  0.36430  Biso   1.000  C
  C239     1.0000 0.11020  0.91490  0.35720  Biso   1.000  C
  H124     1.0000 0.10850  0.91280  0.31920  Biso   1.000  H
  C240     1.0000 0.13610  0.94130  0.38010  Biso   1.000  C
  H125     1.0000 0.15230  0.95660  0.35770  Biso   1.000  H
  C241     1.0000 0.13810  0.94520  0.43670  Biso   1.000  C
  C242     1.0000 0.16360  0.97320  0.46220  Biso   1.000  C
  H126     1.0000 0.18040  0.98820  0.44030  Biso   1.000  H
  C243     1.0000 0.93620  0.73020  0.41280  Biso   1.000  C
  C244     1.0000 0.87760  0.67750  0.44930  Biso   1.000  C
  C245     1.0000 0.90200  0.69650  0.49020  Biso   1.000  C
  C246     1.0000 0.88210  0.68580  0.39410  Biso   1.000  C
  H127     1.0000 0.86570  0.67370  0.36840  Biso   1.000  H
  C247     1.0000 0.91060  0.71190  0.37720  Biso   1.000  C
  H128     1.0000 0.91270  0.71740  0.33990  Biso   1.000  H
  C248     1.0000 0.84800  0.65040  0.47010  Biso   1.000  C
  H129     1.0000 0.83220  0.63670  0.44520  Biso   1.000  H
  C249     1.0000 0.93280  0.72330  0.46900  Biso   1.000  C
  H130     1.0000 0.95020  0.73560  0.49330  Biso   1.000  H
  C250     1.0000 0.84310  0.64450  0.52110  Biso   1.000  C
  C251     1.0000 0.89560  0.68820  0.54510  Biso   1.000  C
  H131     1.0000 0.91140  0.70050  0.57130  Biso   1.000  H
  C252     1.0000 0.86770  0.66350  0.56160  Biso   1.000  C
  H132     1.0000 0.86420  0.65830  0.59880  Biso   1.000  H
  C253     1.0000 0.94100  0.73310  0.49520  Biso   1.000  C
  H133     1.0000 0.95960  0.74770  0.51470  Biso   1.000  H
  C254     1.0000 0.93920  0.73530  0.43350  Biso   1.000  C
  C255     1.0000 0.91320  0.71380  0.40670  Biso   1.000  C
  H134     1.0000 0.91300  0.71420  0.36850  Biso   1.000  H
  C256     1.0000 0.88500  0.68970  0.43550  Biso   1.000  C
  C257     1.0000 0.88720  0.68730  0.49200  Biso   1.000  C
  C258     1.0000 0.91560  0.71040  0.52070  Biso   1.000  C
  H135     1.0000 0.91630  0.70920  0.55890  Biso   1.000  H
  C259     1.0000 0.85940  0.66230  0.51850  Biso   1.000  C
  H136     1.0000 0.85950  0.66150  0.55660  Biso   1.000  H
  C260     1.0000 0.83240  0.63940  0.49140  Biso   1.000  C
  C261     1.0000 0.83140  0.64220  0.43340  Biso   1.000  C
  H137     1.0000 0.81270  0.62770  0.41390  Biso   1.000  H
  C262     1.0000 0.85740  0.66600  0.40530  Biso   1.000  C
  H138     1.0000 0.85700  0.66670  0.36710  Biso   1.000  H
  C263     1.0000 0.27040  0.57630  0.72300  Biso   1.000  C
  C264     1.0000 0.24680  0.59750  0.76090  Biso   1.000  C
  H139     1.0000 0.25030  0.59390  0.79850  Biso   1.000  H
  C265     1.0000 0.21930  0.62280  0.74240  Biso   1.000  C
  H140     1.0000 0.20270  0.63530  0.76740  Biso   1.000  H
  C266     1.0000 0.26530  0.58150  0.66670  Biso   1.000  C
  H141     1.0000 0.28020  0.56630  0.64250  Biso   1.000  H
  C267     1.0000 0.24000  0.60730  0.64670  Biso   1.000  C
  C268     1.0000 0.21510  0.63050  0.68860  Biso   1.000  C
  C269     1.0000 0.18830  0.65650  0.66230  Biso   1.000  C
  H142     1.0000 0.17190  0.67090  0.68560  Biso   1.000  H
  C270     1.0000 0.18330  0.66310  0.61030  Biso   1.000  C
  C271     1.0000 0.20950  0.64170  0.57220  Biso   1.000  C
  H143     1.0000 0.20800  0.64660  0.53470  Biso   1.000  H
  C272     1.0000 0.23510  0.61520  0.59100  Biso   1.000  C
  H144     1.0000 0.25050  0.60140  0.56580  Biso   1.000  H
  Cd9      1.0000 0.49894  0.68271  0.31878  Biso   1.000  Cd
  Cd10     1.0000 0.39208  0.75172  0.53540  Biso   1.000  Cd
  Mg5      1.0000 0.44262  0.71819  0.42334  Biso   1.000  Mg
  O65      1.0000 0.17651  0.97654  0.70620  Biso   1.000  O
  O66      1.0000 0.42812  0.71014  0.58720  Biso   1.000  O
  O67      1.0000 0.44579  0.69865  0.50120  Biso   1.000  O
  O68      1.0000 0.19344  0.94955  0.78450  Biso   1.000  O
  O69      1.0000 0.28614  0.47217  0.51350  Biso   1.000  O
  O70      1.0000 0.31132  0.48750  0.59470  Biso   1.000  O
  O71      1.0000 0.70140  0.88210  0.58090  Biso   1.000  O
  O72      1.0000 0.70960  0.91020  0.50040  Biso   1.000  O
  O73      1.0000 0.50169  0.73315  0.42770  Biso   1.000  O
  O74      1.0000 0.53886  0.72775  0.35300  Biso   1.000  O
  O75      1.0000 0.37068  0.78024  0.61900  Biso   1.000  O
  O76      1.0000 0.34370  0.80027  0.54150  Biso   1.000  O
  O77      1.0000 0.63417  0.54657  0.67080  Biso   1.000  O
  O78      1.0000 0.60090  0.54141  0.75090  Biso   1.000  O
  O79      1.0000 0.46003  0.66248  0.39350  Biso   1.000  O
  O80      1.0000 0.44915  0.63355  0.31430  Biso   1.000  O
  C273     1.0000 0.57320  0.58110  0.68230  Biso   1.000  C
  C274     1.0000 0.54630  0.59740  0.71910  Biso   1.000  C
  H145     1.0000 0.54830  0.59150  0.75630  Biso   1.000  H
  C275     1.0000 0.53170  0.74070  0.39960  Biso   1.000  C
  C276     1.0000 0.51730  0.62180  0.70150  Biso   1.000  C
  H146     1.0000 0.49980  0.63270  0.72680  Biso   1.000  H
  C277     1.0000 0.69240  0.88470  0.53270  Biso   1.000  C
  C278     1.0000 0.48350  0.65660  0.62600  Biso   1.000  C
  H147     1.0000 0.46580  0.66780  0.65080  Biso   1.000  H
  C279     1.0000 0.44890  0.69340  0.55180  Biso   1.000  C
  C280     1.0000 0.48050  0.66540  0.57130  Biso   1.000  C
  C281     1.0000 0.51300  0.63080  0.64490  Biso   1.000  C
  C282     1.0000 0.57070  0.58940  0.62780  Biso   1.000  C
  H148     1.0000 0.58890  0.57830  0.60350  Biso   1.000  H
  C283     1.0000 0.54060  0.61480  0.60750  Biso   1.000  C
  C284     1.0000 0.53680  0.62380  0.55200  Biso   1.000  C
  H149     1.0000 0.55480  0.61300  0.52720  Biso   1.000  H
  C285     1.0000 0.50730  0.64830  0.53260  Biso   1.000  C
  H150     1.0000 0.50490  0.65350  0.49530  Biso   1.000  H
  C286     1.0000 0.60560  0.55440  0.70220  Biso   1.000  C
  C287     1.0000 0.22360  0.92650  0.69550  Biso   1.000  C
  C288     1.0000 0.22140  0.92750  0.63860  Biso   1.000  C
  H151     1.0000 0.20350  0.94430  0.62160  Biso   1.000  H
  C289     1.0000 0.24940  0.90210  0.72150  Biso   1.000  C
  H152     1.0000 0.25010  0.90130  0.75960  Biso   1.000  H
  C290     1.0000 0.24500  0.90440  0.60790  Biso   1.000  C
  H153     1.0000 0.24380  0.90550  0.56980  Biso   1.000  H
  C291     1.0000 0.27210  0.87810  0.63460  Biso   1.000  C
  C292     1.0000 0.29750  0.85260  0.60290  Biso   1.000  C
  H154     1.0000 0.29630  0.85300  0.56480  Biso   1.000  H
  C293     1.0000 0.32330  0.82800  0.62910  Biso   1.000  C
  C294     1.0000 0.32710  0.82860  0.68630  Biso   1.000  C
  H155     1.0000 0.34560  0.81250  0.70360  Biso   1.000  H
  C295     1.0000 0.30330  0.85300  0.71670  Biso   1.000  C
  H156     1.0000 0.30550  0.85330  0.75480  Biso   1.000  H
  C296     1.0000 0.27540  0.87780  0.69050  Biso   1.000  C
  C297     1.0000 0.19690  0.95200  0.73380  Biso   1.000  C
  C298     1.0000 0.34730  0.80140  0.59300  Biso   1.000  C
  C299     1.0000 0.30910  0.49160  0.54390  Biso   1.000  C
  C300     1.0000 0.33610  0.52140  0.51750  Biso   1.000  C
  C301     1.0000 0.36160  0.54470  0.55140  Biso   1.000  C
  H157     1.0000 0.36200  0.54060  0.58910  Biso   1.000  H
  C302     1.0000 0.38490  0.57240  0.52880  Biso   1.000  C
  H158     1.0000 0.40060  0.58800  0.55140  Biso   1.000  H
  C303     1.0000 0.38590  0.57820  0.47120  Biso   1.000  C
  C304     1.0000 0.41190  0.60620  0.44490  Biso   1.000  C
  H159     1.0000 0.42760  0.62250  0.46650  Biso   1.000  H
  C305     1.0000 0.41400  0.60920  0.39060  Biso   1.000  C
  C306     1.0000 0.44240  0.63700  0.36430  Biso   1.000  C
  C307     1.0000 0.38980  0.58510  0.35720  Biso   1.000  C
  H160     1.0000 0.39150  0.58720  0.31920  Biso   1.000  H
  C308     1.0000 0.36390  0.55870  0.38010  Biso   1.000  C
  H161     1.0000 0.34770  0.54340  0.35770  Biso   1.000  H
  C309     1.0000 0.36190  0.55480  0.43670  Biso   1.000  C
  C310     1.0000 0.33640  0.52680  0.46220  Biso   1.000  C
  H162     1.0000 0.31960  0.51180  0.44030  Biso   1.000  H
  C311     1.0000 0.56380  0.76980  0.41280  Biso   1.000  C
  C312     1.0000 0.62240  0.82250  0.44930  Biso   1.000  C
  C313     1.0000 0.59800  0.80350  0.49020  Biso   1.000  C
  C314     1.0000 0.61790  0.81420  0.39410  Biso   1.000  C
  H163     1.0000 0.63430  0.82630  0.36840  Biso   1.000  H
  C315     1.0000 0.58940  0.78810  0.37720  Biso   1.000  C
  H164     1.0000 0.58730  0.78260  0.33990  Biso   1.000  H
  C316     1.0000 0.65200  0.84960  0.47010  Biso   1.000  C
  H165     1.0000 0.66780  0.86330  0.44520  Biso   1.000  H
  C317     1.0000 0.56720  0.77670  0.46900  Biso   1.000  C
  H166     1.0000 0.54980  0.76440  0.49330  Biso   1.000  H
  C318     1.0000 0.65690  0.85550  0.52110  Biso   1.000  C
  C319     1.0000 0.60440  0.81180  0.54510  Biso   1.000  C
  H167     1.0000 0.58860  0.79950  0.57130  Biso   1.000  H
  C320     1.0000 0.63230  0.83650  0.56160  Biso   1.000  C
  H168     1.0000 0.63580  0.84170  0.59880  Biso   1.000  H
  C321     1.0000 0.55900  0.76690  0.49520  Biso   1.000  C
  H169     1.0000 0.54040  0.75230  0.51470  Biso   1.000  H
  C322     1.0000 0.56080  0.76470  0.43350  Biso   1.000  C
  C323     1.0000 0.58680  0.78620  0.40670  Biso   1.000  C
  H170     1.0000 0.58700  0.78580  0.36850  Biso   1.000  H
  C324     1.0000 0.61500  0.81030  0.43550  Biso   1.000  C
  C325     1.0000 0.61280  0.81270  0.49200  Biso   1.000  C
  C326     1.0000 0.58440  0.78960  0.52070  Biso   1.000  C
  H171     1.0000 0.58370  0.79080  0.55890  Biso   1.000  H
  C327     1.0000 0.64060  0.83770  0.51850  Biso   1.000  C
  H172     1.0000 0.64050  0.83850  0.55660  Biso   1.000  H
  C328     1.0000 0.66760  0.86060  0.49140  Biso   1.000  C
  C329     1.0000 0.66860  0.85780  0.43340  Biso   1.000  C
  H173     1.0000 0.68730  0.87230  0.41390  Biso   1.000  H
  C330     1.0000 0.64260  0.83400  0.40530  Biso   1.000  C
  H174     1.0000 0.64300  0.83330  0.36710  Biso   1.000  H
  C331     1.0000 0.22960  0.92370  0.72300  Biso   1.000  C
  C332     1.0000 0.25320  0.90250  0.76090  Biso   1.000  C
  H175     1.0000 0.24970  0.90610  0.79850  Biso   1.000  H
  C333     1.0000 0.28070  0.87720  0.74240  Biso   1.000  C
  H176     1.0000 0.29730  0.86470  0.76740  Biso   1.000  H
  C334     1.0000 0.23470  0.91850  0.66670  Biso   1.000  C
  H177     1.0000 0.21980  0.93370  0.64250  Biso   1.000  H
  C335     1.0000 0.26000  0.89270  0.64670  Biso   1.000  C
  C336     1.0000 0.28490  0.86950  0.68860  Biso   1.000  C
  C337     1.0000 0.31170  0.84350  0.66230  Biso   1.000  C
  H178     1.0000 0.32810  0.82910  0.68560  Biso   1.000  H
  C338     1.0000 0.31670  0.83690  0.61030  Biso   1.000  C
  C339     1.0000 0.29050  0.85830  0.57220  Biso   1.000  C
  H179     1.0000 0.29200  0.85340  0.53470  Biso   1.000  H
  C340     1.0000 0.26490  0.88480  0.59100  Biso   1.000  C
  H180     1.0000 0.24950  0.89860  0.56580  Biso   1.000  H
  Cd11     1.0000 0.49894  0.18271  0.81878  Biso   1.000  Cd
  Cd12     1.0000 0.39208  0.25172  0.03540  Biso   1.000  Cd
  Mg6      1.0000 0.44262  0.21819  0.92334  Biso   1.000  Mg
  O81      1.0000 0.17651  0.47654  0.20620  Biso   1.000  O
  O82      1.0000 0.42812  0.21014  0.08720  Biso   1.000  O
  O83      1.0000 0.44579  0.19865  0.00120  Biso   1.000  O
  O84      1.0000 0.19344  0.44955  0.28450  Biso   1.000  O
  O85      1.0000 0.28614  0.97217  0.01350  Biso   1.000  O
  O86      1.0000 0.31132  0.98750  0.09470  Biso   1.000  O
  O87      1.0000 0.70140  0.38210  0.08090  Biso   1.000  O
  O88      1.0000 0.70960  0.41020  0.00040  Biso   1.000  O
  O89      1.0000 0.50169  0.23315  0.92770  Biso   1.000  O
  O90      1.0000 0.53886  0.22775  0.85300  Biso   1.000  O
  O91      1.0000 0.37068  0.28024  0.11900  Biso   1.000  O
  O92      1.0000 0.34370  0.30027  0.04150  Biso   1.000  O
  O93      1.0000 0.63417  0.04657  0.17080  Biso   1.000  O
  O94      1.0000 0.60090  0.04141  0.25090  Biso   1.000  O
  O95      1.0000 0.46003  0.16248  0.89350  Biso   1.000  O
  O96      1.0000 0.44915  0.13355  0.81430  Biso   1.000  O
  C341     1.0000 0.57320  0.08110  0.18230  Biso   1.000  C
  C342     1.0000 0.54630  0.09740  0.21910  Biso   1.000  C
  H181     1.0000 0.54830  0.09150  0.25630  Biso   1.000  H
  C343     1.0000 0.53170  0.24070  0.89960  Biso   1.000  C
  C344     1.0000 0.51730  0.12180  0.20150  Biso   1.000  C
  H182     1.0000 0.49980  0.13270  0.22680  Biso   1.000  H
  C345     1.0000 0.69240  0.38470  0.03270  Biso   1.000  C
  C346     1.0000 0.48350  0.15660  0.12600  Biso   1.000  C
  H183     1.0000 0.46580  0.16780  0.15080  Biso   1.000  H
  C347     1.0000 0.44890  0.19340  0.05180  Biso   1.000  C
  C348     1.0000 0.48050  0.16540  0.07130  Biso   1.000  C
  C349     1.0000 0.51300  0.13080  0.14490  Biso   1.000  C
  C350     1.0000 0.57070  0.08940  0.12780  Biso   1.000  C
  H184     1.0000 0.58890  0.07830  0.10350  Biso   1.000  H
  C351     1.0000 0.54060  0.11480  0.10750  Biso   1.000  C
  C352     1.0000 0.53680  0.12380  0.05200  Biso   1.000  C
  H185     1.0000 0.55480  0.11300  0.02720  Biso   1.000  H
  C353     1.0000 0.50730  0.14830  0.03260  Biso   1.000  C
  H186     1.0000 0.50490  0.15350  0.99530  Biso   1.000  H
  C354     1.0000 0.60560  0.05440  0.20220  Biso   1.000  C
  C355     1.0000 0.22360  0.42650  0.19550  Biso   1.000  C
  C356     1.0000 0.22140  0.42750  0.13860  Biso   1.000  C
  H187     1.0000 0.20350  0.44430  0.12160  Biso   1.000  H
  C357     1.0000 0.24940  0.40210  0.22150  Biso   1.000  C
  H188     1.0000 0.25010  0.40130  0.25960  Biso   1.000  H
  C358     1.0000 0.24500  0.40440  0.10790  Biso   1.000  C
  H189     1.0000 0.24380  0.40550  0.06980  Biso   1.000  H
  C359     1.0000 0.27210  0.37810  0.13460  Biso   1.000  C
  C360     1.0000 0.29750  0.35260  0.10290  Biso   1.000  C
  H190     1.0000 0.29630  0.35300  0.06480  Biso   1.000  H
  C361     1.0000 0.32330  0.32800  0.12910  Biso   1.000  C
  C362     1.0000 0.32710  0.32860  0.18630  Biso   1.000  C
  H191     1.0000 0.34560  0.31250  0.20360  Biso   1.000  H
  C363     1.0000 0.30330  0.35300  0.21670  Biso   1.000  C
  H192     1.0000 0.30550  0.35330  0.25480  Biso   1.000  H
  C364     1.0000 0.27540  0.37780  0.19050  Biso   1.000  C
  C365     1.0000 0.19690  0.45200  0.23380  Biso   1.000  C
  C366     1.0000 0.34730  0.30140  0.09300  Biso   1.000  C
  C367     1.0000 0.30910  0.99160  0.04390  Biso   1.000  C
  C368     1.0000 0.33610  0.02140  0.01750  Biso   1.000  C
  C369     1.0000 0.36160  0.04470  0.05140  Biso   1.000  C
  H193     1.0000 0.36200  0.04060  0.08910  Biso   1.000  H
  C370     1.0000 0.38490  0.07240  0.02880  Biso   1.000  C
  H194     1.0000 0.40060  0.08800  0.05140  Biso   1.000  H
  C371     1.0000 0.38590  0.07820  0.97120  Biso   1.000  C
  C372     1.0000 0.41190  0.10620  0.94490  Biso   1.000  C
  H195     1.0000 0.42760  0.12250  0.96650  Biso   1.000  H
  C373     1.0000 0.41400  0.10920  0.89060  Biso   1.000  C
  C374     1.0000 0.44240  0.13700  0.86430  Biso   1.000  C
  C375     1.0000 0.38980  0.08510  0.85720  Biso   1.000  C
  H196     1.0000 0.39150  0.08720  0.81920  Biso   1.000  H
  C376     1.0000 0.36390  0.05870  0.88010  Biso   1.000  C
  H197     1.0000 0.34770  0.04340  0.85770  Biso   1.000  H
  C377     1.0000 0.36190  0.05480  0.93670  Biso   1.000  C
  C378     1.0000 0.33640  0.02680  0.96220  Biso   1.000  C
  H198     1.0000 0.31960  0.01180  0.94030  Biso   1.000  H
  C379     1.0000 0.56380  0.26980  0.91280  Biso   1.000  C
  C380     1.0000 0.62240  0.32250  0.94930  Biso   1.000  C
  C381     1.0000 0.59800  0.30350  0.99020  Biso   1.000  C
  C382     1.0000 0.61790  0.31420  0.89410  Biso   1.000  C
  H199     1.0000 0.63430  0.32630  0.86840  Biso   1.000  H
  C383     1.0000 0.58940  0.28810  0.87720  Biso   1.000  C
  H200     1.0000 0.58730  0.28260  0.83990  Biso   1.000  H
  C384     1.0000 0.65200  0.34960  0.97010  Biso   1.000  C
  H201     1.0000 0.66780  0.36330  0.94520  Biso   1.000  H
  C385     1.0000 0.56720  0.27670  0.96900  Biso   1.000  C
  H202     1.0000 0.54980  0.26440  0.99330  Biso   1.000  H
  C386     1.0000 0.65690  0.35550  0.02110  Biso   1.000  C
  C387     1.0000 0.60440  0.31180  0.04510  Biso   1.000  C
  H203     1.0000 0.58860  0.29950  0.07130  Biso   1.000  H
  C388     1.0000 0.63230  0.33650  0.06160  Biso   1.000  C
  H204     1.0000 0.63580  0.34170  0.09880  Biso   1.000  H
  C389     1.0000 0.55900  0.26690  0.99520  Biso   1.000  C
  H205     1.0000 0.54040  0.25230  0.01470  Biso   1.000  H
  C390     1.0000 0.56080  0.26470  0.93350  Biso   1.000  C
  C391     1.0000 0.58680  0.28620  0.90670  Biso   1.000  C
  H206     1.0000 0.58700  0.28580  0.86850  Biso   1.000  H
  C392     1.0000 0.61500  0.31030  0.93550  Biso   1.000  C
  C393     1.0000 0.61280  0.31270  0.99200  Biso   1.000  C
  C394     1.0000 0.58440  0.28960  0.02070  Biso   1.000  C
  H207     1.0000 0.58370  0.29080  0.05890  Biso   1.000  H
  C395     1.0000 0.64060  0.33770  0.01850  Biso   1.000  C
  H208     1.0000 0.64050  0.33850  0.05660  Biso   1.000  H
  C396     1.0000 0.66760  0.36060  0.99140  Biso   1.000  C
  C397     1.0000 0.66860  0.35780  0.93340  Biso   1.000  C
  H209     1.0000 0.68730  0.37230  0.91390  Biso   1.000  H
  C398     1.0000 0.64260  0.33400  0.90530  Biso   1.000  C
  H210     1.0000 0.64300  0.33330  0.86710  Biso   1.000  H
  C399     1.0000 0.22960  0.42370  0.22300  Biso   1.000  C
  C400     1.0000 0.25320  0.40250  0.26090  Biso   1.000  C
  H211     1.0000 0.24970  0.40610  0.29850  Biso   1.000  H
  C401     1.0000 0.28070  0.37720  0.24240  Biso   1.000  C
  H212     1.0000 0.29730  0.36470  0.26740  Biso   1.000  H
  C402     1.0000 0.23470  0.41850  0.16670  Biso   1.000  C
  H213     1.0000 0.21980  0.43370  0.14250  Biso   1.000  H
  C403     1.0000 0.26000  0.39270  0.14670  Biso   1.000  C
  C404     1.0000 0.28490  0.36950  0.18860  Biso   1.000  C
  C405     1.0000 0.31170  0.34350  0.16230  Biso   1.000  C
  H214     1.0000 0.32810  0.32910  0.18560  Biso   1.000  H
  C406     1.0000 0.31670  0.33690  0.11030  Biso   1.000  C
  C407     1.0000 0.29050  0.35830  0.07220  Biso   1.000  C
  H215     1.0000 0.29200  0.35340  0.03470  Biso   1.000  H
  C408     1.0000 0.26490  0.38480  0.09100  Biso   1.000  C
  H216     1.0000 0.24950  0.39860  0.06580  Biso   1.000  H
  Cd13     1.0000 0.99894  0.68271  0.81878  Biso   1.000  Cd
  Cd14     1.0000 0.89208  0.75172  0.03540  Biso   1.000  Cd
  Mg7      1.0000 0.94262  0.71819  0.92334  Biso   1.000  Mg
  O97      1.0000 0.67651  0.97654  0.20620  Biso   1.000  O
  O98      1.0000 0.92812  0.71014  0.08720  Biso   1.000  O
  O99      1.0000 0.94579  0.69865  0.00120  Biso   1.000  O
  O100     1.0000 0.69344  0.94955  0.28450  Biso   1.000  O
  O101     1.0000 0.78614  0.47217  0.01350  Biso   1.000  O
  O102     1.0000 0.81132  0.48750  0.09470  Biso   1.000  O
  O103     1.0000 0.20140  0.88210  0.08090  Biso   1.000  O
  O104     1.0000 0.20960  0.91020  0.00040  Biso   1.000  O
  O105     1.0000 0.00169  0.73315  0.92770  Biso   1.000  O
  O106     1.0000 0.03886  0.72775  0.85300  Biso   1.000  O
  O107     1.0000 0.87068  0.78024  0.11900  Biso   1.000  O
  O108     1.0000 0.84370  0.80027  0.04150  Biso   1.000  O
  O109     1.0000 0.13417  0.54657  0.17080  Biso   1.000  O
  O110     1.0000 0.10090  0.54141  0.25090  Biso   1.000  O
  O111     1.0000 0.96003  0.66248  0.89350  Biso   1.000  O
  O112     1.0000 0.94915  0.63355  0.81430  Biso   1.000  O
  C409     1.0000 0.07320  0.58110  0.18230  Biso   1.000  C
  C410     1.0000 0.04630  0.59740  0.21910  Biso   1.000  C
  H217     1.0000 0.04830  0.59150  0.25630  Biso   1.000  H
  C411     1.0000 0.03170  0.74070  0.89960  Biso   1.000  C
  C412     1.0000 0.01730  0.62180  0.20150  Biso   1.000  C
  H218     1.0000 0.99980  0.63270  0.22680  Biso   1.000  H
  C413     1.0000 0.19240  0.88470  0.03270  Biso   1.000  C
  C414     1.0000 0.98350  0.65660  0.12600  Biso   1.000  C
  H219     1.0000 0.96580  0.66780  0.15080  Biso   1.000  H
  C415     1.0000 0.94890  0.69340  0.05180  Biso   1.000  C
  C416     1.0000 0.98050  0.66540  0.07130  Biso   1.000  C
  C417     1.0000 0.01300  0.63080  0.14490  Biso   1.000  C
  C418     1.0000 0.07070  0.58940  0.12780  Biso   1.000  C
  H220     1.0000 0.08890  0.57830  0.10350  Biso   1.000  H
  C419     1.0000 0.04060  0.61480  0.10750  Biso   1.000  C
  C420     1.0000 0.03680  0.62380  0.05200  Biso   1.000  C
  H221     1.0000 0.05480  0.61300  0.02720  Biso   1.000  H
  C421     1.0000 0.00730  0.64830  0.03260  Biso   1.000  C
  H222     1.0000 0.00490  0.65350  0.99530  Biso   1.000  H
  C422     1.0000 0.10560  0.55440  0.20220  Biso   1.000  C
  C423     1.0000 0.72360  0.92650  0.19550  Biso   1.000  C
  C424     1.0000 0.72140  0.92750  0.13860  Biso   1.000  C
  H223     1.0000 0.70350  0.94430  0.12160  Biso   1.000  H
  C425     1.0000 0.74940  0.90210  0.22150  Biso   1.000  C
  H224     1.0000 0.75010  0.90130  0.25960  Biso   1.000  H
  C426     1.0000 0.74500  0.90440  0.10790  Biso   1.000  C
  H225     1.0000 0.74380  0.90550  0.06980  Biso   1.000  H
  C427     1.0000 0.77210  0.87810  0.13460  Biso   1.000  C
  C428     1.0000 0.79750  0.85260  0.10290  Biso   1.000  C
  H226     1.0000 0.79630  0.85300  0.06480  Biso   1.000  H
  C429     1.0000 0.82330  0.82800  0.12910  Biso   1.000  C
  C430     1.0000 0.82710  0.82860  0.18630  Biso   1.000  C
  H227     1.0000 0.84560  0.81250  0.20360  Biso   1.000  H
  C431     1.0000 0.80330  0.85300  0.21670  Biso   1.000  C
  H228     1.0000 0.80550  0.85330  0.25480  Biso   1.000  H
  C432     1.0000 0.77540  0.87780  0.19050  Biso   1.000  C
  C433     1.0000 0.69690  0.95200  0.23380  Biso   1.000  C
  C434     1.0000 0.84730  0.80140  0.09300  Biso   1.000  C
  C435     1.0000 0.80910  0.49160  0.04390  Biso   1.000  C
  C436     1.0000 0.83610  0.52140  0.01750  Biso   1.000  C
  C437     1.0000 0.86160  0.54470  0.05140  Biso   1.000  C
  H229     1.0000 0.86200  0.54060  0.08910  Biso   1.000  H
  C438     1.0000 0.88490  0.57240  0.02880  Biso   1.000  C
  H230     1.0000 0.90060  0.58800  0.05140  Biso   1.000  H
  C439     1.0000 0.88590  0.57820  0.97120  Biso   1.000  C
  C440     1.0000 0.91190  0.60620  0.94490  Biso   1.000  C
  H231     1.0000 0.92760  0.62250  0.96650  Biso   1.000  H
  C441     1.0000 0.91400  0.60920  0.89060  Biso   1.000  C
  C442     1.0000 0.94240  0.63700  0.86430  Biso   1.000  C
  C443     1.0000 0.88980  0.58510  0.85720  Biso   1.000  C
  H232     1.0000 0.89150  0.58720  0.81920  Biso   1.000  H
  C444     1.0000 0.86390  0.55870  0.88010  Biso   1.000  C
  H233     1.0000 0.84770  0.54340  0.85770  Biso   1.000  H
  C445     1.0000 0.86190  0.55480  0.93670  Biso   1.000  C
  C446     1.0000 0.83640  0.52680  0.96220  Biso   1.000  C
  H234     1.0000 0.81960  0.51180  0.94030  Biso   1.000  H
  C447     1.0000 0.06380  0.76980  0.91280  Biso   1.000  C
  C448     1.0000 0.12240  0.82250  0.94930  Biso   1.000  C
  C449     1.0000 0.09800  0.80350  0.99020  Biso   1.000  C
  C450     1.0000 0.11790  0.81420  0.89410  Biso   1.000  C
  H235     1.0000 0.13430  0.82630  0.86840  Biso   1.000  H
  C451     1.0000 0.08940  0.78810  0.87720  Biso   1.000  C
  H236     1.0000 0.08730  0.78260  0.83990  Biso   1.000  H
  C452     1.0000 0.15200  0.84960  0.97010  Biso   1.000  C
  H237     1.0000 0.16780  0.86330  0.94520  Biso   1.000  H
  C453     1.0000 0.06720  0.77670  0.96900  Biso   1.000  C
  H238     1.0000 0.04980  0.76440  0.99330  Biso   1.000  H
  C454     1.0000 0.15690  0.85550  0.02110  Biso   1.000  C
  C455     1.0000 0.10440  0.81180  0.04510  Biso   1.000  C
  H239     1.0000 0.08860  0.79950  0.07130  Biso   1.000  H
  C456     1.0000 0.13230  0.83650  0.06160  Biso   1.000  C
  H240     1.0000 0.13580  0.84170  0.09880  Biso   1.000  H
  C457     1.0000 0.05900  0.76690  0.99520  Biso   1.000  C
  H241     1.0000 0.04040  0.75230  0.01470  Biso   1.000  H
  C458     1.0000 0.06080  0.76470  0.93350  Biso   1.000  C
  C459     1.0000 0.08680  0.78620  0.90670  Biso   1.000  C
  H242     1.0000 0.08700  0.78580  0.86850  Biso   1.000  H
  C460     1.0000 0.11500  0.81030  0.93550  Biso   1.000  C
  C461     1.0000 0.11280  0.81270  0.99200  Biso   1.000  C
  C462     1.0000 0.08440  0.78960  0.02070  Biso   1.000  C
  H243     1.0000 0.08370  0.79080  0.05890  Biso   1.000  H
  C463     1.0000 0.14060  0.83770  0.01850  Biso   1.000  C
  H244     1.0000 0.14050  0.83850  0.05660  Biso   1.000  H
  C464     1.0000 0.16760  0.86060  0.99140  Biso   1.000  C
  C465     1.0000 0.16860  0.85780  0.93340  Biso   1.000  C
  H245     1.0000 0.18730  0.87230  0.91390  Biso   1.000  H
  C466     1.0000 0.14260  0.83400  0.90530  Biso   1.000  C
  H246     1.0000 0.14300  0.83330  0.86710  Biso   1.000  H
  C467     1.0000 0.72960  0.92370  0.22300  Biso   1.000  C
  C468     1.0000 0.75320  0.90250  0.26090  Biso   1.000  C
  H247     1.0000 0.74970  0.90610  0.29850  Biso   1.000  H
  C469     1.0000 0.78070  0.87720  0.24240  Biso   1.000  C
  H248     1.0000 0.79730  0.86470  0.26740  Biso   1.000  H
  C470     1.0000 0.73470  0.91850  0.16670  Biso   1.000  C
  H249     1.0000 0.71980  0.93370  0.14250  Biso   1.000  H
  C471     1.0000 0.76000  0.89270  0.14670  Biso   1.000  C
  C472     1.0000 0.78490  0.86950  0.18860  Biso   1.000  C
  C473     1.0000 0.81170  0.84350  0.16230  Biso   1.000  C
  H250     1.0000 0.82810  0.82910  0.18560  Biso   1.000  H
  C474     1.0000 0.81670  0.83690  0.11030  Biso   1.000  C
  C475     1.0000 0.79050  0.85830  0.07220  Biso   1.000  C
  H251     1.0000 0.79200  0.85340  0.03470  Biso   1.000  H
  C476     1.0000 0.76490  0.88480  0.09100  Biso   1.000  C
  H252     1.0000 0.74950  0.89860  0.06580  Biso   1.000  H
  Cd15     1.0000 0.99894  0.18271  0.31878  Biso   1.000  Cd
  Cd16     1.0000 0.89208  0.25172  0.53540  Biso   1.000  Cd
  Mg8      1.0000 0.94262  0.21819  0.42334  Biso   1.000  Mg
  O113     1.0000 0.67651  0.47654  0.70620  Biso   1.000  O
  O114     1.0000 0.92812  0.21014  0.58720  Biso   1.000  O
  O115     1.0000 0.94579  0.19865  0.50120  Biso   1.000  O
  O116     1.0000 0.69344  0.44955  0.78450  Biso   1.000  O
  O117     1.0000 0.78614  0.97217  0.51350  Biso   1.000  O
  O118     1.0000 0.81132  0.98750  0.59470  Biso   1.000  O
  O119     1.0000 0.20140  0.38210  0.58090  Biso   1.000  O
  O120     1.0000 0.20960  0.41020  0.50040  Biso   1.000  O
  O121     1.0000 0.00169  0.23315  0.42770  Biso   1.000  O
  O122     1.0000 0.03886  0.22775  0.35300  Biso   1.000  O
  O123     1.0000 0.87068  0.28024  0.61900  Biso   1.000  O
  O124     1.0000 0.84370  0.30027  0.54150  Biso   1.000  O
  O125     1.0000 0.13417  0.04657  0.67080  Biso   1.000  O
  O126     1.0000 0.10090  0.04141  0.75090  Biso   1.000  O
  O127     1.0000 0.96003  0.16248  0.39350  Biso   1.000  O
  O128     1.0000 0.94915  0.13355  0.31430  Biso   1.000  O
  C477     1.0000 0.07320  0.08110  0.68230  Biso   1.000  C
  C478     1.0000 0.04630  0.09740  0.71910  Biso   1.000  C
  H253     1.0000 0.04830  0.09150  0.75630  Biso   1.000  H
  C479     1.0000 0.03170  0.24070  0.39960  Biso   1.000  C
  C480     1.0000 0.01730  0.12180  0.70150  Biso   1.000  C
  H254     1.0000 0.99980  0.13270  0.72680  Biso   1.000  H
  C481     1.0000 0.19240  0.38470  0.53270  Biso   1.000  C
  C482     1.0000 0.98350  0.15660  0.62600  Biso   1.000  C
  H255     1.0000 0.96580  0.16780  0.65080  Biso   1.000  H
  C483     1.0000 0.94890  0.19340  0.55180  Biso   1.000  C
  C484     1.0000 0.98050  0.16540  0.57130  Biso   1.000  C
  C485     1.0000 0.01300  0.13080  0.64490  Biso   1.000  C
  C486     1.0000 0.07070  0.08940  0.62780  Biso   1.000  C
  H256     1.0000 0.08890  0.07830  0.60350  Biso   1.000  H
  C487     1.0000 0.04060  0.11480  0.60750  Biso   1.000  C
  C488     1.0000 0.03680  0.12380  0.55200  Biso   1.000  C
  H257     1.0000 0.05480  0.11300  0.52720  Biso   1.000  H
  C489     1.0000 0.00730  0.14830  0.53260  Biso   1.000  C
  H258     1.0000 0.00490  0.15350  0.49530  Biso   1.000  H
  C490     1.0000 0.10560  0.05440  0.70220  Biso   1.000  C
  C491     1.0000 0.72360  0.42650  0.69550  Biso   1.000  C
  C492     1.0000 0.72140  0.42750  0.63860  Biso   1.000  C
  H259     1.0000 0.70350  0.44430  0.62160  Biso   1.000  H
  C493     1.0000 0.74940  0.40210  0.72150  Biso   1.000  C
  H260     1.0000 0.75010  0.40130  0.75960  Biso   1.000  H
  C494     1.0000 0.74500  0.40440  0.60790  Biso   1.000  C
  H261     1.0000 0.74380  0.40550  0.56980  Biso   1.000  H
  C495     1.0000 0.77210  0.37810  0.63460  Biso   1.000  C
  C496     1.0000 0.79750  0.35260  0.60290  Biso   1.000  C
  H262     1.0000 0.79630  0.35300  0.56480  Biso   1.000  H
  C497     1.0000 0.82330  0.32800  0.62910  Biso   1.000  C
  C498     1.0000 0.82710  0.32860  0.68630  Biso   1.000  C
  H263     1.0000 0.84560  0.31250  0.70360  Biso   1.000  H
  C499     1.0000 0.80330  0.35300  0.71670  Biso   1.000  C
  H264     1.0000 0.80550  0.35330  0.75480  Biso   1.000  H
  C500     1.0000 0.77540  0.37780  0.69050  Biso   1.000  C
  C501     1.0000 0.69690  0.45200  0.73380  Biso   1.000  C
  C502     1.0000 0.84730  0.30140  0.59300  Biso   1.000  C
  C503     1.0000 0.80910  0.99160  0.54390  Biso   1.000  C
  C504     1.0000 0.83610  0.02140  0.51750  Biso   1.000  C
  C505     1.0000 0.86160  0.04470  0.55140  Biso   1.000  C
  H265     1.0000 0.86200  0.04060  0.58910  Biso   1.000  H
  C506     1.0000 0.88490  0.07240  0.52880  Biso   1.000  C
  H266     1.0000 0.90060  0.08800  0.55140  Biso   1.000  H
  C507     1.0000 0.88590  0.07820  0.47120  Biso   1.000  C
  C508     1.0000 0.91190  0.10620  0.44490  Biso   1.000  C
  H267     1.0000 0.92760  0.12250  0.46650  Biso   1.000  H
  C509     1.0000 0.91400  0.10920  0.39060  Biso   1.000  C
  C510     1.0000 0.94240  0.13700  0.36430  Biso   1.000  C
  C511     1.0000 0.88980  0.08510  0.35720  Biso   1.000  C
  H268     1.0000 0.89150  0.08720  0.31920  Biso   1.000  H
  C512     1.0000 0.86390  0.05870  0.38010  Biso   1.000  C
  H269     1.0000 0.84770  0.04340  0.35770  Biso   1.000  H
  C513     1.0000 0.86190  0.05480  0.43670  Biso   1.000  C
  C514     1.0000 0.83640  0.02680  0.46220  Biso   1.000  C
  H270     1.0000 0.81960  0.01180  0.44030  Biso   1.000  H
  C515     1.0000 0.06380  0.26980  0.41280  Biso   1.000  C
  C516     1.0000 0.12240  0.32250  0.44930  Biso   1.000  C
  C517     1.0000 0.09800  0.30350  0.49020  Biso   1.000  C
  C518     1.0000 0.11790  0.31420  0.39410  Biso   1.000  C
  H271     1.0000 0.13430  0.32630  0.36840  Biso   1.000  H
  C519     1.0000 0.08940  0.28810  0.37720  Biso   1.000  C
  H272     1.0000 0.08730  0.28260  0.33990  Biso   1.000  H
  C520     1.0000 0.15200  0.34960  0.47010  Biso   1.000  C
  H273     1.0000 0.16780  0.36330  0.44520  Biso   1.000  H
  C521     1.0000 0.06720  0.27670  0.46900  Biso   1.000  C
  H274     1.0000 0.04980  0.26440  0.49330  Biso   1.000  H
  C522     1.0000 0.15690  0.35550  0.52110  Biso   1.000  C
  C523     1.0000 0.10440  0.31180  0.54510  Biso   1.000  C
  H275     1.0000 0.08860  0.29950  0.57130  Biso   1.000  H
  C524     1.0000 0.13230  0.33650  0.56160  Biso   1.000  C
  H276     1.0000 0.13580  0.34170  0.59880  Biso   1.000  H
  C525     1.0000 0.05900  0.26690  0.49520  Biso   1.000  C
  H277     1.0000 0.04040  0.25230  0.51470  Biso   1.000  H
  C526     1.0000 0.06080  0.26470  0.43350  Biso   1.000  C
  C527     1.0000 0.08680  0.28620  0.40670  Biso   1.000  C
  H278     1.0000 0.08700  0.28580  0.36850  Biso   1.000  H
  C528     1.0000 0.11500  0.31030  0.43550  Biso   1.000  C
  C529     1.0000 0.11280  0.31270  0.49200  Biso   1.000  C
  C530     1.0000 0.08440  0.28960  0.52070  Biso   1.000  C
  H279     1.0000 0.08370  0.29080  0.55890  Biso   1.000  H
  C531     1.0000 0.14060  0.33770  0.51850  Biso   1.000  C
  H280     1.0000 0.14050  0.33850  0.55660  Biso   1.000  H
  C532     1.0000 0.16760  0.36060  0.49140  Biso   1.000  C
  C533     1.0000 0.16860  0.35780  0.43340  Biso   1.000  C
  H281     1.0000 0.18730  0.37230  0.41390  Biso   1.000  H
  C534     1.0000 0.14260  0.33400  0.40530  Biso   1.000  C
  H282     1.0000 0.14300  0.33330  0.36710  Biso   1.000  H
  C535     1.0000 0.72960  0.42370  0.72300  Biso   1.000  C
  C536     1.0000 0.75320  0.40250  0.76090  Biso   1.000  C
  H283     1.0000 0.74970  0.40610  0.79850  Biso   1.000  H
  C537     1.0000 0.78070  0.37720  0.74240  Biso   1.000  C
  H284     1.0000 0.79730  0.36470  0.76740  Biso   1.000  H
  C538     1.0000 0.73470  0.41850  0.66670  Biso   1.000  C
  H285     1.0000 0.71980  0.43370  0.64250  Biso   1.000  H
  C539     1.0000 0.76000  0.39270  0.64670  Biso   1.000  C
  C540     1.0000 0.78490  0.36950  0.68860  Biso   1.000  C
  C541     1.0000 0.81170  0.34350  0.66230  Biso   1.000  C
  H286     1.0000 0.82810  0.32910  0.68560  Biso   1.000  H
  C542     1.0000 0.81670  0.33690  0.61030  Biso   1.000  C
  C543     1.0000 0.79050  0.35830  0.57220  Biso   1.000  C
  H287     1.0000 0.79200  0.35340  0.53470  Biso   1.000  H
  C544     1.0000 0.76490  0.38480  0.59100  Biso   1.000  C
  H288     1.0000 0.74950  0.39860  0.56580  Biso   1.000  H
  Cd17     1.0000 0.75106  0.93271  0.56878  Biso   1.000  Cd
  Cd18     1.0000 0.85792  0.00172  0.78540  Biso   1.000  Cd
  Mg9      1.0000 0.80738  0.96819  0.67334  Biso   1.000  Mg
  O129     1.0000 0.07349  0.22654  0.95620  Biso   1.000  O
  O130     1.0000 0.82188  0.96014  0.83720  Biso   1.000  O
  O131     1.0000 0.80421  0.94865  0.75120  Biso   1.000  O
  O132     1.0000 0.05656  0.19955  0.03450  Biso   1.000  O
  O133     1.0000 0.96386  0.72217  0.76350  Biso   1.000  O
  O134     1.0000 0.93868  0.73750  0.84470  Biso   1.000  O
  O135     1.0000 0.54860  0.13210  0.83090  Biso   1.000  O
  O136     1.0000 0.54040  0.16020  0.75040  Biso   1.000  O
  O137     1.0000 0.74831  0.98315  0.67770  Biso   1.000  O
  O138     1.0000 0.71114  0.97775  0.60300  Biso   1.000  O
  O139     1.0000 0.87932  0.03024  0.86900  Biso   1.000  O
  O140     1.0000 0.90630  0.05027  0.79150  Biso   1.000  O
  O141     1.0000 0.61583  0.79657  0.92080  Biso   1.000  O
  O142     1.0000 0.64910  0.79141  0.00090  Biso   1.000  O
  O143     1.0000 0.78997  0.91248  0.64350  Biso   1.000  O
  O144     1.0000 0.80085  0.88355  0.56430  Biso   1.000  O
  C545     1.0000 0.67680  0.83110  0.93230  Biso   1.000  C
  C546     1.0000 0.70370  0.84740  0.96910  Biso   1.000  C
  H289     1.0000 0.70170  0.84150  0.00630  Biso   1.000  H
  C547     1.0000 0.71830  0.99070  0.64960  Biso   1.000  C
  C548     1.0000 0.73270  0.87180  0.95150  Biso   1.000  C
  H290     1.0000 0.75020  0.88270  0.97680  Biso   1.000  H
  C549     1.0000 0.55760  0.13470  0.78270  Biso   1.000  C
  C550     1.0000 0.76650  0.90660  0.87600  Biso   1.000  C
  H291     1.0000 0.78420  0.91780  0.90080  Biso   1.000  H
  C551     1.0000 0.80110  0.94340  0.80180  Biso   1.000  C
  C552     1.0000 0.76950  0.91540  0.82130  Biso   1.000  C
  C553     1.0000 0.73700  0.88080  0.89490  Biso   1.000  C
  C554     1.0000 0.67930  0.83940  0.87780  Biso   1.000  C
  H292     1.0000 0.66110  0.82830  0.85350  Biso   1.000  H
  C555     1.0000 0.70940  0.86480  0.85750  Biso   1.000  C
  C556     1.0000 0.71320  0.87380  0.80200  Biso   1.000  C
  H293     1.0000 0.69520  0.86300  0.77720  Biso   1.000  H
  C557     1.0000 0.74270  0.89830  0.78260  Biso   1.000  C
  H294     1.0000 0.74510  0.90350  0.74530  Biso   1.000  H
  C558     1.0000 0.64440  0.80440  0.95220  Biso   1.000  C
  C559     1.0000 0.02640  0.17650  0.94550  Biso   1.000  C
  C560     1.0000 0.02860  0.17750  0.88860  Biso   1.000  C
  H295     1.0000 0.04650  0.19430  0.87160  Biso   1.000  H
  C561     1.0000 0.00060  0.15210  0.97150  Biso   1.000  C
  H296     1.0000 0.99990  0.15130  0.00960  Biso   1.000  H
  C562     1.0000 0.00500  0.15440  0.85790  Biso   1.000  C
  H297     1.0000 0.00620  0.15550  0.81980  Biso   1.000  H
  C563     1.0000 0.97790  0.12810  0.88460  Biso   1.000  C
  C564     1.0000 0.95250  0.10260  0.85290  Biso   1.000  C
  H298     1.0000 0.95370  0.10300  0.81480  Biso   1.000  H
  C565     1.0000 0.92670  0.07800  0.87910  Biso   1.000  C
  C566     1.0000 0.92290  0.07860  0.93630  Biso   1.000  C
  H299     1.0000 0.90440  0.06250  0.95360  Biso   1.000  H
  C567     1.0000 0.94670  0.10300  0.96670  Biso   1.000  C
  H300     1.0000 0.94450  0.10330  0.00480  Biso   1.000  H
  C568     1.0000 0.97460  0.12780  0.94050  Biso   1.000  C
  C569     1.0000 0.05310  0.20200  0.98380  Biso   1.000  C
  C570     1.0000 0.90270  0.05140  0.84300  Biso   1.000  C
  C571     1.0000 0.94090  0.74160  0.79390  Biso   1.000  C
  C572     1.0000 0.91390  0.77140  0.76750  Biso   1.000  C
  C573     1.0000 0.88840  0.79470  0.80140  Biso   1.000  C
  H301     1.0000 0.88800  0.79060  0.83910  Biso   1.000  H
  C574     1.0000 0.86510  0.82240  0.77880  Biso   1.000  C
  H302     1.0000 0.84940  0.83800  0.80140  Biso   1.000  H
  C575     1.0000 0.86410  0.82820  0.72120  Biso   1.000  C
  C576     1.0000 0.83810  0.85620  0.69490  Biso   1.000  C
  H303     1.0000 0.82240  0.87250  0.71650  Biso   1.000  H
  C577     1.0000 0.83600  0.85920  0.64060  Biso   1.000  C
  C578     1.0000 0.80760  0.88700  0.61430  Biso   1.000  C
  C579     1.0000 0.86020  0.83510  0.60720  Biso   1.000  C
  H304     1.0000 0.85850  0.83720  0.56920  Biso   1.000  H
  C580     1.0000 0.88610  0.80870  0.63010  Biso   1.000  C
  H305     1.0000 0.90230  0.79340  0.60770  Biso   1.000  H
  C581     1.0000 0.88810  0.80480  0.68670  Biso   1.000  C
  C582     1.0000 0.91360  0.77680  0.71220  Biso   1.000  C
  H306     1.0000 0.93040  0.76180  0.69030  Biso   1.000  H
  C583     1.0000 0.68620  0.01980  0.66280  Biso   1.000  C
  C584     1.0000 0.62760  0.07250  0.69930  Biso   1.000  C
  C585     1.0000 0.65200  0.05350  0.74020  Biso   1.000  C
  C586     1.0000 0.63210  0.06420  0.64410  Biso   1.000  C
  H307     1.0000 0.61570  0.07630  0.61840  Biso   1.000  H
  C587     1.0000 0.66060  0.03810  0.62720  Biso   1.000  C
  H308     1.0000 0.66270  0.03260  0.58990  Biso   1.000  H
  C588     1.0000 0.59800  0.09960  0.72010  Biso   1.000  C
  H309     1.0000 0.58220  0.11330  0.69520  Biso   1.000  H
  C589     1.0000 0.68280  0.02670  0.71900  Biso   1.000  C
  H310     1.0000 0.70020  0.01440  0.74330  Biso   1.000  H
  C590     1.0000 0.59310  0.10550  0.77110  Biso   1.000  C
  C591     1.0000 0.64560  0.06180  0.79510  Biso   1.000  C
  H311     1.0000 0.66140  0.04950  0.82130  Biso   1.000  H
  C592     1.0000 0.61770  0.08650  0.81160  Biso   1.000  C
  H312     1.0000 0.61420  0.09170  0.84880  Biso   1.000  H
  C593     1.0000 0.69100  0.01690  0.74520  Biso   1.000  C
  H313     1.0000 0.70960  0.00230  0.76470  Biso   1.000  H
  C594     1.0000 0.68920  0.01470  0.68350  Biso   1.000  C
  C595     1.0000 0.66320  0.03620  0.65670  Biso   1.000  C
  H314     1.0000 0.66300  0.03580  0.61850  Biso   1.000  H
  C596     1.0000 0.63500  0.06030  0.68550  Biso   1.000  C
  C597     1.0000 0.63720  0.06270  0.74200  Biso   1.000  C
  C598     1.0000 0.66560  0.03960  0.77070  Biso   1.000  C
  H315     1.0000 0.66630  0.04080  0.80890  Biso   1.000  H
  C599     1.0000 0.60940  0.08770  0.76850  Biso   1.000  C
  H316     1.0000 0.60950  0.08850  0.80660  Biso   1.000  H
  C600     1.0000 0.58240  0.11060  0.74140  Biso   1.000  C
  C601     1.0000 0.58140  0.10780  0.68340  Biso   1.000  C
  H317     1.0000 0.56270  0.12230  0.66390  Biso   1.000  H
  C602     1.0000 0.60740  0.08400  0.65530  Biso   1.000  C
  H318     1.0000 0.60700  0.08330  0.61710  Biso   1.000  H
  C603     1.0000 0.02040  0.17370  0.97300  Biso   1.000  C
  C604     1.0000 0.99680  0.15250  0.01090  Biso   1.000  C
  H319     1.0000 0.00030  0.15610  0.04850  Biso   1.000  H
  C605     1.0000 0.96930  0.12720  0.99240  Biso   1.000  C
  H320     1.0000 0.95270  0.11470  0.01740  Biso   1.000  H
  C606     1.0000 0.01530  0.16850  0.91670  Biso   1.000  C
  H321     1.0000 0.03020  0.18370  0.89250  Biso   1.000  H
  C607     1.0000 0.99000  0.14270  0.89670  Biso   1.000  C
  C608     1.0000 0.96510  0.11950  0.93860  Biso   1.000  C
  C609     1.0000 0.93830  0.09350  0.91230  Biso   1.000  C
  H322     1.0000 0.92190  0.07910  0.93560  Biso   1.000  H
  C610     1.0000 0.93330  0.08690  0.86030  Biso   1.000  C
  C611     1.0000 0.95950  0.10830  0.82220  Biso   1.000  C
  H323     1.0000 0.95800  0.10340  0.78470  Biso   1.000  H
  C612     1.0000 0.98510  0.13480  0.84100  Biso   1.000  C
  H324     1.0000 0.00050  0.14860  0.81580  Biso   1.000  H
  Cd19     1.0000 0.75106  0.43271  0.06878  Biso   1.000  Cd
  Cd20     1.0000 0.85792  0.50172  0.28540  Biso   1.000  Cd
  Mg10     1.0000 0.80738  0.46819  0.17334  Biso   1.000  Mg
  O145     1.0000 0.07349  0.72654  0.45620  Biso   1.000  O
  O146     1.0000 0.82188  0.46014  0.33720  Biso   1.000  O
  O147     1.0000 0.80421  0.44865  0.25120  Biso   1.000  O
  O148     1.0000 0.05656  0.69955  0.53450  Biso   1.000  O
  O149     1.0000 0.96386  0.22217  0.26350  Biso   1.000  O
  O150     1.0000 0.93868  0.23750  0.34470  Biso   1.000  O
  O151     1.0000 0.54860  0.63210  0.33090  Biso   1.000  O
  O152     1.0000 0.54040  0.66020  0.25040  Biso   1.000  O
  O153     1.0000 0.74831  0.48315  0.17770  Biso   1.000  O
  O154     1.0000 0.71114  0.47775  0.10300  Biso   1.000  O
  O155     1.0000 0.87932  0.53024  0.36900  Biso   1.000  O
  O156     1.0000 0.90630  0.55027  0.29150  Biso   1.000  O
  O157     1.0000 0.61583  0.29657  0.42080  Biso   1.000  O
  O158     1.0000 0.64910  0.29141  0.50090  Biso   1.000  O
  O159     1.0000 0.78997  0.41248  0.14350  Biso   1.000  O
  O160     1.0000 0.80085  0.38355  0.06430  Biso   1.000  O
  C613     1.0000 0.67680  0.33110  0.43230  Biso   1.000  C
  C614     1.0000 0.70370  0.34740  0.46910  Biso   1.000  C
  H325     1.0000 0.70170  0.34150  0.50630  Biso   1.000  H
  C615     1.0000 0.71830  0.49070  0.14960  Biso   1.000  C
  C616     1.0000 0.73270  0.37180  0.45150  Biso   1.000  C
  H326     1.0000 0.75020  0.38270  0.47680  Biso   1.000  H
  C617     1.0000 0.55760  0.63470  0.28270  Biso   1.000  C
  C618     1.0000 0.76650  0.40660  0.37600  Biso   1.000  C
  H327     1.0000 0.78420  0.41780  0.40080  Biso   1.000  H
  C619     1.0000 0.80110  0.44340  0.30180  Biso   1.000  C
  C620     1.0000 0.76950  0.41540  0.32130  Biso   1.000  C
  C621     1.0000 0.73700  0.38080  0.39490  Biso   1.000  C
  C622     1.0000 0.67930  0.33940  0.37780  Biso   1.000  C
  H328     1.0000 0.66110  0.32830  0.35350  Biso   1.000  H
  C623     1.0000 0.70940  0.36480  0.35750  Biso   1.000  C
  C624     1.0000 0.71320  0.37380  0.30200  Biso   1.000  C
  H329     1.0000 0.69520  0.36300  0.27720  Biso   1.000  H
  C625     1.0000 0.74270  0.39830  0.28260  Biso   1.000  C
  H330     1.0000 0.74510  0.40350  0.24530  Biso   1.000  H
  C626     1.0000 0.64440  0.30440  0.45220  Biso   1.000  C
  C627     1.0000 0.02640  0.67650  0.44550  Biso   1.000  C
  C628     1.0000 0.02860  0.67750  0.38860  Biso   1.000  C
  H331     1.0000 0.04650  0.69430  0.37160  Biso   1.000  H
  C629     1.0000 0.00060  0.65210  0.47150  Biso   1.000  C
  H332     1.0000 0.99990  0.65130  0.50960  Biso   1.000  H
  C630     1.0000 0.00500  0.65440  0.35790  Biso   1.000  C
  H333     1.0000 0.00620  0.65550  0.31980  Biso   1.000  H
  C631     1.0000 0.97790  0.62810  0.38460  Biso   1.000  C
  C632     1.0000 0.95250  0.60260  0.35290  Biso   1.000  C
  H334     1.0000 0.95370  0.60300  0.31480  Biso   1.000  H
  C633     1.0000 0.92670  0.57800  0.37910  Biso   1.000  C
  C634     1.0000 0.92290  0.57860  0.43630  Biso   1.000  C
  H335     1.0000 0.90440  0.56250  0.45360  Biso   1.000  H
  C635     1.0000 0.94670  0.60300  0.46670  Biso   1.000  C
  H336     1.0000 0.94450  0.60330  0.50480  Biso   1.000  H
  C636     1.0000 0.97460  0.62780  0.44050  Biso   1.000  C
  C637     1.0000 0.05310  0.70200  0.48380  Biso   1.000  C
  C638     1.0000 0.90270  0.55140  0.34300  Biso   1.000  C
  C639     1.0000 0.94090  0.24160  0.29390  Biso   1.000  C
  C640     1.0000 0.91390  0.27140  0.26750  Biso   1.000  C
  C641     1.0000 0.88840  0.29470  0.30140  Biso   1.000  C
  H337     1.0000 0.88800  0.29060  0.33910  Biso   1.000  H
  C642     1.0000 0.86510  0.32240  0.27880  Biso   1.000  C
  H338     1.0000 0.84940  0.33800  0.30140  Biso   1.000  H
  C643     1.0000 0.86410  0.32820  0.22120  Biso   1.000  C
  C644     1.0000 0.83810  0.35620  0.19490  Biso   1.000  C
  H339     1.0000 0.82240  0.37250  0.21650  Biso   1.000  H
  C645     1.0000 0.83600  0.35920  0.14060  Biso   1.000  C
  C646     1.0000 0.80760  0.38700  0.11430  Biso   1.000  C
  C647     1.0000 0.86020  0.33510  0.10720  Biso   1.000  C
  H340     1.0000 0.85850  0.33720  0.06920  Biso   1.000  H
  C648     1.0000 0.88610  0.30870  0.13010  Biso   1.000  C
  H341     1.0000 0.90230  0.29340  0.10770  Biso   1.000  H
  C649     1.0000 0.88810  0.30480  0.18670  Biso   1.000  C
  C650     1.0000 0.91360  0.27680  0.21220  Biso   1.000  C
  H342     1.0000 0.93040  0.26180  0.19030  Biso   1.000  H
  C651     1.0000 0.68620  0.51980  0.16280  Biso   1.000  C
  C652     1.0000 0.62760  0.57250  0.19930  Biso   1.000  C
  C653     1.0000 0.65200  0.55350  0.24020  Biso   1.000  C
  C654     1.0000 0.63210  0.56420  0.14410  Biso   1.000  C
  H343     1.0000 0.61570  0.57630  0.11840  Biso   1.000  H
  C655     1.0000 0.66060  0.53810  0.12720  Biso   1.000  C
  H344     1.0000 0.66270  0.53260  0.08990  Biso   1.000  H
  C656     1.0000 0.59800  0.59960  0.22010  Biso   1.000  C
  H345     1.0000 0.58220  0.61330  0.19520  Biso   1.000  H
  C657     1.0000 0.68280  0.52670  0.21900  Biso   1.000  C
  H346     1.0000 0.70020  0.51440  0.24330  Biso   1.000  H
  C658     1.0000 0.59310  0.60550  0.27110  Biso   1.000  C
  C659     1.0000 0.64560  0.56180  0.29510  Biso   1.000  C
  H347     1.0000 0.66140  0.54950  0.32130  Biso   1.000  H
  C660     1.0000 0.61770  0.58650  0.31160  Biso   1.000  C
  H348     1.0000 0.61420  0.59170  0.34880  Biso   1.000  H
  C661     1.0000 0.69100  0.51690  0.24520  Biso   1.000  C
  H349     1.0000 0.70960  0.50230  0.26470  Biso   1.000  H
  C662     1.0000 0.68920  0.51470  0.18350  Biso   1.000  C
  C663     1.0000 0.66320  0.53620  0.15670  Biso   1.000  C
  H350     1.0000 0.66300  0.53580  0.11850  Biso   1.000  H
  C664     1.0000 0.63500  0.56030  0.18550  Biso   1.000  C
  C665     1.0000 0.63720  0.56270  0.24200  Biso   1.000  C
  C666     1.0000 0.66560  0.53960  0.27070  Biso   1.000  C
  H351     1.0000 0.66630  0.54080  0.30890  Biso   1.000  H
  C667     1.0000 0.60940  0.58770  0.26850  Biso   1.000  C
  H352     1.0000 0.60950  0.58850  0.30660  Biso   1.000  H
  C668     1.0000 0.58240  0.61060  0.24140  Biso   1.000  C
  C669     1.0000 0.58140  0.60780  0.18340  Biso   1.000  C
  H353     1.0000 0.56270  0.62230  0.16390  Biso   1.000  H
  C670     1.0000 0.60740  0.58400  0.15530  Biso   1.000  C
  H354     1.0000 0.60700  0.58330  0.11710  Biso   1.000  H
  C671     1.0000 0.02040  0.67370  0.47300  Biso   1.000  C
  C672     1.0000 0.99680  0.65250  0.51090  Biso   1.000  C
  H355     1.0000 0.00030  0.65610  0.54850  Biso   1.000  H
  C673     1.0000 0.96930  0.62720  0.49240  Biso   1.000  C
  H356     1.0000 0.95270  0.61470  0.51740  Biso   1.000  H
  C674     1.0000 0.01530  0.66850  0.41670  Biso   1.000  C
  H357     1.0000 0.03020  0.68370  0.39250  Biso   1.000  H
  C675     1.0000 0.99000  0.64270  0.39670  Biso   1.000  C
  C676     1.0000 0.96510  0.61950  0.43860  Biso   1.000  C
  C677     1.0000 0.93830  0.59350  0.41230  Biso   1.000  C
  H358     1.0000 0.92190  0.57910  0.43560  Biso   1.000  H
  C678     1.0000 0.93330  0.58690  0.36030  Biso   1.000  C
  C679     1.0000 0.95950  0.60830  0.32220  Biso   1.000  C
  H359     1.0000 0.95800  0.60340  0.28470  Biso   1.000  H
  C680     1.0000 0.98510  0.63480  0.34100  Biso   1.000  C
  H360     1.0000 0.00050  0.64860  0.31580  Biso   1.000  H
  Cd21     1.0000 0.25106  0.93271  0.06878  Biso   1.000  Cd
  Cd22     1.0000 0.35792  0.00172  0.28540  Biso   1.000  Cd
  Mg11     1.0000 0.30738  0.96819  0.17334  Biso   1.000  Mg
  O161     1.0000 0.57349  0.22654  0.45620  Biso   1.000  O
  O162     1.0000 0.32188  0.96014  0.33720  Biso   1.000  O
  O163     1.0000 0.30421  0.94865  0.25120  Biso   1.000  O
  O164     1.0000 0.55656  0.19955  0.53450  Biso   1.000  O
  O165     1.0000 0.46386  0.72217  0.26350  Biso   1.000  O
  O166     1.0000 0.43868  0.73750  0.34470  Biso   1.000  O
  O167     1.0000 0.04860  0.13210  0.33090  Biso   1.000  O
  O168     1.0000 0.04040  0.16020  0.25040  Biso   1.000  O
  O169     1.0000 0.24831  0.98315  0.17770  Biso   1.000  O
  O170     1.0000 0.21114  0.97775  0.10300  Biso   1.000  O
  O171     1.0000 0.37932  0.03024  0.36900  Biso   1.000  O
  O172     1.0000 0.40630  0.05027  0.29150  Biso   1.000  O
  O173     1.0000 0.11583  0.79657  0.42080  Biso   1.000  O
  O174     1.0000 0.14910  0.79141  0.50090  Biso   1.000  O
  O175     1.0000 0.28997  0.91248  0.14350  Biso   1.000  O
  O176     1.0000 0.30085  0.88355  0.06430  Biso   1.000  O
  C681     1.0000 0.17680  0.83110  0.43230  Biso   1.000  C
  C682     1.0000 0.20370  0.84740  0.46910  Biso   1.000  C
  H361     1.0000 0.20170  0.84150  0.50630  Biso   1.000  H
  C683     1.0000 0.21830  0.99070  0.14960  Biso   1.000  C
  C684     1.0000 0.23270  0.87180  0.45150  Biso   1.000  C
  H362     1.0000 0.25020  0.88270  0.47680  Biso   1.000  H
  C685     1.0000 0.05760  0.13470  0.28270  Biso   1.000  C
  C686     1.0000 0.26650  0.90660  0.37600  Biso   1.000  C
  H363     1.0000 0.28420  0.91780  0.40080  Biso   1.000  H
  C687     1.0000 0.30110  0.94340  0.30180  Biso   1.000  C
  C688     1.0000 0.26950  0.91540  0.32130  Biso   1.000  C
  C689     1.0000 0.23700  0.88080  0.39490  Biso   1.000  C
  C690     1.0000 0.17930  0.83940  0.37780  Biso   1.000  C
  H364     1.0000 0.16110  0.82830  0.35350  Biso   1.000  H
  C691     1.0000 0.20940  0.86480  0.35750  Biso   1.000  C
  C692     1.0000 0.21320  0.87380  0.30200  Biso   1.000  C
  H365     1.0000 0.19520  0.86300  0.27720  Biso   1.000  H
  C693     1.0000 0.24270  0.89830  0.28260  Biso   1.000  C
  H366     1.0000 0.24510  0.90350  0.24530  Biso   1.000  H
  C694     1.0000 0.14440  0.80440  0.45220  Biso   1.000  C
  C695     1.0000 0.52640  0.17650  0.44550  Biso   1.000  C
  C696     1.0000 0.52860  0.17750  0.38860  Biso   1.000  C
  H367     1.0000 0.54650  0.19430  0.37160  Biso   1.000  H
  C697     1.0000 0.50060  0.15210  0.47150  Biso   1.000  C
  H368     1.0000 0.49990  0.15130  0.50960  Biso   1.000  H
  C698     1.0000 0.50500  0.15440  0.35790  Biso   1.000  C
  H369     1.0000 0.50620  0.15550  0.31980  Biso   1.000  H
  C699     1.0000 0.47790  0.12810  0.38460  Biso   1.000  C
  C700     1.0000 0.45250  0.10260  0.35290  Biso   1.000  C
  H370     1.0000 0.45370  0.10300  0.31480  Biso   1.000  H
  C701     1.0000 0.42670  0.07800  0.37910  Biso   1.000  C
  C702     1.0000 0.42290  0.07860  0.43630  Biso   1.000  C
  H371     1.0000 0.40440  0.06250  0.45360  Biso   1.000  H
  C703     1.0000 0.44670  0.10300  0.46670  Biso   1.000  C
  H372     1.0000 0.44450  0.10330  0.50480  Biso   1.000  H
  C704     1.0000 0.47460  0.12780  0.44050  Biso   1.000  C
  C705     1.0000 0.55310  0.20200  0.48380  Biso   1.000  C
  C706     1.0000 0.40270  0.05140  0.34300  Biso   1.000  C
  C707     1.0000 0.44090  0.74160  0.29390  Biso   1.000  C
  C708     1.0000 0.41390  0.77140  0.26750  Biso   1.000  C
  C709     1.0000 0.38840  0.79470  0.30140  Biso   1.000  C
  H373     1.0000 0.38800  0.79060  0.33910  Biso   1.000  H
  C710     1.0000 0.36510  0.82240  0.27880  Biso   1.000  C
  H374     1.0000 0.34940  0.83800  0.30140  Biso   1.000  H
  C711     1.0000 0.36410  0.82820  0.22120  Biso   1.000  C
  C712     1.0000 0.33810  0.85620  0.19490  Biso   1.000  C
  H375     1.0000 0.32240  0.87250  0.21650  Biso   1.000  H
  C713     1.0000 0.33600  0.85920  0.14060  Biso   1.000  C
  C714     1.0000 0.30760  0.88700  0.11430  Biso   1.000  C
  C715     1.0000 0.36020  0.83510  0.10720  Biso   1.000  C
  H376     1.0000 0.35850  0.83720  0.06920  Biso   1.000  H
  C716     1.0000 0.38610  0.80870  0.13010  Biso   1.000  C
  H377     1.0000 0.40230  0.79340  0.10770  Biso   1.000  H
  C717     1.0000 0.38810  0.80480  0.18670  Biso   1.000  C
  C718     1.0000 0.41360  0.77680  0.21220  Biso   1.000  C
  H378     1.0000 0.43040  0.76180  0.19030  Biso   1.000  H
  C719     1.0000 0.18620  0.01980  0.16280  Biso   1.000  C
  C720     1.0000 0.12760  0.07250  0.19930  Biso   1.000  C
  C721     1.0000 0.15200  0.05350  0.24020  Biso   1.000  C
  C722     1.0000 0.13210  0.06420  0.14410  Biso   1.000  C
  H379     1.0000 0.11570  0.07630  0.11840  Biso   1.000  H
  C723     1.0000 0.16060  0.03810  0.12720  Biso   1.000  C
  H380     1.0000 0.16270  0.03260  0.08990  Biso   1.000  H
  C724     1.0000 0.09800  0.09960  0.22010  Biso   1.000  C
  H381     1.0000 0.08220  0.11330  0.19520  Biso   1.000  H
  C725     1.0000 0.18280  0.02670  0.21900  Biso   1.000  C
  H382     1.0000 0.20020  0.01440  0.24330  Biso   1.000  H
  C726     1.0000 0.09310  0.10550  0.27110  Biso   1.000  C
  C727     1.0000 0.14560  0.06180  0.29510  Biso   1.000  C
  H383     1.0000 0.16140  0.04950  0.32130  Biso   1.000  H
  C728     1.0000 0.11770  0.08650  0.31160  Biso   1.000  C
  H384     1.0000 0.11420  0.09170  0.34880  Biso   1.000  H
  C729     1.0000 0.19100  0.01690  0.24520  Biso   1.000  C
  H385     1.0000 0.20960  0.00230  0.26470  Biso   1.000  H
  C730     1.0000 0.18920  0.01470  0.18350  Biso   1.000  C
  C731     1.0000 0.16320  0.03620  0.15670  Biso   1.000  C
  H386     1.0000 0.16300  0.03580  0.11850  Biso   1.000  H
  C732     1.0000 0.13500  0.06030  0.18550  Biso   1.000  C
  C733     1.0000 0.13720  0.06270  0.24200  Biso   1.000  C
  C734     1.0000 0.16560  0.03960  0.27070  Biso   1.000  C
  H387     1.0000 0.16630  0.04080  0.30890  Biso   1.000  H
  C735     1.0000 0.10940  0.08770  0.26850  Biso   1.000  C
  H388     1.0000 0.10950  0.08850  0.30660  Biso   1.000  H
  C736     1.0000 0.08240  0.11060  0.24140  Biso   1.000  C
  C737     1.0000 0.08140  0.10780  0.18340  Biso   1.000  C
  H389     1.0000 0.06270  0.12230  0.16390  Biso   1.000  H
  C738     1.0000 0.10740  0.08400  0.15530  Biso   1.000  C
  H390     1.0000 0.10700  0.08330  0.11710  Biso   1.000  H
  C739     1.0000 0.52040  0.17370  0.47300  Biso   1.000  C
  C740     1.0000 0.49680  0.15250  0.51090  Biso   1.000  C
  H391     1.0000 0.50030  0.15610  0.54850  Biso   1.000  H
  C741     1.0000 0.46930  0.12720  0.49240  Biso   1.000  C
  H392     1.0000 0.45270  0.11470  0.51740  Biso   1.000  H
  C742     1.0000 0.51530  0.16850  0.41670  Biso   1.000  C
  H393     1.0000 0.53020  0.18370  0.39250  Biso   1.000  H
  C743     1.0000 0.49000  0.14270  0.39670  Biso   1.000  C
  C744     1.0000 0.46510  0.11950  0.43860  Biso   1.000  C
  C745     1.0000 0.43830  0.09350  0.41230  Biso   1.000  C
  H394     1.0000 0.42190  0.07910  0.43560  Biso   1.000  H
  C746     1.0000 0.43330  0.08690  0.36030  Biso   1.000  C
  C747     1.0000 0.45950  0.10830  0.32220  Biso   1.000  C
  H395     1.0000 0.45800  0.10340  0.28470  Biso   1.000  H
  C748     1.0000 0.48510  0.13480  0.34100  Biso   1.000  C
  H396     1.0000 0.50050  0.14860  0.31580  Biso   1.000  H
  Cd23     1.0000 0.25106  0.43271  0.56878  Biso   1.000  Cd
  Cd24     1.0000 0.35792  0.50172  0.78540  Biso   1.000  Cd
  Mg12     1.0000 0.30738  0.46819  0.67334  Biso   1.000  Mg
  O177     1.0000 0.57349  0.72654  0.95620  Biso   1.000  O
  O178     1.0000 0.32188  0.46014  0.83720  Biso   1.000  O
  O179     1.0000 0.30421  0.44865  0.75120  Biso   1.000  O
  O180     1.0000 0.55656  0.69955  0.03450  Biso   1.000  O
  O181     1.0000 0.46386  0.22217  0.76350  Biso   1.000  O
  O182     1.0000 0.43868  0.23750  0.84470  Biso   1.000  O
  O183     1.0000 0.04860  0.63210  0.83090  Biso   1.000  O
  O184     1.0000 0.04040  0.66020  0.75040  Biso   1.000  O
  O185     1.0000 0.24831  0.48315  0.67770  Biso   1.000  O
  O186     1.0000 0.21114  0.47775  0.60300  Biso   1.000  O
  O187     1.0000 0.37932  0.53024  0.86900  Biso   1.000  O
  O188     1.0000 0.40630  0.55027  0.79150  Biso   1.000  O
  O189     1.0000 0.11583  0.29657  0.92080  Biso   1.000  O
  O190     1.0000 0.14910  0.29141  0.00090  Biso   1.000  O
  O191     1.0000 0.28997  0.41248  0.64350  Biso   1.000  O
  O192     1.0000 0.30085  0.38355  0.56430  Biso   1.000  O
  C749     1.0000 0.17680  0.33110  0.93230  Biso   1.000  C
  C750     1.0000 0.20370  0.34740  0.96910  Biso   1.000  C
  H397     1.0000 0.20170  0.34150  0.00630  Biso   1.000  H
  C751     1.0000 0.21830  0.49070  0.64960  Biso   1.000  C
  C752     1.0000 0.23270  0.37180  0.95150  Biso   1.000  C
  H398     1.0000 0.25020  0.38270  0.97680  Biso   1.000  H
  C753     1.0000 0.05760  0.63470  0.78270  Biso   1.000  C
  C754     1.0000 0.26650  0.40660  0.87600  Biso   1.000  C
  H399     1.0000 0.28420  0.41780  0.90080  Biso   1.000  H
  C755     1.0000 0.30110  0.44340  0.80180  Biso   1.000  C
  C756     1.0000 0.26950  0.41540  0.82130  Biso   1.000  C
  C757     1.0000 0.23700  0.38080  0.89490  Biso   1.000  C
  C758     1.0000 0.17930  0.33940  0.87780  Biso   1.000  C
  H400     1.0000 0.16110  0.32830  0.85350  Biso   1.000  H
  C759     1.0000 0.20940  0.36480  0.85750  Biso   1.000  C
  C760     1.0000 0.21320  0.37380  0.80200  Biso   1.000  C
  H401     1.0000 0.19520  0.36300  0.77720  Biso   1.000  H
  C761     1.0000 0.24270  0.39830  0.78260  Biso   1.000  C
  H402     1.0000 0.24510  0.40350  0.74530  Biso   1.000  H
  C762     1.0000 0.14440  0.30440  0.95220  Biso   1.000  C
  C763     1.0000 0.52640  0.67650  0.94550  Biso   1.000  C
  C764     1.0000 0.52860  0.67750  0.88860  Biso   1.000  C
  H403     1.0000 0.54650  0.69430  0.87160  Biso   1.000  H
  C765     1.0000 0.50060  0.65210  0.97150  Biso   1.000  C
  H404     1.0000 0.49990  0.65130  0.00960  Biso   1.000  H
  C766     1.0000 0.50500  0.65440  0.85790  Biso   1.000  C
  H405     1.0000 0.50620  0.65550  0.81980  Biso   1.000  H
  C767     1.0000 0.47790  0.62810  0.88460  Biso   1.000  C
  C768     1.0000 0.45250  0.60260  0.85290  Biso   1.000  C
  H406     1.0000 0.45370  0.60300  0.81480  Biso   1.000  H
  C769     1.0000 0.42670  0.57800  0.87910  Biso   1.000  C
  C770     1.0000 0.42290  0.57860  0.93630  Biso   1.000  C
  H407     1.0000 0.40440  0.56250  0.95360  Biso   1.000  H
  C771     1.0000 0.44670  0.60300  0.96670  Biso   1.000  C
  H408     1.0000 0.44450  0.60330  0.00480  Biso   1.000  H
  C772     1.0000 0.47460  0.62780  0.94050  Biso   1.000  C
  C773     1.0000 0.55310  0.70200  0.98380  Biso   1.000  C
  C774     1.0000 0.40270  0.55140  0.84300  Biso   1.000  C
  C775     1.0000 0.44090  0.24160  0.79390  Biso   1.000  C
  C776     1.0000 0.41390  0.27140  0.76750  Biso   1.000  C
  C777     1.0000 0.38840  0.29470  0.80140  Biso   1.000  C
  H409     1.0000 0.38800  0.29060  0.83910  Biso   1.000  H
  C778     1.0000 0.36510  0.32240  0.77880  Biso   1.000  C
  H410     1.0000 0.34940  0.33800  0.80140  Biso   1.000  H
  C779     1.0000 0.36410  0.32820  0.72120  Biso   1.000  C
  C780     1.0000 0.33810  0.35620  0.69490  Biso   1.000  C
  H411     1.0000 0.32240  0.37250  0.71650  Biso   1.000  H
  C781     1.0000 0.33600  0.35920  0.64060  Biso   1.000  C
  C782     1.0000 0.30760  0.38700  0.61430  Biso   1.000  C
  C783     1.0000 0.36020  0.33510  0.60720  Biso   1.000  C
  H412     1.0000 0.35850  0.33720  0.56920  Biso   1.000  H
  C784     1.0000 0.38610  0.30870  0.63010  Biso   1.000  C
  H413     1.0000 0.40230  0.29340  0.60770  Biso   1.000  H
  C785     1.0000 0.38810  0.30480  0.68670  Biso   1.000  C
  C786     1.0000 0.41360  0.27680  0.71220  Biso   1.000  C
  H414     1.0000 0.43040  0.26180  0.69030  Biso   1.000  H
  C787     1.0000 0.18620  0.51980  0.66280  Biso   1.000  C
  C788     1.0000 0.12760  0.57250  0.69930  Biso   1.000  C
  C789     1.0000 0.15200  0.55350  0.74020  Biso   1.000  C
  C790     1.0000 0.13210  0.56420  0.64410  Biso   1.000  C
  H415     1.0000 0.11570  0.57630  0.61840  Biso   1.000  H
  C791     1.0000 0.16060  0.53810  0.62720  Biso   1.000  C
  H416     1.0000 0.16270  0.53260  0.58990  Biso   1.000  H
  C792     1.0000 0.09800  0.59960  0.72010  Biso   1.000  C
  H417     1.0000 0.08220  0.61330  0.69520  Biso   1.000  H
  C793     1.0000 0.18280  0.52670  0.71900  Biso   1.000  C
  H418     1.0000 0.20020  0.51440  0.74330  Biso   1.000  H
  C794     1.0000 0.09310  0.60550  0.77110  Biso   1.000  C
  C795     1.0000 0.14560  0.56180  0.79510  Biso   1.000  C
  H419     1.0000 0.16140  0.54950  0.82130  Biso   1.000  H
  C796     1.0000 0.11770  0.58650  0.81160  Biso   1.000  C
  H420     1.0000 0.11420  0.59170  0.84880  Biso   1.000  H
  C797     1.0000 0.19100  0.51690  0.74520  Biso   1.000  C
  H421     1.0000 0.20960  0.50230  0.76470  Biso   1.000  H
  C798     1.0000 0.18920  0.51470  0.68350  Biso   1.000  C
  C799     1.0000 0.16320  0.53620  0.65670  Biso   1.000  C
  H422     1.0000 0.16300  0.53580  0.61850  Biso   1.000  H
  C800     1.0000 0.13500  0.56030  0.68550  Biso   1.000  C
  C801     1.0000 0.13720  0.56270  0.74200  Biso   1.000  C
  C802     1.0000 0.16560  0.53960  0.77070  Biso   1.000  C
  H423     1.0000 0.16630  0.54080  0.80890  Biso   1.000  H
  C803     1.0000 0.10940  0.58770  0.76850  Biso   1.000  C
  H424     1.0000 0.10950  0.58850  0.80660  Biso   1.000  H
  C804     1.0000 0.08240  0.61060  0.74140  Biso   1.000  C
  C805     1.0000 0.08140  0.60780  0.68340  Biso   1.000  C
  H425     1.0000 0.06270  0.62230  0.66390  Biso   1.000  H
  C806     1.0000 0.10740  0.58400  0.65530  Biso   1.000  C
  H426     1.0000 0.10700  0.58330  0.61710  Biso   1.000  H
  C807     1.0000 0.52040  0.67370  0.97300  Biso   1.000  C
  C808     1.0000 0.49680  0.65250  0.01090  Biso   1.000  C
  H427     1.0000 0.50030  0.65610  0.04850  Biso   1.000  H
  C809     1.0000 0.46930  0.62720  0.99240  Biso   1.000  C
  H428     1.0000 0.45270  0.61470  0.01740  Biso   1.000  H
  C810     1.0000 0.51530  0.66850  0.91670  Biso   1.000  C
  H429     1.0000 0.53020  0.68370  0.89250  Biso   1.000  H
  C811     1.0000 0.49000  0.64270  0.89670  Biso   1.000  C
  C812     1.0000 0.46510  0.61950  0.93860  Biso   1.000  C
  C813     1.0000 0.43830  0.59350  0.91230  Biso   1.000  C
  H430     1.0000 0.42190  0.57910  0.93560  Biso   1.000  H
  C814     1.0000 0.43330  0.58690  0.86030  Biso   1.000  C
  C815     1.0000 0.45950  0.60830  0.82220  Biso   1.000  C
  H431     1.0000 0.45800  0.60340  0.78470  Biso   1.000  H
  C816     1.0000 0.48510  0.63480  0.84100  Biso   1.000  C
  H432     1.0000 0.50050  0.64860  0.81580  Biso   1.000  H
  Cd25     1.0000 0.74894  0.56729  0.56878  Biso   1.000  Cd
  Cd26     1.0000 0.64208  0.49828  0.78540  Biso   1.000  Cd
  Mg13     1.0000 0.69262  0.53181  0.67334  Biso   1.000  Mg
  O193     1.0000 0.42651  0.27346  0.95620  Biso   1.000  O
  O194     1.0000 0.67812  0.53986  0.83720  Biso   1.000  O
  O195     1.0000 0.69579  0.55135  0.75120  Biso   1.000  O
  O196     1.0000 0.44344  0.30045  0.03450  Biso   1.000  O
  O197     1.0000 0.53614  0.77783  0.76350  Biso   1.000  O
  O198     1.0000 0.56132  0.76250  0.84470  Biso   1.000  O
  O199     1.0000 0.95140  0.36790  0.83090  Biso   1.000  O
  O200     1.0000 0.95960  0.33980  0.75040  Biso   1.000  O
  O201     1.0000 0.75169  0.51685  0.67770  Biso   1.000  O
  O202     1.0000 0.78886  0.52225  0.60300  Biso   1.000  O
  O203     1.0000 0.62068  0.46976  0.86900  Biso   1.000  O
  O204     1.0000 0.59370  0.44973  0.79150  Biso   1.000  O
  O205     1.0000 0.88417  0.70343  0.92080  Biso   1.000  O
  O206     1.0000 0.85090  0.70859  0.00090  Biso   1.000  O
  O207     1.0000 0.71003  0.58752  0.64350  Biso   1.000  O
  O208     1.0000 0.69915  0.61645  0.56430  Biso   1.000  O
  C817     1.0000 0.82320  0.66890  0.93230  Biso   1.000  C
  C818     1.0000 0.79630  0.65260  0.96910  Biso   1.000  C
  H433     1.0000 0.79830  0.65850  0.00630  Biso   1.000  H
  C819     1.0000 0.78170  0.50930  0.64960  Biso   1.000  C
  C820     1.0000 0.76730  0.62820  0.95150  Biso   1.000  C
  H434     1.0000 0.74980  0.61730  0.97680  Biso   1.000  H
  C821     1.0000 0.94240  0.36530  0.78270  Biso   1.000  C
  C822     1.0000 0.73350  0.59340  0.87600  Biso   1.000  C
  H435     1.0000 0.71580  0.58220  0.90080  Biso   1.000  H
  C823     1.0000 0.69890  0.55660  0.80180  Biso   1.000  C
  C824     1.0000 0.73050  0.58460  0.82130  Biso   1.000  C
  C825     1.0000 0.76300  0.61920  0.89490  Biso   1.000  C
  C826     1.0000 0.82070  0.66060  0.87780  Biso   1.000  C
  H436     1.0000 0.83890  0.67170  0.85350  Biso   1.000  H
  C827     1.0000 0.79060  0.63520  0.85750  Biso   1.000  C
  C828     1.0000 0.78680  0.62620  0.80200  Biso   1.000  C
  H437     1.0000 0.80480  0.63700  0.77720  Biso   1.000  H
  C829     1.0000 0.75730  0.60170  0.78260  Biso   1.000  C
  H438     1.0000 0.75490  0.59650  0.74530  Biso   1.000  H
  C830     1.0000 0.85560  0.69560  0.95220  Biso   1.000  C
  C831     1.0000 0.47360  0.32350  0.94550  Biso   1.000  C
  C832     1.0000 0.47140  0.32250  0.88860  Biso   1.000  C
  H439     1.0000 0.45350  0.30570  0.87160  Biso   1.000  H
  C833     1.0000 0.49940  0.34790  0.97150  Biso   1.000  C
  H440     1.0000 0.50010  0.34870  0.00960  Biso   1.000  H
  C834     1.0000 0.49500  0.34560  0.85790  Biso   1.000  C
  H441     1.0000 0.49380  0.34450  0.81980  Biso   1.000  H
  C835     1.0000 0.52210  0.37190  0.88460  Biso   1.000  C
  C836     1.0000 0.54750  0.39740  0.85290  Biso   1.000  C
  H442     1.0000 0.54630  0.39700  0.81480  Biso   1.000  H
  C837     1.0000 0.57330  0.42200  0.87910  Biso   1.000  C
  C838     1.0000 0.57710  0.42140  0.93630  Biso   1.000  C
  H443     1.0000 0.59560  0.43750  0.95360  Biso   1.000  H
  C839     1.0000 0.55330  0.39700  0.96670  Biso   1.000  C
  H444     1.0000 0.55550  0.39670  0.00480  Biso   1.000  H
  C840     1.0000 0.52540  0.37220  0.94050  Biso   1.000  C
  C841     1.0000 0.44690  0.29800  0.98380  Biso   1.000  C
  C842     1.0000 0.59730  0.44860  0.84300  Biso   1.000  C
  C843     1.0000 0.55910  0.75840  0.79390  Biso   1.000  C
  C844     1.0000 0.58610  0.72860  0.76750  Biso   1.000  C
  C845     1.0000 0.61160  0.70530  0.80140  Biso   1.000  C
  H445     1.0000 0.61200  0.70940  0.83910  Biso   1.000  H
  C846     1.0000 0.63490  0.67760  0.77880  Biso   1.000  C
  H446     1.0000 0.65060  0.66200  0.80140  Biso   1.000  H
  C847     1.0000 0.63590  0.67180  0.72120  Biso   1.000  C
  C848     1.0000 0.66190  0.64380  0.69490  Biso   1.000  C
  H447     1.0000 0.67760  0.62750  0.71650  Biso   1.000  H
  C849     1.0000 0.66400  0.64080  0.64060  Biso   1.000  C
  C850     1.0000 0.69240  0.61300  0.61430  Biso   1.000  C
  C851     1.0000 0.63980  0.66490  0.60720  Biso   1.000  C
  H448     1.0000 0.64150  0.66280  0.56920  Biso   1.000  H
  C852     1.0000 0.61390  0.69130  0.63010  Biso   1.000  C
  H449     1.0000 0.59770  0.70660  0.60770  Biso   1.000  H
  C853     1.0000 0.61190  0.69520  0.68670  Biso   1.000  C
  C854     1.0000 0.58640  0.72320  0.71220  Biso   1.000  C
  H450     1.0000 0.56960  0.73820  0.69030  Biso   1.000  H
  C855     1.0000 0.81380  0.48020  0.66280  Biso   1.000  C
  C856     1.0000 0.87240  0.42750  0.69930  Biso   1.000  C
  C857     1.0000 0.84800  0.44650  0.74020  Biso   1.000  C
  C858     1.0000 0.86790  0.43580  0.64410  Biso   1.000  C
  H451     1.0000 0.88430  0.42370  0.61840  Biso   1.000  H
  C859     1.0000 0.83940  0.46190  0.62720  Biso   1.000  C
  H452     1.0000 0.83730  0.46740  0.58990  Biso   1.000  H
  C860     1.0000 0.90200  0.40040  0.72010  Biso   1.000  C
  H453     1.0000 0.91780  0.38670  0.69520  Biso   1.000  H
  C861     1.0000 0.81720  0.47330  0.71900  Biso   1.000  C
  H454     1.0000 0.79980  0.48560  0.74330  Biso   1.000  H
  C862     1.0000 0.90690  0.39450  0.77110  Biso   1.000  C
  C863     1.0000 0.85440  0.43820  0.79510  Biso   1.000  C
  H455     1.0000 0.83860  0.45050  0.82130  Biso   1.000  H
  C864     1.0000 0.88230  0.41350  0.81160  Biso   1.000  C
  H456     1.0000 0.88580  0.40830  0.84880  Biso   1.000  H
  C865     1.0000 0.80900  0.48310  0.74520  Biso   1.000  C
  H457     1.0000 0.79040  0.49770  0.76470  Biso   1.000  H
  C866     1.0000 0.81080  0.48530  0.68350  Biso   1.000  C
  C867     1.0000 0.83680  0.46380  0.65670  Biso   1.000  C
  H458     1.0000 0.83700  0.46420  0.61850  Biso   1.000  H
  C868     1.0000 0.86500  0.43970  0.68550  Biso   1.000  C
  C869     1.0000 0.86280  0.43730  0.74200  Biso   1.000  C
  C870     1.0000 0.83440  0.46040  0.77070  Biso   1.000  C
  H459     1.0000 0.83370  0.45920  0.80890  Biso   1.000  H
  C871     1.0000 0.89060  0.41230  0.76850  Biso   1.000  C
  H460     1.0000 0.89050  0.41150  0.80660  Biso   1.000  H
  C872     1.0000 0.91760  0.38940  0.74140  Biso   1.000  C
  C873     1.0000 0.91860  0.39220  0.68340  Biso   1.000  C
  H461     1.0000 0.93730  0.37770  0.66390  Biso   1.000  H
  C874     1.0000 0.89260  0.41600  0.65530  Biso   1.000  C
  H462     1.0000 0.89300  0.41670  0.61710  Biso   1.000  H
  C875     1.0000 0.47960  0.32630  0.97300  Biso   1.000  C
  C876     1.0000 0.50320  0.34750  0.01090  Biso   1.000  C
  H463     1.0000 0.49970  0.34390  0.04850  Biso   1.000  H
  C877     1.0000 0.53070  0.37280  0.99240  Biso   1.000  C
  H464     1.0000 0.54730  0.38530  0.01740  Biso   1.000  H
  C878     1.0000 0.48470  0.33150  0.91670  Biso   1.000  C
  H465     1.0000 0.46980  0.31630  0.89250  Biso   1.000  H
  C879     1.0000 0.51000  0.35730  0.89670  Biso   1.000  C
  C880     1.0000 0.53490  0.38050  0.93860  Biso   1.000  C
  C881     1.0000 0.56170  0.40650  0.91230  Biso   1.000  C
  H466     1.0000 0.57810  0.42090  0.93560  Biso   1.000  H
  C882     1.0000 0.56670  0.41310  0.86030  Biso   1.000  C
  C883     1.0000 0.54050  0.39170  0.82220  Biso   1.000  C
  H467     1.0000 0.54200  0.39660  0.78470  Biso   1.000  H
  C884     1.0000 0.51490  0.36520  0.84100  Biso   1.000  C
  H468     1.0000 0.49950  0.35140  0.81580  Biso   1.000  H
  Cd27     1.0000 0.74894  0.06729  0.06878  Biso   1.000  Cd
  Cd28     1.0000 0.64208  0.99828  0.28540  Biso   1.000  Cd
  Mg14     1.0000 0.69262  0.03181  0.17334  Biso   1.000  Mg
  O209     1.0000 0.42651  0.77346  0.45620  Biso   1.000  O
  O210     1.0000 0.67812  0.03986  0.33720  Biso   1.000  O
  O211     1.0000 0.69579  0.05135  0.25120  Biso   1.000  O
  O212     1.0000 0.44344  0.80045  0.53450  Biso   1.000  O
  O213     1.0000 0.53614  0.27783  0.26350  Biso   1.000  O
  O214     1.0000 0.56132  0.26250  0.34470  Biso   1.000  O
  O215     1.0000 0.95140  0.86790  0.33090  Biso   1.000  O
  O216     1.0000 0.95960  0.83980  0.25040  Biso   1.000  O
  O217     1.0000 0.75169  0.01685  0.17770  Biso   1.000  O
  O218     1.0000 0.78886  0.02225  0.10300  Biso   1.000  O
  O219     1.0000 0.62068  0.96976  0.36900  Biso   1.000  O
  O220     1.0000 0.59370  0.94973  0.29150  Biso   1.000  O
  O221     1.0000 0.88417  0.20343  0.42080  Biso   1.000  O
  O222     1.0000 0.85090  0.20859  0.50090  Biso   1.000  O
  O223     1.0000 0.71003  0.08752  0.14350  Biso   1.000  O
  O224     1.0000 0.69915  0.11645  0.06430  Biso   1.000  O
  C885     1.0000 0.82320  0.16890  0.43230  Biso   1.000  C
  C886     1.0000 0.79630  0.15260  0.46910  Biso   1.000  C
  H469     1.0000 0.79830  0.15850  0.50630  Biso   1.000  H
  C887     1.0000 0.78170  0.00930  0.14960  Biso   1.000  C
  C888     1.0000 0.76730  0.12820  0.45150  Biso   1.000  C
  H470     1.0000 0.74980  0.11730  0.47680  Biso   1.000  H
  C889     1.0000 0.94240  0.86530  0.28270  Biso   1.000  C
  C890     1.0000 0.73350  0.09340  0.37600  Biso   1.000  C
  H471     1.0000 0.71580  0.08220  0.40080  Biso   1.000  H
  C891     1.0000 0.69890  0.05660  0.30180  Biso   1.000  C
  C892     1.0000 0.73050  0.08460  0.32130  Biso   1.000  C
  C893     1.0000 0.76300  0.11920  0.39490  Biso   1.000  C
  C894     1.0000 0.82070  0.16060  0.37780  Biso   1.000  C
  H472     1.0000 0.83890  0.17170  0.35350  Biso   1.000  H
  C895     1.0000 0.79060  0.13520  0.35750  Biso   1.000  C
  C896     1.0000 0.78680  0.12620  0.30200  Biso   1.000  C
  H473     1.0000 0.80480  0.13700  0.27720  Biso   1.000  H
  C897     1.0000 0.75730  0.10170  0.28260  Biso   1.000  C
  H474     1.0000 0.75490  0.09650  0.24530  Biso   1.000  H
  C898     1.0000 0.85560  0.19560  0.45220  Biso   1.000  C
  C899     1.0000 0.47360  0.82350  0.44550  Biso   1.000  C
  C900     1.0000 0.47140  0.82250  0.38860  Biso   1.000  C
  H475     1.0000 0.45350  0.80570  0.37160  Biso   1.000  H
  C901     1.0000 0.49940  0.84790  0.47150  Biso   1.000  C
  H476     1.0000 0.50010  0.84870  0.50960  Biso   1.000  H
  C902     1.0000 0.49500  0.84560  0.35790  Biso   1.000  C
  H477     1.0000 0.49380  0.84450  0.31980  Biso   1.000  H
  C903     1.0000 0.52210  0.87190  0.38460  Biso   1.000  C
  C904     1.0000 0.54750  0.89740  0.35290  Biso   1.000  C
  H478     1.0000 0.54630  0.89700  0.31480  Biso   1.000  H
  C905     1.0000 0.57330  0.92200  0.37910  Biso   1.000  C
  C906     1.0000 0.57710  0.92140  0.43630  Biso   1.000  C
  H479     1.0000 0.59560  0.93750  0.45360  Biso   1.000  H
  C907     1.0000 0.55330  0.89700  0.46670  Biso   1.000  C
  H480     1.0000 0.55550  0.89670  0.50480  Biso   1.000  H
  C908     1.0000 0.52540  0.87220  0.44050  Biso   1.000  C
  C909     1.0000 0.44690  0.79800  0.48380  Biso   1.000  C
  C910     1.0000 0.59730  0.94860  0.34300  Biso   1.000  C
  C911     1.0000 0.55910  0.25840  0.29390  Biso   1.000  C
  C912     1.0000 0.58610  0.22860  0.26750  Biso   1.000  C
  C913     1.0000 0.61160  0.20530  0.30140  Biso   1.000  C
  H481     1.0000 0.61200  0.20940  0.33910  Biso   1.000  H
  C914     1.0000 0.63490  0.17760  0.27880  Biso   1.000  C
  H482     1.0000 0.65060  0.16200  0.30140  Biso   1.000  H
  C915     1.0000 0.63590  0.17180  0.22120  Biso   1.000  C
  C916     1.0000 0.66190  0.14380  0.19490  Biso   1.000  C
  H483     1.0000 0.67760  0.12750  0.21650  Biso   1.000  H
  C917     1.0000 0.66400  0.14080  0.14060  Biso   1.000  C
  C918     1.0000 0.69240  0.11300  0.11430  Biso   1.000  C
  C919     1.0000 0.63980  0.16490  0.10720  Biso   1.000  C
  H484     1.0000 0.64150  0.16280  0.06920  Biso   1.000  H
  C920     1.0000 0.61390  0.19130  0.13010  Biso   1.000  C
  H485     1.0000 0.59770  0.20660  0.10770  Biso   1.000  H
  C921     1.0000 0.61190  0.19520  0.18670  Biso   1.000  C
  C922     1.0000 0.58640  0.22320  0.21220  Biso   1.000  C
  H486     1.0000 0.56960  0.23820  0.19030  Biso   1.000  H
  C923     1.0000 0.81380  0.98020  0.16280  Biso   1.000  C
  C924     1.0000 0.87240  0.92750  0.19930  Biso   1.000  C
  C925     1.0000 0.84800  0.94650  0.24020  Biso   1.000  C
  C926     1.0000 0.86790  0.93580  0.14410  Biso   1.000  C
  H487     1.0000 0.88430  0.92370  0.11840  Biso   1.000  H
  C927     1.0000 0.83940  0.96190  0.12720  Biso   1.000  C
  H488     1.0000 0.83730  0.96740  0.08990  Biso   1.000  H
  C928     1.0000 0.90200  0.90040  0.22010  Biso   1.000  C
  H489     1.0000 0.91780  0.88670  0.19520  Biso   1.000  H
  C929     1.0000 0.81720  0.97330  0.21900  Biso   1.000  C
  H490     1.0000 0.79980  0.98560  0.24330  Biso   1.000  H
  C930     1.0000 0.90690  0.89450  0.27110  Biso   1.000  C
  C931     1.0000 0.85440  0.93820  0.29510  Biso   1.000  C
  H491     1.0000 0.83860  0.95050  0.32130  Biso   1.000  H
  C932     1.0000 0.88230  0.91350  0.31160  Biso   1.000  C
  H492     1.0000 0.88580  0.90830  0.34880  Biso   1.000  H
  C933     1.0000 0.80900  0.98310  0.24520  Biso   1.000  C
  H493     1.0000 0.79040  0.99770  0.26470  Biso   1.000  H
  C934     1.0000 0.81080  0.98530  0.18350  Biso   1.000  C
  C935     1.0000 0.83680  0.96380  0.15670  Biso   1.000  C
  H494     1.0000 0.83700  0.96420  0.11850  Biso   1.000  H
  C936     1.0000 0.86500  0.93970  0.18550  Biso   1.000  C
  C937     1.0000 0.86280  0.93730  0.24200  Biso   1.000  C
  C938     1.0000 0.83440  0.96040  0.27070  Biso   1.000  C
  H495     1.0000 0.83370  0.95920  0.30890  Biso   1.000  H
  C939     1.0000 0.89060  0.91230  0.26850  Biso   1.000  C
  H496     1.0000 0.89050  0.91150  0.30660  Biso   1.000  H
  C940     1.0000 0.91760  0.88940  0.24140  Biso   1.000  C
  C941     1.0000 0.91860  0.89220  0.18340  Biso   1.000  C
  H497     1.0000 0.93730  0.87770  0.16390  Biso   1.000  H
  C942     1.0000 0.89260  0.91600  0.15530  Biso   1.000  C
  H498     1.0000 0.89300  0.91670  0.11710  Biso   1.000  H
  C943     1.0000 0.47960  0.82630  0.47300  Biso   1.000  C
  C944     1.0000 0.50320  0.84750  0.51090  Biso   1.000  C
  H499     1.0000 0.49970  0.84390  0.54850  Biso   1.000  H
  C945     1.0000 0.53070  0.87280  0.49240  Biso   1.000  C
  H500     1.0000 0.54730  0.88530  0.51740  Biso   1.000  H
  C946     1.0000 0.48470  0.83150  0.41670  Biso   1.000  C
  H501     1.0000 0.46980  0.81630  0.39250  Biso   1.000  H
  C947     1.0000 0.51000  0.85730  0.39670  Biso   1.000  C
  C948     1.0000 0.53490  0.88050  0.43860  Biso   1.000  C
  C949     1.0000 0.56170  0.90650  0.41230  Biso   1.000  C
  H502     1.0000 0.57810  0.92090  0.43560  Biso   1.000  H
  C950     1.0000 0.56670  0.91310  0.36030  Biso   1.000  C
  C951     1.0000 0.54050  0.89170  0.32220  Biso   1.000  C
  H503     1.0000 0.54200  0.89660  0.28470  Biso   1.000  H
  C952     1.0000 0.51490  0.86520  0.34100  Biso   1.000  C
  H504     1.0000 0.49950  0.85140  0.31580  Biso   1.000  H
  Cd29     1.0000 0.24894  0.56729  0.06878  Biso   1.000  Cd
  Cd30     1.0000 0.14208  0.49828  0.28540  Biso   1.000  Cd
  Mg15     1.0000 0.19262  0.53181  0.17334  Biso   1.000  Mg
  O225     1.0000 0.92651  0.27346  0.45620  Biso   1.000  O
  O226     1.0000 0.17812  0.53986  0.33720  Biso   1.000  O
  O227     1.0000 0.19579  0.55135  0.25120  Biso   1.000  O
  O228     1.0000 0.94344  0.30045  0.53450  Biso   1.000  O
  O229     1.0000 0.03614  0.77783  0.26350  Biso   1.000  O
  O230     1.0000 0.06132  0.76250  0.34470  Biso   1.000  O
  O231     1.0000 0.45140  0.36790  0.33090  Biso   1.000  O
  O232     1.0000 0.45960  0.33980  0.25040  Biso   1.000  O
  O233     1.0000 0.25169  0.51685  0.17770  Biso   1.000  O
  O234     1.0000 0.28886  0.52225  0.10300  Biso   1.000  O
  O235     1.0000 0.12068  0.46976  0.36900  Biso   1.000  O
  O236     1.0000 0.09370  0.44973  0.29150  Biso   1.000  O
  O237     1.0000 0.38417  0.70343  0.42080  Biso   1.000  O
  O238     1.0000 0.35090  0.70859  0.50090  Biso   1.000  O
  O239     1.0000 0.21003  0.58752  0.14350  Biso   1.000  O
  O240     1.0000 0.19915  0.61645  0.06430  Biso   1.000  O
  C953     1.0000 0.32320  0.66890  0.43230  Biso   1.000  C
  C954     1.0000 0.29630  0.65260  0.46910  Biso   1.000  C
  H505     1.0000 0.29830  0.65850  0.50630  Biso   1.000  H
  C955     1.0000 0.28170  0.50930  0.14960  Biso   1.000  C
  C956     1.0000 0.26730  0.62820  0.45150  Biso   1.000  C
  H506     1.0000 0.24980  0.61730  0.47680  Biso   1.000  H
  C957     1.0000 0.44240  0.36530  0.28270  Biso   1.000  C
  C958     1.0000 0.23350  0.59340  0.37600  Biso   1.000  C
  H507     1.0000 0.21580  0.58220  0.40080  Biso   1.000  H
  C959     1.0000 0.19890  0.55660  0.30180  Biso   1.000  C
  C960     1.0000 0.23050  0.58460  0.32130  Biso   1.000  C
  C961     1.0000 0.26300  0.61920  0.39490  Biso   1.000  C
  C962     1.0000 0.32070  0.66060  0.37780  Biso   1.000  C
  H508     1.0000 0.33890  0.67170  0.35350  Biso   1.000  H
  C963     1.0000 0.29060  0.63520  0.35750  Biso   1.000  C
  C964     1.0000 0.28680  0.62620  0.30200  Biso   1.000  C
  H509     1.0000 0.30480  0.63700  0.27720  Biso   1.000  H
  C965     1.0000 0.25730  0.60170  0.28260  Biso   1.000  C
  H510     1.0000 0.25490  0.59650  0.24530  Biso   1.000  H
  C966     1.0000 0.35560  0.69560  0.45220  Biso   1.000  C
  C967     1.0000 0.97360  0.32350  0.44550  Biso   1.000  C
  C968     1.0000 0.97140  0.32250  0.38860  Biso   1.000  C
  H511     1.0000 0.95350  0.30570  0.37160  Biso   1.000  H
  C969     1.0000 0.99940  0.34790  0.47150  Biso   1.000  C
  H512     1.0000 0.00010  0.34870  0.50960  Biso   1.000  H
  C970     1.0000 0.99500  0.34560  0.35790  Biso   1.000  C
  H513     1.0000 0.99380  0.34450  0.31980  Biso   1.000  H
  C971     1.0000 0.02210  0.37190  0.38460  Biso   1.000  C
  C972     1.0000 0.04750  0.39740  0.35290  Biso   1.000  C
  H514     1.0000 0.04630  0.39700  0.31480  Biso   1.000  H
  C973     1.0000 0.07330  0.42200  0.37910  Biso   1.000  C
  C974     1.0000 0.07710  0.42140  0.43630  Biso   1.000  C
  H515     1.0000 0.09560  0.43750  0.45360  Biso   1.000  H
  C975     1.0000 0.05330  0.39700  0.46670  Biso   1.000  C
  H516     1.0000 0.05550  0.39670  0.50480  Biso   1.000  H
  C976     1.0000 0.02540  0.37220  0.44050  Biso   1.000  C
  C977     1.0000 0.94690  0.29800  0.48380  Biso   1.000  C
  C978     1.0000 0.09730  0.44860  0.34300  Biso   1.000  C
  C979     1.0000 0.05910  0.75840  0.29390  Biso   1.000  C
  C980     1.0000 0.08610  0.72860  0.26750  Biso   1.000  C
  C981     1.0000 0.11160  0.70530  0.30140  Biso   1.000  C
  H517     1.0000 0.11200  0.70940  0.33910  Biso   1.000  H
  C982     1.0000 0.13490  0.67760  0.27880  Biso   1.000  C
  H518     1.0000 0.15060  0.66200  0.30140  Biso   1.000  H
  C983     1.0000 0.13590  0.67180  0.22120  Biso   1.000  C
  C984     1.0000 0.16190  0.64380  0.19490  Biso   1.000  C
  H519     1.0000 0.17760  0.62750  0.21650  Biso   1.000  H
  C985     1.0000 0.16400  0.64080  0.14060  Biso   1.000  C
  C986     1.0000 0.19240  0.61300  0.11430  Biso   1.000  C
  C987     1.0000 0.13980  0.66490  0.10720  Biso   1.000  C
  H520     1.0000 0.14150  0.66280  0.06920  Biso   1.000  H
  C988     1.0000 0.11390  0.69130  0.13010  Biso   1.000  C
  H521     1.0000 0.09770  0.70660  0.10770  Biso   1.000  H
  C989     1.0000 0.11190  0.69520  0.18670  Biso   1.000  C
  C990     1.0000 0.08640  0.72320  0.21220  Biso   1.000  C
  H522     1.0000 0.06960  0.73820  0.19030  Biso   1.000  H
  C991     1.0000 0.31380  0.48020  0.16280  Biso   1.000  C
  C992     1.0000 0.37240  0.42750  0.19930  Biso   1.000  C
  C993     1.0000 0.34800  0.44650  0.24020  Biso   1.000  C
  C994     1.0000 0.36790  0.43580  0.14410  Biso   1.000  C
  H523     1.0000 0.38430  0.42370  0.11840  Biso   1.000  H
  C995     1.0000 0.33940  0.46190  0.12720  Biso   1.000  C
  H524     1.0000 0.33730  0.46740  0.08990  Biso   1.000  H
  C996     1.0000 0.40200  0.40040  0.22010  Biso   1.000  C
  H525     1.0000 0.41780  0.38670  0.19520  Biso   1.000  H
  C997     1.0000 0.31720  0.47330  0.21900  Biso   1.000  C
  H526     1.0000 0.29980  0.48560  0.24330  Biso   1.000  H
  C998     1.0000 0.40690  0.39450  0.27110  Biso   1.000  C
  C999     1.0000 0.35440  0.43820  0.29510  Biso   1.000  C
  H527     1.0000 0.33860  0.45050  0.32130  Biso   1.000  H
  C1000    1.0000 0.38230  0.41350  0.31160  Biso   1.000  C
  H528     1.0000 0.38580  0.40830  0.34880  Biso   1.000  H
  C1001    1.0000 0.30900  0.48310  0.24520  Biso   1.000  C
  H529     1.0000 0.29040  0.49770  0.26470  Biso   1.000  H
  C1002    1.0000 0.31080  0.48530  0.18350  Biso   1.000  C
  C1003    1.0000 0.33680  0.46380  0.15670  Biso   1.000  C
  H530     1.0000 0.33700  0.46420  0.11850  Biso   1.000  H
  C1004    1.0000 0.36500  0.43970  0.18550  Biso   1.000  C
  C1005    1.0000 0.36280  0.43730  0.24200  Biso   1.000  C
  C1006    1.0000 0.33440  0.46040  0.27070  Biso   1.000  C
  H531     1.0000 0.33370  0.45920  0.30890  Biso   1.000  H
  C1007    1.0000 0.39060  0.41230  0.26850  Biso   1.000  C
  H532     1.0000 0.39050  0.41150  0.30660  Biso   1.000  H
  C1008    1.0000 0.41760  0.38940  0.24140  Biso   1.000  C
  C1009    1.0000 0.41860  0.39220  0.18340  Biso   1.000  C
  H533     1.0000 0.43730  0.37770  0.16390  Biso   1.000  H
  C1010    1.0000 0.39260  0.41600  0.15530  Biso   1.000  C
  H534     1.0000 0.39300  0.41670  0.11710  Biso   1.000  H
  C1011    1.0000 0.97960  0.32630  0.47300  Biso   1.000  C
  C1012    1.0000 0.00320  0.34750  0.51090  Biso   1.000  C
  H535     1.0000 0.99970  0.34390  0.54850  Biso   1.000  H
  C1013    1.0000 0.03070  0.37280  0.49240  Biso   1.000  C
  H536     1.0000 0.04730  0.38530  0.51740  Biso   1.000  H
  C1014    1.0000 0.98470  0.33150  0.41670  Biso   1.000  C
  H537     1.0000 0.96980  0.31630  0.39250  Biso   1.000  H
  C1015    1.0000 0.01000  0.35730  0.39670  Biso   1.000  C
  C1016    1.0000 0.03490  0.38050  0.43860  Biso   1.000  C
  C1017    1.0000 0.06170  0.40650  0.41230  Biso   1.000  C
  H538     1.0000 0.07810  0.42090  0.43560  Biso   1.000  H
  C1018    1.0000 0.06670  0.41310  0.36030  Biso   1.000  C
  C1019    1.0000 0.04050  0.39170  0.32220  Biso   1.000  C
  H539     1.0000 0.04200  0.39660  0.28470  Biso   1.000  H
  C1020    1.0000 0.01490  0.36520  0.34100  Biso   1.000  C
  H540     1.0000 0.99950  0.35140  0.31580  Biso   1.000  H
  Cd31     1.0000 0.24894  0.06729  0.56878  Biso   1.000  Cd
  Cd32     1.0000 0.14208  0.99828  0.78540  Biso   1.000  Cd
  Mg16     1.0000 0.19262  0.03181  0.67334  Biso   1.000  Mg
  O241     1.0000 0.92651  0.77346  0.95620  Biso   1.000  O
  O242     1.0000 0.17812  0.03986  0.83720  Biso   1.000  O
  O243     1.0000 0.19579  0.05135  0.75120  Biso   1.000  O
  O244     1.0000 0.94344  0.80045  0.03450  Biso   1.000  O
  O245     1.0000 0.03614  0.27783  0.76350  Biso   1.000  O
  O246     1.0000 0.06132  0.26250  0.84470  Biso   1.000  O
  O247     1.0000 0.45140  0.86790  0.83090  Biso   1.000  O
  O248     1.0000 0.45960  0.83980  0.75040  Biso   1.000  O
  O249     1.0000 0.25169  0.01685  0.67770  Biso   1.000  O
  O250     1.0000 0.28886  0.02225  0.60300  Biso   1.000  O
  O251     1.0000 0.12068  0.96976  0.86900  Biso   1.000  O
  O252     1.0000 0.09370  0.94973  0.79150  Biso   1.000  O
  O253     1.0000 0.38417  0.20343  0.92080  Biso   1.000  O
  O254     1.0000 0.35090  0.20859  0.00090  Biso   1.000  O
  O255     1.0000 0.21003  0.08752  0.64350  Biso   1.000  O
  O256     1.0000 0.19915  0.11645  0.56430  Biso   1.000  O
  C1021    1.0000 0.32320  0.16890  0.93230  Biso   1.000  C
  C1022    1.0000 0.29630  0.15260  0.96910  Biso   1.000  C
  H541     1.0000 0.29830  0.15850  0.00630  Biso   1.000  H
  C1023    1.0000 0.28170  0.00930  0.64960  Biso   1.000  C
  C1024    1.0000 0.26730  0.12820  0.95150  Biso   1.000  C
  H542     1.0000 0.24980  0.11730  0.97680  Biso   1.000  H
  C1025    1.0000 0.44240  0.86530  0.78270  Biso   1.000  C
  C1026    1.0000 0.23350  0.09340  0.87600  Biso   1.000  C
  H543     1.0000 0.21580  0.08220  0.90080  Biso   1.000  H
  C1027    1.0000 0.19890  0.05660  0.80180  Biso   1.000  C
  C1028    1.0000 0.23050  0.08460  0.82130  Biso   1.000  C
  C1029    1.0000 0.26300  0.11920  0.89490  Biso   1.000  C
  C1030    1.0000 0.32070  0.16060  0.87780  Biso   1.000  C
  H544     1.0000 0.33890  0.17170  0.85350  Biso   1.000  H
  C1031    1.0000 0.29060  0.13520  0.85750  Biso   1.000  C
  C1032    1.0000 0.28680  0.12620  0.80200  Biso   1.000  C
  H545     1.0000 0.30480  0.13700  0.77720  Biso   1.000  H
  C1033    1.0000 0.25730  0.10170  0.78260  Biso   1.000  C
  H546     1.0000 0.25490  0.09650  0.74530  Biso   1.000  H
  C1034    1.0000 0.35560  0.19560  0.95220  Biso   1.000  C
  C1035    1.0000 0.97360  0.82350  0.94550  Biso   1.000  C
  C1036    1.0000 0.97140  0.82250  0.88860  Biso   1.000  C
  H547     1.0000 0.95350  0.80570  0.87160  Biso   1.000  H
  C1037    1.0000 0.99940  0.84790  0.97150  Biso   1.000  C
  H548     1.0000 0.00010  0.84870  0.00960  Biso   1.000  H
  C1038    1.0000 0.99500  0.84560  0.85790  Biso   1.000  C
  H549     1.0000 0.99380  0.84450  0.81980  Biso   1.000  H
  C1039    1.0000 0.02210  0.87190  0.88460  Biso   1.000  C
  C1040    1.0000 0.04750  0.89740  0.85290  Biso   1.000  C
  H550     1.0000 0.04630  0.89700  0.81480  Biso   1.000  H
  C1041    1.0000 0.07330  0.92200  0.87910  Biso   1.000  C
  C1042    1.0000 0.07710  0.92140  0.93630  Biso   1.000  C
  H551     1.0000 0.09560  0.93750  0.95360  Biso   1.000  H
  C1043    1.0000 0.05330  0.89700  0.96670  Biso   1.000  C
  H552     1.0000 0.05550  0.89670  0.00480  Biso   1.000  H
  C1044    1.0000 0.02540  0.87220  0.94050  Biso   1.000  C
  C1045    1.0000 0.94690  0.79800  0.98380  Biso   1.000  C
  C1046    1.0000 0.09730  0.94860  0.84300  Biso   1.000  C
  C1047    1.0000 0.05910  0.25840  0.79390  Biso   1.000  C
  C1048    1.0000 0.08610  0.22860  0.76750  Biso   1.000  C
  C1049    1.0000 0.11160  0.20530  0.80140  Biso   1.000  C
  H553     1.0000 0.11200  0.20940  0.83910  Biso   1.000  H
  C1050    1.0000 0.13490  0.17760  0.77880  Biso   1.000  C
  H554     1.0000 0.15060  0.16200  0.80140  Biso   1.000  H
  C1051    1.0000 0.13590  0.17180  0.72120  Biso   1.000  C
  C1052    1.0000 0.16190  0.14380  0.69490  Biso   1.000  C
  H555     1.0000 0.17760  0.12750  0.71650  Biso   1.000  H
  C1053    1.0000 0.16400  0.14080  0.64060  Biso   1.000  C
  C1054    1.0000 0.19240  0.11300  0.61430  Biso   1.000  C
  C1055    1.0000 0.13980  0.16490  0.60720  Biso   1.000  C
  H556     1.0000 0.14150  0.16280  0.56920  Biso   1.000  H
  C1056    1.0000 0.11390  0.19130  0.63010  Biso   1.000  C
  H557     1.0000 0.09770  0.20660  0.60770  Biso   1.000  H
  C1057    1.0000 0.11190  0.19520  0.68670  Biso   1.000  C
  C1058    1.0000 0.08640  0.22320  0.71220  Biso   1.000  C
  H558     1.0000 0.06960  0.23820  0.69030  Biso   1.000  H
  C1059    1.0000 0.31380  0.98020  0.66280  Biso   1.000  C
  C1060    1.0000 0.37240  0.92750  0.69930  Biso   1.000  C
  C1061    1.0000 0.34800  0.94650  0.74020  Biso   1.000  C
  C1062    1.0000 0.36790  0.93580  0.64410  Biso   1.000  C
  H559     1.0000 0.38430  0.92370  0.61840  Biso   1.000  H
  C1063    1.0000 0.33940  0.96190  0.62720  Biso   1.000  C
  H560     1.0000 0.33730  0.96740  0.58990  Biso   1.000  H
  C1064    1.0000 0.40200  0.90040  0.72010  Biso   1.000  C
  H561     1.0000 0.41780  0.88670  0.69520  Biso   1.000  H
  C1065    1.0000 0.31720  0.97330  0.71900  Biso   1.000  C
  H562     1.0000 0.29980  0.98560  0.74330  Biso   1.000  H
  C1066    1.0000 0.40690  0.89450  0.77110  Biso   1.000  C
  C1067    1.0000 0.35440  0.93820  0.79510  Biso   1.000  C
  H563     1.0000 0.33860  0.95050  0.82130  Biso   1.000  H
  C1068    1.0000 0.38230  0.91350  0.81160  Biso   1.000  C
  H564     1.0000 0.38580  0.90830  0.84880  Biso   1.000  H
  C1069    1.0000 0.30900  0.98310  0.74520  Biso   1.000  C
  H565     1.0000 0.29040  0.99770  0.76470  Biso   1.000  H
  C1070    1.0000 0.31080  0.98530  0.68350  Biso   1.000  C
  C1071    1.0000 0.33680  0.96380  0.65670  Biso   1.000  C
  H566     1.0000 0.33700  0.96420  0.61850  Biso   1.000  H
  C1072    1.0000 0.36500  0.93970  0.68550  Biso   1.000  C
  C1073    1.0000 0.36280  0.93730  0.74200  Biso   1.000  C
  C1074    1.0000 0.33440  0.96040  0.77070  Biso   1.000  C
  H567     1.0000 0.33370  0.95920  0.80890  Biso   1.000  H
  C1075    1.0000 0.39060  0.91230  0.76850  Biso   1.000  C
  H568     1.0000 0.39050  0.91150  0.80660  Biso   1.000  H
  C1076    1.0000 0.41760  0.88940  0.74140  Biso   1.000  C
  C1077    1.0000 0.41860  0.89220  0.68340  Biso   1.000  C
  H569     1.0000 0.43730  0.87770  0.66390  Biso   1.000  H
  C1078    1.0000 0.39260  0.91600  0.65530  Biso   1.000  C
  H570     1.0000 0.39300  0.91670  0.61710  Biso   1.000  H
  C1079    1.0000 0.97960  0.82630  0.97300  Biso   1.000  C
  C1080    1.0000 0.00320  0.84750  0.01090  Biso   1.000  C
  H571     1.0000 0.99970  0.84390  0.04850  Biso   1.000  H
  C1081    1.0000 0.03070  0.87280  0.99240  Biso   1.000  C
  H572     1.0000 0.04730  0.88530  0.01740  Biso   1.000  H
  C1082    1.0000 0.98470  0.83150  0.91670  Biso   1.000  C
  H573     1.0000 0.96980  0.81630  0.89250  Biso   1.000  H
  C1083    1.0000 0.01000  0.85730  0.89670  Biso   1.000  C
  C1084    1.0000 0.03490  0.88050  0.93860  Biso   1.000  C
  C1085    1.0000 0.06170  0.90650  0.91230  Biso   1.000  C
  H574     1.0000 0.07810  0.92090  0.93560  Biso   1.000  H
  C1086    1.0000 0.06670  0.91310  0.86030  Biso   1.000  C
  C1087    1.0000 0.04050  0.89170  0.82220  Biso   1.000  C
  H575     1.0000 0.04200  0.89660  0.78470  Biso   1.000  H
  C1088    1.0000 0.01490  0.86520  0.84100  Biso   1.000  C
  H576     1.0000 0.99950  0.85140  0.81580  Biso   1.000  H
