data_image0
_cell_length_a       32.768
_cell_length_b       39.312
_cell_length_c       25.68
_cell_angle_alpha    90
_cell_angle_beta     95.79
_cell_angle_gamma    90

_symmetry_space_group_name_H-M    "P 1"
_symmetry_int_tables_number       1

loop_
  _symmetry_equiv_pos_as_xyz
  'x, y, z'

loop_
  _atom_site_label
  _atom_site_occupancy
  _atom_site_fract_x
  _atom_site_fract_y
  _atom_site_fract_z
  _atom_site_thermal_displace_type
  _atom_site_B_iso_or_equiv
  _atom_site_type_symbol
  Zn1      1.0000 0.32711  0.85100  0.67217  Biso   1.000  Zn
  Zn2      1.0000 0.42335  0.84995  0.68175  Biso   1.000  Zn
  Zn3      1.0000 0.37194  0.89338  0.59459  Biso   1.000  Zn
  Zn4      1.0000 0.37447  0.81224  0.58439  Biso   1.000  Zn
  Cl1      1.0000 0.33800  0.74320  0.98760  Biso   1.000  Cl
  Cl2      1.0000 0.37800  0.74230  0.99950  Biso   1.000  Cl
  Cl3      1.0000 0.19410  0.86550  0.24440  Biso   1.000  Cl
  Cl4      1.0000 0.61710  0.98230  0.46670  Biso   1.000  Cl
  Cl5      1.0000 0.13620  0.47430  0.48040  Biso   1.000  Cl
  Cl6      1.0000 0.83860  0.08390  0.71360  Biso   1.000  Cl
  Cl7      1.0000 0.33890  0.58740  0.68810  Biso   1.000  Cl
  Cl8      1.0000 0.15420  0.03540  0.43420  Biso   1.000  Cl
  Cl9      1.0000 0.16870  0.23850  0.64680  Biso   1.000  Cl
  Cl10     1.0000 0.16320  0.23430  0.70300  Biso   1.000  Cl
  O1       1.0000 0.37480  0.85100  0.63430  Biso   1.000  O
  O2       1.0000 0.34410  0.86980  0.74380  Biso   1.000  O
  O3       1.0000 0.40910  0.85980  0.75430  Biso   1.000  O
  O4       1.0000 0.36580  0.93240  0.10300  Biso   1.000  O
  O5       1.0000 0.35980  0.83230  0.51320  Biso   1.000  O
  O6       1.0000 0.36830  0.88920  0.52080  Biso   1.000  O
  O7       1.0000 0.42990  0.87880  0.17190  Biso   1.000  O
  O8       1.0000 0.96060  0.38860  0.66790  Biso   1.000  O
  O9       1.0000 0.92040  0.42150  0.61930  Biso   1.000  O
  O10      1.0000 0.10690  0.59230  0.73090  Biso   1.000  O
  O11      1.0000 0.30340  0.80750  0.67420  Biso   1.000  O
  O12      1.0000 0.32110  0.78990  0.59670  Biso   1.000  O
  O13      1.0000 0.10210  0.63990  0.63930  Biso   1.000  O
  O14      1.0000 0.28610  0.88510  0.64990  Biso   1.000  O
  O15      1.0000 0.32580  0.92020  0.60830  Biso   1.000  O
  O16      1.0000 0.13090  0.06290  0.74420  Biso   1.000  O
  O17      1.0000 0.95480  0.31020  0.69260  Biso   1.000  O
  O18      1.0000 0.90520  0.28020  0.64200  Biso   1.000  O
  O19      1.0000 0.03130  0.06900  0.64960  Biso   1.000  O
  C1       1.0000 0.36150  0.87130  0.10180  Biso   1.000  C
  C2       1.0000 0.36460  0.90180  0.07530  Biso   1.000  C
  C3       1.0000 0.36640  0.90180  0.02140  Biso   1.000  C
  C4       1.0000 0.36510  0.87120  0.99410  Biso   1.000  C
  C5       1.0000 0.36200  0.84070  0.02070  Biso   1.000  C
  C6       1.0000 0.36020  0.84070  0.07450  Biso   1.000  C
  C7       1.0000 0.35710  0.81010  0.10110  Biso   1.000  C
  C8       1.0000 0.35580  0.77960  0.07380  Biso   1.000  C
  C9       1.0000 0.35760  0.77950  0.01990  Biso   1.000  C
  C10      1.0000 0.36070  0.81010  0.99340  Biso   1.000  C
  C11      1.0000 0.38040  0.96390  0.08320  Biso   1.000  C
  C12      1.0000 0.40800  0.98650  0.12300  Biso   1.000  C
  C13      1.0000 0.37010  0.87170  0.93350  Biso   1.000  C
  C14      1.0000 0.40170  0.85870  0.91360  Biso   1.000  C
  C15      1.0000 0.40680  0.85880  0.86540  Biso   1.000  C
  C16      1.0000 0.37760  0.87020  0.82700  Biso   1.000  C
  C17      1.0000 0.34510  0.88840  0.85060  Biso   1.000  C
  C18      1.0000 0.34060  0.88700  0.90250  Biso   1.000  C
  C19      1.0000 0.37670  0.86710  0.77050  Biso   1.000  C
  C20      1.0000 0.35590  0.87400  0.16180  Biso   1.000  C
  C21      1.0000 0.39090  0.88180  0.19170  Biso   1.000  C
  C22      1.0000 0.38780  0.87810  0.24900  Biso   1.000  C
  C23      1.0000 0.35060  0.87400  0.26790  Biso   1.000  C
  C24      1.0000 0.27810  0.87100  0.25800  Biso   1.000  C
  C25      1.0000 0.24270  0.87040  0.22420  Biso   1.000  C
  C26      1.0000 0.24720  0.86980  0.16190  Biso   1.000  C
  C27      1.0000 0.28180  0.87330  0.14510  Biso   1.000  C
  C28      1.0000 0.31940  0.87500  0.18030  Biso   1.000  C
  C29      1.0000 0.31930  0.87260  0.23610  Biso   1.000  C
  C30      1.0000 0.46160  0.89460  0.20800  Biso   1.000  C
  C31      1.0000 0.49370  0.90810  0.17400  Biso   1.000  C
  C32      1.0000 0.35320  0.86930  0.32550  Biso   1.000  C
  C33      1.0000 0.35720  0.89780  0.35960  Biso   1.000  C
  C34      1.0000 0.36060  0.89730  0.41460  Biso   1.000  C
  C35      1.0000 0.35520  0.86560  0.43810  Biso   1.000  C
  C36      1.0000 0.35060  0.83660  0.40540  Biso   1.000  C
  C37      1.0000 0.34700  0.83780  0.35030  Biso   1.000  C
  C38      1.0000 0.36190  0.86170  0.49350  Biso   1.000  C
  C39      1.0000 0.13010  0.57610  0.65100  Biso   1.000  C
  C40      1.0000 0.10460  0.56850  0.68940  Biso   1.000  C
  C41      1.0000 0.07510  0.54220  0.68760  Biso   1.000  C
  C42      1.0000 0.07410  0.51930  0.64470  Biso   1.000  C
  C43      1.0000 0.10140  0.50150  0.56230  Biso   1.000  C
  C44      1.0000 0.12610  0.50520  0.52460  Biso   1.000  C
  C45      1.0000 0.15280  0.53390  0.52500  Biso   1.000  C
  C46      1.0000 0.15850  0.55450  0.56760  Biso   1.000  C
  C47      1.0000 0.12730  0.55230  0.60970  Biso   1.000  C
  C48      1.0000 0.10220  0.52290  0.60660  Biso   1.000  C
  C49      1.0000 0.07640  0.59230  0.76630  Biso   1.000  C
  C50      1.0000 0.07240  0.62580  0.79680  Biso   1.000  C
  C51      1.0000 0.04320  0.49250  0.64390  Biso   1.000  C
  C52      1.0000 0.05230  0.46190  0.65370  Biso   1.000  C
  C53      1.0000 0.02010  0.43530  0.65340  Biso   1.000  C
  C54      1.0000 0.98440  0.44250  0.64490  Biso   1.000  C
  C55      1.0000 0.97260  0.47160  0.63160  Biso   1.000  C
  C56      1.0000 0.00640  0.49960  0.63350  Biso   1.000  C
  C57      1.0000 0.95290  0.41640  0.64640  Biso   1.000  C
  C58      1.0000 0.16140  0.60220  0.65740  Biso   1.000  C
  C59      1.0000 0.14560  0.63570  0.64740  Biso   1.000  C
  C60      1.0000 0.17180  0.66520  0.64760  Biso   1.000  C
  C61      1.0000 0.21180  0.66190  0.65790  Biso   1.000  C
  C62      1.0000 0.26910  0.62350  0.67640  Biso   1.000  C
  C63      1.0000 0.28670  0.58990  0.68750  Biso   1.000  C
  C64      1.0000 0.26180  0.56350  0.68870  Biso   1.000  C
  C65      1.0000 0.21860  0.56690  0.67780  Biso   1.000  C
  C66      1.0000 0.20150  0.59870  0.66320  Biso   1.000  C
  C67      1.0000 0.23100  0.62650  0.66780  Biso   1.000  C
  C68      1.0000 0.08310  0.67220  0.64260  Biso   1.000  C
  C69      1.0000 0.03990  0.66460  0.65950  Biso   1.000  C
  C70      1.0000 0.23790  0.69200  0.65250  Biso   1.000  C
  C71      1.0000 0.25740  0.69890  0.60740  Biso   1.000  C
  C72      1.0000 0.27800  0.73000  0.60550  Biso   1.000  C
  C73      1.0000 0.28180  0.75470  0.64520  Biso   1.000  C
  C74      1.0000 0.26200  0.74670  0.68970  Biso   1.000  C
  C75      1.0000 0.23980  0.71630  0.69190  Biso   1.000  C
  C76      1.0000 0.30330  0.78450  0.63830  Biso   1.000  C
  C77      1.0000 0.11620  0.07320  0.64630  Biso   1.000  C
  C78      1.0000 0.13510  0.05620  0.68970  Biso   1.000  C
  C79      1.0000 0.16210  0.02960  0.68310  Biso   1.000  C
  C80      1.0000 0.17020  0.02000  0.63310  Biso   1.000  C
  C81      1.0000 0.15130  0.03700  0.58970  Biso   1.000  C
  C82      1.0000 0.12430  0.06360  0.59630  Biso   1.000  C
  C83      1.0000 0.10550  0.08060  0.55290  Biso   1.000  C
  C84      1.0000 0.11350  0.07100  0.50280  Biso   1.000  C
  C85      1.0000 0.14050  0.04440  0.49620  Biso   1.000  C
  C86      1.0000 0.15940  0.02740  0.53960  Biso   1.000  C
  C87      1.0000 0.11000  0.03300  0.76300  Biso   1.000  C
  H1       1.0000 0.12080  0.03090  0.79910  Biso   1.000  H
  C88      1.0000 0.10900  0.99700  0.74100  Biso   1.000  C
  C89      1.0000 0.19980  0.99230  0.62880  Biso   1.000  C
  C90      1.0000 0.23830  0.00090  0.61240  Biso   1.000  C
  C91      1.0000 0.26660  0.97370  0.61430  Biso   1.000  C
  C92      1.0000 0.26100  0.94010  0.63020  Biso   1.000  C
  C93      1.0000 0.22340  0.93400  0.64500  Biso   1.000  C
  C94      1.0000 0.19320  0.95920  0.64650  Biso   1.000  C
  C95      1.0000 0.29220  0.91440  0.62850  Biso   1.000  C
  C96      1.0000 0.09060  0.10510  0.65860  Biso   1.000  C
  C97      1.0000 0.04880  0.10180  0.66260  Biso   1.000  C
  C98      1.0000 0.02500  0.13060  0.66820  Biso   1.000  C
  C99      1.0000 0.04300  0.16270  0.66980  Biso   1.000  C
  C100     1.0000 0.08480  0.16590  0.66580  Biso   1.000  C
  C101     1.0000 0.10860  0.13720  0.66020  Biso   1.000  C
  C102     1.0000 0.15040  0.14040  0.65620  Biso   1.000  C
  C103     1.0000 0.16840  0.17250  0.65780  Biso   1.000  C
  C104     1.0000 0.14460  0.20130  0.66350  Biso   1.000  C
  C105     1.0000 0.10280  0.19800  0.66750  Biso   1.000  C
  C106     1.0000 0.01400  0.06180  0.59700  Biso   1.000  C
  C107     1.0000 0.96700  0.06700  0.59100  Biso   1.000  C
  C108     1.0000 0.01370  0.19350  0.65700  Biso   1.000  C
  C109     1.0000 0.98620  0.20240  0.61440  Biso   1.000  C
  C110     1.0000 0.96280  0.23180  0.61610  Biso   1.000  C
  C111     1.0000 0.96700  0.25240  0.66030  Biso   1.000  C
  C112     1.0000 0.99460  0.24350  0.70290  Biso   1.000  C
  C113     1.0000 0.01790  0.21410  0.70120  Biso   1.000  C
  C114     1.0000 0.94070  0.28390  0.67040  Biso   1.000  C
  Zn5      1.0000 0.82711  0.35100  0.67217  Biso   1.000  Zn
  Zn6      1.0000 0.92335  0.34995  0.68175  Biso   1.000  Zn
  Zn7      1.0000 0.87194  0.39338  0.59459  Biso   1.000  Zn
  Zn8      1.0000 0.87447  0.31224  0.58439  Biso   1.000  Zn
  Cl11     1.0000 0.83800  0.24320  0.98760  Biso   1.000  Cl
  Cl12     1.0000 0.87800  0.24230  0.99950  Biso   1.000  Cl
  Cl13     1.0000 0.69410  0.36550  0.24440  Biso   1.000  Cl
  Cl14     1.0000 0.11710  0.48230  0.46670  Biso   1.000  Cl
  Cl15     1.0000 0.63620  0.97430  0.48040  Biso   1.000  Cl
  Cl16     1.0000 0.33860  0.58390  0.71360  Biso   1.000  Cl
  Cl17     1.0000 0.83890  0.08740  0.68810  Biso   1.000  Cl
  Cl18     1.0000 0.65420  0.53540  0.43420  Biso   1.000  Cl
  Cl19     1.0000 0.66870  0.73850  0.64680  Biso   1.000  Cl
  Cl20     1.0000 0.66320  0.73430  0.70300  Biso   1.000  Cl
  O20      1.0000 0.87480  0.35100  0.63430  Biso   1.000  O
  O21      1.0000 0.84410  0.36980  0.74380  Biso   1.000  O
  O22      1.0000 0.90910  0.35980  0.75430  Biso   1.000  O
  O23      1.0000 0.86580  0.43240  0.10300  Biso   1.000  O
  O24      1.0000 0.85980  0.33230  0.51320  Biso   1.000  O
  O25      1.0000 0.86830  0.38920  0.52080  Biso   1.000  O
  O26      1.0000 0.92990  0.37880  0.17190  Biso   1.000  O
  O27      1.0000 0.46060  0.88860  0.66790  Biso   1.000  O
  O28      1.0000 0.42040  0.92150  0.61930  Biso   1.000  O
  O29      1.0000 0.60690  0.09230  0.73090  Biso   1.000  O
  O30      1.0000 0.80340  0.30750  0.67420  Biso   1.000  O
  O31      1.0000 0.82110  0.28990  0.59670  Biso   1.000  O
  O32      1.0000 0.60210  0.13990  0.63930  Biso   1.000  O
  O33      1.0000 0.78610  0.38510  0.64990  Biso   1.000  O
  O34      1.0000 0.82580  0.42020  0.60830  Biso   1.000  O
  O35      1.0000 0.63090  0.56290  0.74420  Biso   1.000  O
  O36      1.0000 0.45480  0.81020  0.69260  Biso   1.000  O
  O37      1.0000 0.40520  0.78020  0.64200  Biso   1.000  O
  O38      1.0000 0.53130  0.56900  0.64960  Biso   1.000  O
  C115     1.0000 0.86150  0.37130  0.10180  Biso   1.000  C
  C116     1.0000 0.86460  0.40180  0.07530  Biso   1.000  C
  C117     1.0000 0.86640  0.40180  0.02140  Biso   1.000  C
  C118     1.0000 0.86510  0.37120  0.99410  Biso   1.000  C
  C119     1.0000 0.86200  0.34070  0.02070  Biso   1.000  C
  C120     1.0000 0.86020  0.34070  0.07450  Biso   1.000  C
  C121     1.0000 0.85710  0.31010  0.10110  Biso   1.000  C
  C122     1.0000 0.85580  0.27960  0.07380  Biso   1.000  C
  C123     1.0000 0.85760  0.27950  0.01990  Biso   1.000  C
  C124     1.0000 0.86070  0.31010  0.99340  Biso   1.000  C
  C125     1.0000 0.88040  0.46390  0.08320  Biso   1.000  C
  C126     1.0000 0.90800  0.48650  0.12300  Biso   1.000  C
  C127     1.0000 0.87010  0.37170  0.93350  Biso   1.000  C
  C128     1.0000 0.90170  0.35870  0.91360  Biso   1.000  C
  C129     1.0000 0.90680  0.35880  0.86540  Biso   1.000  C
  C130     1.0000 0.87760  0.37020  0.82700  Biso   1.000  C
  C131     1.0000 0.84510  0.38840  0.85060  Biso   1.000  C
  C132     1.0000 0.84060  0.38700  0.90250  Biso   1.000  C
  C133     1.0000 0.87670  0.36710  0.77050  Biso   1.000  C
  C134     1.0000 0.85590  0.37400  0.16180  Biso   1.000  C
  C135     1.0000 0.89090  0.38180  0.19170  Biso   1.000  C
  C136     1.0000 0.88780  0.37810  0.24900  Biso   1.000  C
  C137     1.0000 0.85060  0.37400  0.26790  Biso   1.000  C
  C138     1.0000 0.77810  0.37100  0.25800  Biso   1.000  C
  C139     1.0000 0.74270  0.37040  0.22420  Biso   1.000  C
  C140     1.0000 0.74720  0.36980  0.16190  Biso   1.000  C
  C141     1.0000 0.78180  0.37330  0.14510  Biso   1.000  C
  C142     1.0000 0.81940  0.37500  0.18030  Biso   1.000  C
  C143     1.0000 0.81930  0.37260  0.23610  Biso   1.000  C
  C144     1.0000 0.96160  0.39460  0.20800  Biso   1.000  C
  C145     1.0000 0.99370  0.40810  0.17400  Biso   1.000  C
  C146     1.0000 0.85320  0.36930  0.32550  Biso   1.000  C
  C147     1.0000 0.85720  0.39780  0.35960  Biso   1.000  C
  C148     1.0000 0.86060  0.39730  0.41460  Biso   1.000  C
  C149     1.0000 0.85520  0.36560  0.43810  Biso   1.000  C
  C150     1.0000 0.85060  0.33660  0.40540  Biso   1.000  C
  C151     1.0000 0.84700  0.33780  0.35030  Biso   1.000  C
  C152     1.0000 0.86190  0.36170  0.49350  Biso   1.000  C
  C153     1.0000 0.63010  0.07610  0.65100  Biso   1.000  C
  C154     1.0000 0.60460  0.06850  0.68940  Biso   1.000  C
  C155     1.0000 0.57510  0.04220  0.68760  Biso   1.000  C
  C156     1.0000 0.57410  0.01930  0.64470  Biso   1.000  C
  C157     1.0000 0.60140  0.00150  0.56230  Biso   1.000  C
  C158     1.0000 0.62610  0.00520  0.52460  Biso   1.000  C
  C159     1.0000 0.65280  0.03390  0.52500  Biso   1.000  C
  C160     1.0000 0.65850  0.05450  0.56760  Biso   1.000  C
  C161     1.0000 0.62730  0.05230  0.60970  Biso   1.000  C
  C162     1.0000 0.60220  0.02290  0.60660  Biso   1.000  C
  C163     1.0000 0.57640  0.09230  0.76630  Biso   1.000  C
  C164     1.0000 0.57240  0.12580  0.79680  Biso   1.000  C
  C165     1.0000 0.54320  0.99250  0.64390  Biso   1.000  C
  C166     1.0000 0.55230  0.96190  0.65370  Biso   1.000  C
  C167     1.0000 0.52010  0.93530  0.65340  Biso   1.000  C
  C168     1.0000 0.48440  0.94250  0.64490  Biso   1.000  C
  C169     1.0000 0.47260  0.97160  0.63160  Biso   1.000  C
  C170     1.0000 0.50640  0.99960  0.63350  Biso   1.000  C
  C171     1.0000 0.45290  0.91640  0.64640  Biso   1.000  C
  C172     1.0000 0.66140  0.10220  0.65740  Biso   1.000  C
  C173     1.0000 0.64560  0.13570  0.64740  Biso   1.000  C
  C174     1.0000 0.67180  0.16520  0.64760  Biso   1.000  C
  C175     1.0000 0.71180  0.16190  0.65790  Biso   1.000  C
  C176     1.0000 0.76910  0.12350  0.67640  Biso   1.000  C
  C177     1.0000 0.78670  0.08990  0.68750  Biso   1.000  C
  C178     1.0000 0.76180  0.06350  0.68870  Biso   1.000  C
  C179     1.0000 0.71860  0.06690  0.67780  Biso   1.000  C
  C180     1.0000 0.70150  0.09870  0.66320  Biso   1.000  C
  C181     1.0000 0.73100  0.12650  0.66780  Biso   1.000  C
  C182     1.0000 0.58310  0.17220  0.64260  Biso   1.000  C
  C183     1.0000 0.53990  0.16460  0.65950  Biso   1.000  C
  C184     1.0000 0.73790  0.19200  0.65250  Biso   1.000  C
  C185     1.0000 0.75740  0.19890  0.60740  Biso   1.000  C
  C186     1.0000 0.77800  0.23000  0.60550  Biso   1.000  C
  C187     1.0000 0.78180  0.25470  0.64520  Biso   1.000  C
  C188     1.0000 0.76200  0.24670  0.68970  Biso   1.000  C
  C189     1.0000 0.73980  0.21630  0.69190  Biso   1.000  C
  C190     1.0000 0.80330  0.28450  0.63830  Biso   1.000  C
  C191     1.0000 0.61620  0.57320  0.64630  Biso   1.000  C
  C192     1.0000 0.63510  0.55620  0.68970  Biso   1.000  C
  C193     1.0000 0.66210  0.52960  0.68310  Biso   1.000  C
  C194     1.0000 0.67020  0.52000  0.63310  Biso   1.000  C
  C195     1.0000 0.65130  0.53700  0.58970  Biso   1.000  C
  C196     1.0000 0.62430  0.56360  0.59630  Biso   1.000  C
  C197     1.0000 0.60550  0.58060  0.55290  Biso   1.000  C
  C198     1.0000 0.61350  0.57100  0.50280  Biso   1.000  C
  C199     1.0000 0.64050  0.54440  0.49620  Biso   1.000  C
  C200     1.0000 0.65940  0.52740  0.53960  Biso   1.000  C
  C201     1.0000 0.61000  0.53300  0.76300  Biso   1.000  C
  H2       1.0000 0.62080  0.53090  0.79910  Biso   1.000  H
  C202     1.0000 0.60900  0.49700  0.74100  Biso   1.000  C
  C203     1.0000 0.69980  0.49230  0.62880  Biso   1.000  C
  C204     1.0000 0.73830  0.50090  0.61240  Biso   1.000  C
  C205     1.0000 0.76660  0.47370  0.61430  Biso   1.000  C
  C206     1.0000 0.76100  0.44010  0.63020  Biso   1.000  C
  C207     1.0000 0.72340  0.43400  0.64500  Biso   1.000  C
  C208     1.0000 0.69320  0.45920  0.64650  Biso   1.000  C
  C209     1.0000 0.79220  0.41440  0.62850  Biso   1.000  C
  C210     1.0000 0.59060  0.60510  0.65860  Biso   1.000  C
  C211     1.0000 0.54880  0.60180  0.66260  Biso   1.000  C
  C212     1.0000 0.52500  0.63060  0.66820  Biso   1.000  C
  C213     1.0000 0.54300  0.66270  0.66980  Biso   1.000  C
  C214     1.0000 0.58480  0.66590  0.66580  Biso   1.000  C
  C215     1.0000 0.60860  0.63720  0.66020  Biso   1.000  C
  C216     1.0000 0.65040  0.64040  0.65620  Biso   1.000  C
  C217     1.0000 0.66840  0.67250  0.65780  Biso   1.000  C
  C218     1.0000 0.64460  0.70130  0.66350  Biso   1.000  C
  C219     1.0000 0.60280  0.69800  0.66750  Biso   1.000  C
  C220     1.0000 0.51400  0.56180  0.59700  Biso   1.000  C
  C221     1.0000 0.46700  0.56700  0.59100  Biso   1.000  C
  C222     1.0000 0.51370  0.69350  0.65700  Biso   1.000  C
  C223     1.0000 0.48620  0.70240  0.61440  Biso   1.000  C
  C224     1.0000 0.46280  0.73180  0.61610  Biso   1.000  C
  C225     1.0000 0.46700  0.75240  0.66030  Biso   1.000  C
  C226     1.0000 0.49460  0.74350  0.70290  Biso   1.000  C
  C227     1.0000 0.51790  0.71410  0.70120  Biso   1.000  C
  C228     1.0000 0.44070  0.78390  0.67040  Biso   1.000  C
  Zn9      1.0000 0.67289  0.85100  0.32783  Biso   1.000  Zn
  Zn10     1.0000 0.57665  0.84995  0.31825  Biso   1.000  Zn
  Zn11     1.0000 0.62806  0.89338  0.40541  Biso   1.000  Zn
  Zn12     1.0000 0.62553  0.81224  0.41561  Biso   1.000  Zn
  Cl21     1.0000 0.66200  0.74320  0.01240  Biso   1.000  Cl
  Cl22     1.0000 0.62200  0.74230  0.00050  Biso   1.000  Cl
  Cl23     1.0000 0.80590  0.86550  0.75560  Biso   1.000  Cl
  Cl24     1.0000 0.38290  0.98230  0.53330  Biso   1.000  Cl
  Cl25     1.0000 0.86380  0.47430  0.51960  Biso   1.000  Cl
  Cl26     1.0000 0.16140  0.08390  0.28640  Biso   1.000  Cl
  Cl27     1.0000 0.66110  0.58740  0.31190  Biso   1.000  Cl
  Cl28     1.0000 0.84580  0.03540  0.56580  Biso   1.000  Cl
  Cl29     1.0000 0.83130  0.23850  0.35320  Biso   1.000  Cl
  Cl30     1.0000 0.83680  0.23430  0.29700  Biso   1.000  Cl
  O39      1.0000 0.62520  0.85100  0.36570  Biso   1.000  O
  O40      1.0000 0.65590  0.86980  0.25620  Biso   1.000  O
  O41      1.0000 0.59090  0.85980  0.24570  Biso   1.000  O
  O42      1.0000 0.63420  0.93240  0.89700  Biso   1.000  O
  O43      1.0000 0.64020  0.83230  0.48680  Biso   1.000  O
  O44      1.0000 0.63170  0.88920  0.47920  Biso   1.000  O
  O45      1.0000 0.57010  0.87880  0.82810  Biso   1.000  O
  O46      1.0000 0.03940  0.38860  0.33210  Biso   1.000  O
  O47      1.0000 0.07960  0.42150  0.38070  Biso   1.000  O
  O48      1.0000 0.89310  0.59230  0.26910  Biso   1.000  O
  O49      1.0000 0.69660  0.80750  0.32580  Biso   1.000  O
  O50      1.0000 0.67890  0.78990  0.40330  Biso   1.000  O
  O51      1.0000 0.89790  0.63990  0.36070  Biso   1.000  O
  O52      1.0000 0.71390  0.88510  0.35010  Biso   1.000  O
  O53      1.0000 0.67420  0.92020  0.39170  Biso   1.000  O
  O54      1.0000 0.86910  0.06290  0.25580  Biso   1.000  O
  O55      1.0000 0.04520  0.31020  0.30740  Biso   1.000  O
  O56      1.0000 0.09480  0.28020  0.35800  Biso   1.000  O
  O57      1.0000 0.96870  0.06900  0.35040  Biso   1.000  O
  C229     1.0000 0.63850  0.87130  0.89820  Biso   1.000  C
  C230     1.0000 0.63540  0.90180  0.92470  Biso   1.000  C
  C231     1.0000 0.63360  0.90180  0.97860  Biso   1.000  C
  C232     1.0000 0.63490  0.87120  0.00590  Biso   1.000  C
  C233     1.0000 0.63800  0.84070  0.97930  Biso   1.000  C
  C234     1.0000 0.63980  0.84070  0.92550  Biso   1.000  C
  C235     1.0000 0.64290  0.81010  0.89890  Biso   1.000  C
  C236     1.0000 0.64420  0.77960  0.92620  Biso   1.000  C
  C237     1.0000 0.64240  0.77950  0.98010  Biso   1.000  C
  C238     1.0000 0.63930  0.81010  0.00660  Biso   1.000  C
  C239     1.0000 0.61960  0.96390  0.91680  Biso   1.000  C
  C240     1.0000 0.59200  0.98650  0.87700  Biso   1.000  C
  C241     1.0000 0.62990  0.87170  0.06650  Biso   1.000  C
  C242     1.0000 0.59830  0.85870  0.08640  Biso   1.000  C
  C243     1.0000 0.59320  0.85880  0.13460  Biso   1.000  C
  C244     1.0000 0.62240  0.87020  0.17300  Biso   1.000  C
  C245     1.0000 0.65490  0.88840  0.14940  Biso   1.000  C
  C246     1.0000 0.65940  0.88700  0.09750  Biso   1.000  C
  C247     1.0000 0.62330  0.86710  0.22950  Biso   1.000  C
  C248     1.0000 0.64410  0.87400  0.83820  Biso   1.000  C
  C249     1.0000 0.60910  0.88180  0.80830  Biso   1.000  C
  C250     1.0000 0.61220  0.87810  0.75100  Biso   1.000  C
  C251     1.0000 0.64940  0.87400  0.73210  Biso   1.000  C
  C252     1.0000 0.72190  0.87100  0.74200  Biso   1.000  C
  C253     1.0000 0.75730  0.87040  0.77580  Biso   1.000  C
  C254     1.0000 0.75280  0.86980  0.83810  Biso   1.000  C
  C255     1.0000 0.71820  0.87330  0.85490  Biso   1.000  C
  C256     1.0000 0.68060  0.87500  0.81970  Biso   1.000  C
  C257     1.0000 0.68070  0.87260  0.76390  Biso   1.000  C
  C258     1.0000 0.53840  0.89460  0.79200  Biso   1.000  C
  C259     1.0000 0.50630  0.90810  0.82600  Biso   1.000  C
  C260     1.0000 0.64680  0.86930  0.67450  Biso   1.000  C
  C261     1.0000 0.64280  0.89780  0.64040  Biso   1.000  C
  C262     1.0000 0.63940  0.89730  0.58540  Biso   1.000  C
  C263     1.0000 0.64480  0.86560  0.56190  Biso   1.000  C
  C264     1.0000 0.64940  0.83660  0.59460  Biso   1.000  C
  C265     1.0000 0.65300  0.83780  0.64970  Biso   1.000  C
  C266     1.0000 0.63810  0.86170  0.50650  Biso   1.000  C
  C267     1.0000 0.86990  0.57610  0.34900  Biso   1.000  C
  C268     1.0000 0.89540  0.56850  0.31060  Biso   1.000  C
  C269     1.0000 0.92490  0.54220  0.31240  Biso   1.000  C
  C270     1.0000 0.92590  0.51930  0.35530  Biso   1.000  C
  C271     1.0000 0.89860  0.50150  0.43770  Biso   1.000  C
  C272     1.0000 0.87390  0.50520  0.47540  Biso   1.000  C
  C273     1.0000 0.84720  0.53390  0.47500  Biso   1.000  C
  C274     1.0000 0.84150  0.55450  0.43240  Biso   1.000  C
  C275     1.0000 0.87270  0.55230  0.39030  Biso   1.000  C
  C276     1.0000 0.89780  0.52290  0.39340  Biso   1.000  C
  C277     1.0000 0.92360  0.59230  0.23370  Biso   1.000  C
  C278     1.0000 0.92760  0.62580  0.20320  Biso   1.000  C
  C279     1.0000 0.95680  0.49250  0.35610  Biso   1.000  C
  C280     1.0000 0.94770  0.46190  0.34630  Biso   1.000  C
  C281     1.0000 0.97990  0.43530  0.34660  Biso   1.000  C
  C282     1.0000 0.01560  0.44250  0.35510  Biso   1.000  C
  C283     1.0000 0.02740  0.47160  0.36840  Biso   1.000  C
  C284     1.0000 0.99360  0.49960  0.36650  Biso   1.000  C
  C285     1.0000 0.04710  0.41640  0.35360  Biso   1.000  C
  C286     1.0000 0.83860  0.60220  0.34260  Biso   1.000  C
  C287     1.0000 0.85440  0.63570  0.35260  Biso   1.000  C
  C288     1.0000 0.82820  0.66520  0.35240  Biso   1.000  C
  C289     1.0000 0.78820  0.66190  0.34210  Biso   1.000  C
  C290     1.0000 0.73090  0.62350  0.32360  Biso   1.000  C
  C291     1.0000 0.71330  0.58990  0.31250  Biso   1.000  C
  C292     1.0000 0.73820  0.56350  0.31130  Biso   1.000  C
  C293     1.0000 0.78140  0.56690  0.32220  Biso   1.000  C
  C294     1.0000 0.79850  0.59870  0.33680  Biso   1.000  C
  C295     1.0000 0.76900  0.62650  0.33220  Biso   1.000  C
  C296     1.0000 0.91690  0.67220  0.35740  Biso   1.000  C
  C297     1.0000 0.96010  0.66460  0.34050  Biso   1.000  C
  C298     1.0000 0.76210  0.69200  0.34750  Biso   1.000  C
  C299     1.0000 0.74260  0.69890  0.39260  Biso   1.000  C
  C300     1.0000 0.72200  0.73000  0.39450  Biso   1.000  C
  C301     1.0000 0.71820  0.75470  0.35480  Biso   1.000  C
  C302     1.0000 0.73800  0.74670  0.31030  Biso   1.000  C
  C303     1.0000 0.76020  0.71630  0.30810  Biso   1.000  C
  C304     1.0000 0.69670  0.78450  0.36170  Biso   1.000  C
  C305     1.0000 0.88380  0.07320  0.35370  Biso   1.000  C
  C306     1.0000 0.86490  0.05620  0.31030  Biso   1.000  C
  C307     1.0000 0.83790  0.02960  0.31690  Biso   1.000  C
  C308     1.0000 0.82980  0.02000  0.36690  Biso   1.000  C
  C309     1.0000 0.84870  0.03700  0.41030  Biso   1.000  C
  C310     1.0000 0.87570  0.06360  0.40370  Biso   1.000  C
  C311     1.0000 0.89450  0.08060  0.44710  Biso   1.000  C
  C312     1.0000 0.88650  0.07100  0.49720  Biso   1.000  C
  C313     1.0000 0.85950  0.04440  0.50380  Biso   1.000  C
  C314     1.0000 0.84060  0.02740  0.46040  Biso   1.000  C
  C315     1.0000 0.89000  0.03300  0.23700  Biso   1.000  C
  H3       1.0000 0.87920  0.03090  0.20090  Biso   1.000  H
  C316     1.0000 0.89100  0.99700  0.25900  Biso   1.000  C
  C317     1.0000 0.80020  0.99230  0.37120  Biso   1.000  C
  C318     1.0000 0.76170  0.00090  0.38760  Biso   1.000  C
  C319     1.0000 0.73340  0.97370  0.38570  Biso   1.000  C
  C320     1.0000 0.73900  0.94010  0.36980  Biso   1.000  C
  C321     1.0000 0.77660  0.93400  0.35500  Biso   1.000  C
  C322     1.0000 0.80680  0.95920  0.35350  Biso   1.000  C
  C323     1.0000 0.70780  0.91440  0.37150  Biso   1.000  C
  C324     1.0000 0.90940  0.10510  0.34140  Biso   1.000  C
  C325     1.0000 0.95120  0.10180  0.33740  Biso   1.000  C
  C326     1.0000 0.97500  0.13060  0.33180  Biso   1.000  C
  C327     1.0000 0.95700  0.16270  0.33020  Biso   1.000  C
  C328     1.0000 0.91520  0.16590  0.33420  Biso   1.000  C
  C329     1.0000 0.89140  0.13720  0.33980  Biso   1.000  C
  C330     1.0000 0.84960  0.14040  0.34380  Biso   1.000  C
  C331     1.0000 0.83160  0.17250  0.34220  Biso   1.000  C
  C332     1.0000 0.85540  0.20130  0.33650  Biso   1.000  C
  C333     1.0000 0.89720  0.19800  0.33250  Biso   1.000  C
  C334     1.0000 0.98600  0.06180  0.40300  Biso   1.000  C
  C335     1.0000 0.03300  0.06700  0.40900  Biso   1.000  C
  C336     1.0000 0.98630  0.19350  0.34300  Biso   1.000  C
  C337     1.0000 0.01380  0.20240  0.38560  Biso   1.000  C
  C338     1.0000 0.03720  0.23180  0.38390  Biso   1.000  C
  C339     1.0000 0.03300  0.25240  0.33970  Biso   1.000  C
  C340     1.0000 0.00540  0.24350  0.29710  Biso   1.000  C
  C341     1.0000 0.98210  0.21410  0.29880  Biso   1.000  C
  C342     1.0000 0.05930  0.28390  0.32960  Biso   1.000  C
  Zn13     1.0000 0.17289  0.35100  0.32783  Biso   1.000  Zn
  Zn14     1.0000 0.07665  0.34995  0.31825  Biso   1.000  Zn
  Zn15     1.0000 0.12806  0.39338  0.40541  Biso   1.000  Zn
  Zn16     1.0000 0.12553  0.31224  0.41561  Biso   1.000  Zn
  Cl31     1.0000 0.16200  0.24320  0.01240  Biso   1.000  Cl
  Cl32     1.0000 0.12200  0.24230  0.00050  Biso   1.000  Cl
  Cl33     1.0000 0.30590  0.36550  0.75560  Biso   1.000  Cl
  Cl34     1.0000 0.88290  0.48230  0.53330  Biso   1.000  Cl
  Cl35     1.0000 0.36380  0.97430  0.51960  Biso   1.000  Cl
  Cl36     1.0000 0.66140  0.58390  0.28640  Biso   1.000  Cl
  Cl37     1.0000 0.16110  0.08740  0.31190  Biso   1.000  Cl
  Cl38     1.0000 0.34580  0.53540  0.56580  Biso   1.000  Cl
  Cl39     1.0000 0.33130  0.73850  0.35320  Biso   1.000  Cl
  Cl40     1.0000 0.33680  0.73430  0.29700  Biso   1.000  Cl
  O58      1.0000 0.12520  0.35100  0.36570  Biso   1.000  O
  O59      1.0000 0.15590  0.36980  0.25620  Biso   1.000  O
  O60      1.0000 0.09090  0.35980  0.24570  Biso   1.000  O
  O61      1.0000 0.13420  0.43240  0.89700  Biso   1.000  O
  O62      1.0000 0.14020  0.33230  0.48680  Biso   1.000  O
  O63      1.0000 0.13170  0.38920  0.47920  Biso   1.000  O
  O64      1.0000 0.07010  0.37880  0.82810  Biso   1.000  O
  O65      1.0000 0.53940  0.88860  0.33210  Biso   1.000  O
  O66      1.0000 0.57960  0.92150  0.38070  Biso   1.000  O
  O67      1.0000 0.39310  0.09230  0.26910  Biso   1.000  O
  O68      1.0000 0.19660  0.30750  0.32580  Biso   1.000  O
  O69      1.0000 0.17890  0.28990  0.40330  Biso   1.000  O
  O70      1.0000 0.39790  0.13990  0.36070  Biso   1.000  O
  O71      1.0000 0.21390  0.38510  0.35010  Biso   1.000  O
  O72      1.0000 0.17420  0.42020  0.39170  Biso   1.000  O
  O73      1.0000 0.36910  0.56290  0.25580  Biso   1.000  O
  O74      1.0000 0.54520  0.81020  0.30740  Biso   1.000  O
  O75      1.0000 0.59480  0.78020  0.35800  Biso   1.000  O
  O76      1.0000 0.46870  0.56900  0.35040  Biso   1.000  O
  C343     1.0000 0.13850  0.37130  0.89820  Biso   1.000  C
  C344     1.0000 0.13540  0.40180  0.92470  Biso   1.000  C
  C345     1.0000 0.13360  0.40180  0.97860  Biso   1.000  C
  C346     1.0000 0.13490  0.37120  0.00590  Biso   1.000  C
  C347     1.0000 0.13800  0.34070  0.97930  Biso   1.000  C
  C348     1.0000 0.13980  0.34070  0.92550  Biso   1.000  C
  C349     1.0000 0.14290  0.31010  0.89890  Biso   1.000  C
  C350     1.0000 0.14420  0.27960  0.92620  Biso   1.000  C
  C351     1.0000 0.14240  0.27950  0.98010  Biso   1.000  C
  C352     1.0000 0.13930  0.31010  0.00660  Biso   1.000  C
  C353     1.0000 0.11960  0.46390  0.91680  Biso   1.000  C
  C354     1.0000 0.09200  0.48650  0.87700  Biso   1.000  C
  C355     1.0000 0.12990  0.37170  0.06650  Biso   1.000  C
  C356     1.0000 0.09830  0.35870  0.08640  Biso   1.000  C
  C357     1.0000 0.09320  0.35880  0.13460  Biso   1.000  C
  C358     1.0000 0.12240  0.37020  0.17300  Biso   1.000  C
  C359     1.0000 0.15490  0.38840  0.14940  Biso   1.000  C
  C360     1.0000 0.15940  0.38700  0.09750  Biso   1.000  C
  C361     1.0000 0.12330  0.36710  0.22950  Biso   1.000  C
  C362     1.0000 0.14410  0.37400  0.83820  Biso   1.000  C
  C363     1.0000 0.10910  0.38180  0.80830  Biso   1.000  C
  C364     1.0000 0.11220  0.37810  0.75100  Biso   1.000  C
  C365     1.0000 0.14940  0.37400  0.73210  Biso   1.000  C
  C366     1.0000 0.22190  0.37100  0.74200  Biso   1.000  C
  C367     1.0000 0.25730  0.37040  0.77580  Biso   1.000  C
  C368     1.0000 0.25280  0.36980  0.83810  Biso   1.000  C
  C369     1.0000 0.21820  0.37330  0.85490  Biso   1.000  C
  C370     1.0000 0.18060  0.37500  0.81970  Biso   1.000  C
  C371     1.0000 0.18070  0.37260  0.76390  Biso   1.000  C
  C372     1.0000 0.03840  0.39460  0.79200  Biso   1.000  C
  C373     1.0000 0.00630  0.40810  0.82600  Biso   1.000  C
  C374     1.0000 0.14680  0.36930  0.67450  Biso   1.000  C
  C375     1.0000 0.14280  0.39780  0.64040  Biso   1.000  C
  C376     1.0000 0.13940  0.39730  0.58540  Biso   1.000  C
  C377     1.0000 0.14480  0.36560  0.56190  Biso   1.000  C
  C378     1.0000 0.14940  0.33660  0.59460  Biso   1.000  C
  C379     1.0000 0.15300  0.33780  0.64970  Biso   1.000  C
  C380     1.0000 0.13810  0.36170  0.50650  Biso   1.000  C
  C381     1.0000 0.36990  0.07610  0.34900  Biso   1.000  C
  C382     1.0000 0.39540  0.06850  0.31060  Biso   1.000  C
  C383     1.0000 0.42490  0.04220  0.31240  Biso   1.000  C
  C384     1.0000 0.42590  0.01930  0.35530  Biso   1.000  C
  C385     1.0000 0.39860  0.00150  0.43770  Biso   1.000  C
  C386     1.0000 0.37390  0.00520  0.47540  Biso   1.000  C
  C387     1.0000 0.34720  0.03390  0.47500  Biso   1.000  C
  C388     1.0000 0.34150  0.05450  0.43240  Biso   1.000  C
  C389     1.0000 0.37270  0.05230  0.39030  Biso   1.000  C
  C390     1.0000 0.39780  0.02290  0.39340  Biso   1.000  C
  C391     1.0000 0.42360  0.09230  0.23370  Biso   1.000  C
  C392     1.0000 0.42760  0.12580  0.20320  Biso   1.000  C
  C393     1.0000 0.45680  0.99250  0.35610  Biso   1.000  C
  C394     1.0000 0.44770  0.96190  0.34630  Biso   1.000  C
  C395     1.0000 0.47990  0.93530  0.34660  Biso   1.000  C
  C396     1.0000 0.51560  0.94250  0.35510  Biso   1.000  C
  C397     1.0000 0.52740  0.97160  0.36840  Biso   1.000  C
  C398     1.0000 0.49360  0.99960  0.36650  Biso   1.000  C
  C399     1.0000 0.54710  0.91640  0.35360  Biso   1.000  C
  C400     1.0000 0.33860  0.10220  0.34260  Biso   1.000  C
  C401     1.0000 0.35440  0.13570  0.35260  Biso   1.000  C
  C402     1.0000 0.32820  0.16520  0.35240  Biso   1.000  C
  C403     1.0000 0.28820  0.16190  0.34210  Biso   1.000  C
  C404     1.0000 0.23090  0.12350  0.32360  Biso   1.000  C
  C405     1.0000 0.21330  0.08990  0.31250  Biso   1.000  C
  C406     1.0000 0.23820  0.06350  0.31130  Biso   1.000  C
  C407     1.0000 0.28140  0.06690  0.32220  Biso   1.000  C
  C408     1.0000 0.29850  0.09870  0.33680  Biso   1.000  C
  C409     1.0000 0.26900  0.12650  0.33220  Biso   1.000  C
  C410     1.0000 0.41690  0.17220  0.35740  Biso   1.000  C
  C411     1.0000 0.46010  0.16460  0.34050  Biso   1.000  C
  C412     1.0000 0.26210  0.19200  0.34750  Biso   1.000  C
  C413     1.0000 0.24260  0.19890  0.39260  Biso   1.000  C
  C414     1.0000 0.22200  0.23000  0.39450  Biso   1.000  C
  C415     1.0000 0.21820  0.25470  0.35480  Biso   1.000  C
  C416     1.0000 0.23800  0.24670  0.31030  Biso   1.000  C
  C417     1.0000 0.26020  0.21630  0.30810  Biso   1.000  C
  C418     1.0000 0.19670  0.28450  0.36170  Biso   1.000  C
  C419     1.0000 0.38380  0.57320  0.35370  Biso   1.000  C
  C420     1.0000 0.36490  0.55620  0.31030  Biso   1.000  C
  C421     1.0000 0.33790  0.52960  0.31690  Biso   1.000  C
  C422     1.0000 0.32980  0.52000  0.36690  Biso   1.000  C
  C423     1.0000 0.34870  0.53700  0.41030  Biso   1.000  C
  C424     1.0000 0.37570  0.56360  0.40370  Biso   1.000  C
  C425     1.0000 0.39450  0.58060  0.44710  Biso   1.000  C
  C426     1.0000 0.38650  0.57100  0.49720  Biso   1.000  C
  C427     1.0000 0.35950  0.54440  0.50380  Biso   1.000  C
  C428     1.0000 0.34060  0.52740  0.46040  Biso   1.000  C
  C429     1.0000 0.39000  0.53300  0.23700  Biso   1.000  C
  H4       1.0000 0.37920  0.53090  0.20090  Biso   1.000  H
  C430     1.0000 0.39100  0.49700  0.25900  Biso   1.000  C
  C431     1.0000 0.30020  0.49230  0.37120  Biso   1.000  C
  C432     1.0000 0.26170  0.50090  0.38760  Biso   1.000  C
  C433     1.0000 0.23340  0.47370  0.38570  Biso   1.000  C
  C434     1.0000 0.23900  0.44010  0.36980  Biso   1.000  C
  C435     1.0000 0.27660  0.43400  0.35500  Biso   1.000  C
  C436     1.0000 0.30680  0.45920  0.35350  Biso   1.000  C
  C437     1.0000 0.20780  0.41440  0.37150  Biso   1.000  C
  C438     1.0000 0.40940  0.60510  0.34140  Biso   1.000  C
  C439     1.0000 0.45120  0.60180  0.33740  Biso   1.000  C
  C440     1.0000 0.47500  0.63060  0.33180  Biso   1.000  C
  C441     1.0000 0.45700  0.66270  0.33020  Biso   1.000  C
  C442     1.0000 0.41520  0.66590  0.33420  Biso   1.000  C
  C443     1.0000 0.39140  0.63720  0.33980  Biso   1.000  C
  C444     1.0000 0.34960  0.64040  0.34380  Biso   1.000  C
  C445     1.0000 0.33160  0.67250  0.34220  Biso   1.000  C
  C446     1.0000 0.35540  0.70130  0.33650  Biso   1.000  C
  C447     1.0000 0.39720  0.69800  0.33250  Biso   1.000  C
  C448     1.0000 0.48600  0.56180  0.40300  Biso   1.000  C
  C449     1.0000 0.53300  0.56700  0.40900  Biso   1.000  C
  C450     1.0000 0.48630  0.69350  0.34300  Biso   1.000  C
  C451     1.0000 0.51380  0.70240  0.38560  Biso   1.000  C
  C452     1.0000 0.53720  0.73180  0.38390  Biso   1.000  C
  C453     1.0000 0.53300  0.75240  0.33970  Biso   1.000  C
  C454     1.0000 0.50540  0.74350  0.29710  Biso   1.000  C
  C455     1.0000 0.48210  0.71410  0.29880  Biso   1.000  C
  C456     1.0000 0.55930  0.78390  0.32960  Biso   1.000  C
  Zn17     1.0000 0.09684  0.71771  0.88821  Biso   1.000  Zn
  Zn18     1.0000 0.05839  0.75850  0.78951  Biso   1.000  Zn
  Zn19     1.0000 0.10107  0.79730  0.88716  Biso   1.000  Zn
  Zn20     1.0000 0.15707  0.75257  0.81754  Biso   1.000  Zn
  Cl41     1.0000 0.28240  0.78410  0.20400  Biso   1.000  Cl
  Cl42     1.0000 0.16970  0.63410  0.50540  Biso   1.000  Cl
  Cl43     1.0000 0.32800  0.36160  0.00110  Biso   1.000  Cl
  Cl44     1.0000 0.14530  0.49260  0.72840  Biso   1.000  Cl
  Cl45     1.0000 0.77550  0.68600  0.71680  Biso   1.000  Cl
  Cl46     1.0000 0.67160  0.52450  0.96870  Biso   1.000  Cl
  Cl47     1.0000 0.64660  0.53120  0.92500  Biso   1.000  Cl
  O77      1.0000 0.10420  0.75790  0.84430  Biso   1.000  O
  O78      1.0000 0.09730  0.72770  0.96130  Biso   1.000  O
  O79      1.0000 0.10570  0.78470  0.96300  Biso   1.000  O
  O80      1.0000 0.06880  0.74020  0.32200  Biso   1.000  O
  O81      1.0000 0.07300  0.76500  0.71930  Biso   1.000  O
  O82      1.0000 0.13860  0.75600  0.73890  Biso   1.000  O
  O83      1.0000 0.12700  0.81920  0.37240  Biso   1.000  O
  O84      1.0000 0.51840  0.29340  0.80100  Biso   1.000  O
  O85      1.0000 0.54330  0.31560  0.87690  Biso   1.000  O
  O86      1.0000 0.34450  0.48300  0.75190  Biso   1.000  O
  O87      1.0000 0.16900  0.70250  0.81570  Biso   1.000  O
  O88      1.0000 0.13480  0.68080  0.87990  Biso   1.000  O
  O89      1.0000 0.35290  0.53050  0.90280  Biso   1.000  O
  O90      1.0000 0.04270  0.69640  0.86950  Biso   1.000  O
  O91      1.0000 0.02370  0.71700  0.78870  Biso   1.000  O
  O92      1.0000 0.86910  0.51540  0.86150  Biso   1.000  O
  O93      1.0000 0.61540  0.33450  0.80040  Biso   1.000  O
  O94      1.0000 0.64070  0.33480  0.88260  Biso   1.000  O
  O95      1.0000 0.82810  0.49330  0.75190  Biso   1.000  O
  C457     1.0000 0.13670  0.75950  0.31930  Biso   1.000  C
  C458     1.0000 0.10160  0.74920  0.29120  Biso   1.000  C
  C459     1.0000 0.09500  0.75000  0.23930  Biso   1.000  C
  C460     1.0000 0.12950  0.75950  0.21090  Biso   1.000  C
  C461     1.0000 0.20480  0.77100  0.21010  Biso   1.000  C
  C462     1.0000 0.24190  0.77810  0.23660  Biso   1.000  C
  C463     1.0000 0.24350  0.78250  0.29310  Biso   1.000  C
  C464     1.0000 0.21070  0.77520  0.31840  Biso   1.000  C
  C465     1.0000 0.16980  0.76690  0.29350  Biso   1.000  C
  C466     1.0000 0.16330  0.76590  0.23580  Biso   1.000  C
  C467     1.0000 0.03040  0.75810  0.31240  Biso   1.000  C
  C468     1.0000 0.03090  0.78810  0.33940  Biso   1.000  C
  C469     1.0000 0.12290  0.75800  0.15150  Biso   1.000  C
  C470     1.0000 0.12870  0.78510  0.12310  Biso   1.000  C
  C471     1.0000 0.12190  0.78520  0.06880  Biso   1.000  C
  C472     1.0000 0.10820  0.75750  0.04340  Biso   1.000  C
  C473     1.0000 0.10450  0.72850  0.07190  Biso   1.000  C
  C474     1.0000 0.10970  0.72750  0.12650  Biso   1.000  C
  C475     1.0000 0.10430  0.75460  0.98560  Biso   1.000  C
  C476     1.0000 0.13900  0.75970  0.37840  Biso   1.000  C
  C477     1.0000 0.13190  0.79060  0.40540  Biso   1.000  C
  C478     1.0000 0.13010  0.79100  0.45930  Biso   1.000  C
  C479     1.0000 0.13490  0.76330  0.48700  Biso   1.000  C
  C480     1.0000 0.14990  0.70080  0.49400  Biso   1.000  C
  C481     1.0000 0.16130  0.67100  0.46820  Biso   1.000  C
  C482     1.0000 0.16550  0.67140  0.41460  Biso   1.000  C
  C483     1.0000 0.15750  0.70250  0.38670  Biso   1.000  C
  C484     1.0000 0.14590  0.72830  0.40900  Biso   1.000  C
  C485     1.0000 0.14540  0.73110  0.46680  Biso   1.000  C
  C486     1.0000 0.11630  0.85160  0.39480  Biso   1.000  C
  C487     1.0000 0.10950  0.87720  0.35220  Biso   1.000  C
  C488     1.0000 0.13000  0.76470  0.54510  Biso   1.000  C
  C489     1.0000 0.09120  0.76750  0.56040  Biso   1.000  C
  C490     1.0000 0.08310  0.76650  0.61340  Biso   1.000  C
  C491     1.0000 0.11440  0.76370  0.65060  Biso   1.000  C
  C492     1.0000 0.15580  0.76000  0.63600  Biso   1.000  C
  C493     1.0000 0.16170  0.76110  0.58350  Biso   1.000  C
  C494     1.0000 0.10860  0.76150  0.70550  Biso   1.000  C
  C495     1.0000 0.33280  0.46710  0.83940  Biso   1.000  C
  C496     1.0000 0.36000  0.46450  0.80150  Biso   1.000  C
  C497     1.0000 0.38660  0.43690  0.80170  Biso   1.000  C
  C498     1.0000 0.38580  0.41190  0.83990  Biso   1.000  C
  C499     1.0000 0.35860  0.41450  0.87780  Biso   1.000  C
  C500     1.0000 0.33200  0.44210  0.87760  Biso   1.000  C
  C501     1.0000 0.30480  0.44480  0.91550  Biso   1.000  C
  C502     1.0000 0.30400  0.41980  0.95370  Biso   1.000  C
  C503     1.0000 0.33050  0.39220  0.95400  Biso   1.000  C
  C504     1.0000 0.35780  0.38950  0.91600  Biso   1.000  C
  C505     1.0000 0.35360  0.47310  0.70160  Biso   1.000  C
  C506     1.0000 0.39950  0.48410  0.71200  Biso   1.000  C
  C507     1.0000 0.42020  0.38360  0.84180  Biso   1.000  C
  C508     1.0000 0.44690  0.38120  0.88340  Biso   1.000  C
  C509     1.0000 0.48010  0.35860  0.88010  Biso   1.000  C
  C510     1.0000 0.48310  0.33580  0.83840  Biso   1.000  C
  C511     1.0000 0.45410  0.33950  0.79860  Biso   1.000  C
  C512     1.0000 0.41940  0.36090  0.79930  Biso   1.000  C
  C513     1.0000 0.51640  0.31420  0.83880  Biso   1.000  C
  C514     1.0000 0.30580  0.49940  0.83790  Biso   1.000  C
  C515     1.0000 0.31930  0.52950  0.86240  Biso   1.000  C
  C516     1.0000 0.29280  0.55710  0.86320  Biso   1.000  C
  C517     1.0000 0.25290  0.55460  0.83960  Biso   1.000  C
  C518     1.0000 0.23930  0.52460  0.81520  Biso   1.000  C
  C519     1.0000 0.26580  0.49700  0.81430  Biso   1.000  C
  C520     1.0000 0.25230  0.46690  0.78990  Biso   1.000  C
  C521     1.0000 0.21230  0.46440  0.76630  Biso   1.000  C
  C522     1.0000 0.18590  0.49200  0.76710  Biso   1.000  C
  C523     1.0000 0.19940  0.52210  0.79160  Biso   1.000  C
  C524     1.0000 0.36200  0.56550  0.91400  Biso   1.000  C
  C525     1.0000 0.35100  0.60200  0.90000  Biso   1.000  C
  C526     1.0000 0.22920  0.58620  0.83990  Biso   1.000  C
  C527     1.0000 0.20610  0.59410  0.87970  Biso   1.000  C
  C528     1.0000 0.18310  0.62320  0.88410  Biso   1.000  C
  C529     1.0000 0.18460  0.64600  0.84430  Biso   1.000  C
  C530     1.0000 0.20610  0.63980  0.80310  Biso   1.000  C
  C531     1.0000 0.22810  0.61080  0.80200  Biso   1.000  C
  C532     1.0000 0.16040  0.67880  0.84580  Biso   1.000  C
  C533     1.0000 0.82430  0.55070  0.80660  Biso   1.000  C
  C534     1.0000 0.86110  0.54770  0.83820  Biso   1.000  C
  C535     1.0000 0.89140  0.57400  0.83940  Biso   1.000  C
  C536     1.0000 0.88280  0.60240  0.81530  Biso   1.000  C
  C537     1.0000 0.83050  0.64250  0.76610  Biso   1.000  C
  C538     1.0000 0.78940  0.64650  0.73940  Biso   1.000  C
  C539     1.0000 0.76200  0.61930  0.73810  Biso   1.000  C
  C540     1.0000 0.77400  0.58970  0.75530  Biso   1.000  C
  C541     1.0000 0.81440  0.58050  0.78720  Biso   1.000  C
  C542     1.0000 0.84280  0.61100  0.78850  Biso   1.000  C
  C543     1.0000 0.90950  0.50820  0.88680  Biso   1.000  C
  C544     1.0000 0.90990  0.47210  0.90050  Biso   1.000  C
  C545     1.0000 0.91730  0.63080  0.81860  Biso   1.000  C
  C546     1.0000 0.92930  0.64610  0.77250  Biso   1.000  C
  C547     1.0000 0.96160  0.66890  0.77660  Biso   1.000  C
  C548     1.0000 0.98340  0.67620  0.82300  Biso   1.000  C
  C549     1.0000 0.96760  0.65940  0.86960  Biso   1.000  C
  C550     1.0000 0.93660  0.63810  0.86400  Biso   1.000  C
  C551     1.0000 0.01700  0.69840  0.82690  Biso   1.000  C
  C552     1.0000 0.79010  0.52260  0.81400  Biso   1.000  C
  C553     1.0000 0.79520  0.49400  0.78350  Biso   1.000  C
  C554     1.0000 0.76920  0.46630  0.78590  Biso   1.000  C
  C555     1.0000 0.73810  0.46710  0.81890  Biso   1.000  C
  C556     1.0000 0.73310  0.49560  0.84950  Biso   1.000  C
  C557     1.0000 0.75910  0.52340  0.84710  Biso   1.000  C
  C558     1.0000 0.75400  0.55200  0.87770  Biso   1.000  C
  C559     1.0000 0.72290  0.55280  0.91070  Biso   1.000  C
  C560     1.0000 0.69690  0.52500  0.91310  Biso   1.000  C
  C561     1.0000 0.70200  0.49640  0.88250  Biso   1.000  C
  C562     1.0000 0.84640  0.46010  0.74300  Biso   1.000  C
  C563     1.0000 0.89070  0.46710  0.72800  Biso   1.000  C
  C564     1.0000 0.71480  0.43440  0.82050  Biso   1.000  C
  C565     1.0000 0.68250  0.42720  0.78280  Biso   1.000  C
  C566     1.0000 0.65640  0.40010  0.78980  Biso   1.000  C
  C567     1.0000 0.66260  0.38020  0.83470  Biso   1.000  C
  C568     1.0000 0.69490  0.38740  0.87240  Biso   1.000  C
  C569     1.0000 0.72100  0.41450  0.86540  Biso   1.000  C
  C570     1.0000 0.63950  0.34290  0.83700  Biso   1.000  C
  Zn21     1.0000 0.59684  0.21771  0.88821  Biso   1.000  Zn
  Zn22     1.0000 0.55839  0.25850  0.78951  Biso   1.000  Zn
  Zn23     1.0000 0.60107  0.29730  0.88716  Biso   1.000  Zn
  Zn24     1.0000 0.65707  0.25257  0.81754  Biso   1.000  Zn
  Cl48     1.0000 0.78240  0.28410  0.20400  Biso   1.000  Cl
  Cl49     1.0000 0.66970  0.13410  0.50540  Biso   1.000  Cl
  Cl50     1.0000 0.82800  0.86160  0.00110  Biso   1.000  Cl
  Cl51     1.0000 0.64530  0.99260  0.72840  Biso   1.000  Cl
  Cl52     1.0000 0.27550  0.18600  0.71680  Biso   1.000  Cl
  Cl53     1.0000 0.17160  0.02450  0.96870  Biso   1.000  Cl
  Cl54     1.0000 0.14660  0.03120  0.92500  Biso   1.000  Cl
  O96      1.0000 0.60420  0.25790  0.84430  Biso   1.000  O
  O97      1.0000 0.59730  0.22770  0.96130  Biso   1.000  O
  O98      1.0000 0.60570  0.28470  0.96300  Biso   1.000  O
  O99      1.0000 0.56880  0.24020  0.32200  Biso   1.000  O
  O100     1.0000 0.57300  0.26500  0.71930  Biso   1.000  O
  O101     1.0000 0.63860  0.25600  0.73890  Biso   1.000  O
  O102     1.0000 0.62700  0.31920  0.37240  Biso   1.000  O
  O103     1.0000 0.01840  0.79340  0.80100  Biso   1.000  O
  O104     1.0000 0.04330  0.81560  0.87690  Biso   1.000  O
  O105     1.0000 0.84450  0.98300  0.75190  Biso   1.000  O
  O106     1.0000 0.66900  0.20250  0.81570  Biso   1.000  O
  O107     1.0000 0.63480  0.18080  0.87990  Biso   1.000  O
  O108     1.0000 0.85290  0.03050  0.90280  Biso   1.000  O
  O109     1.0000 0.54270  0.19640  0.86950  Biso   1.000  O
  O110     1.0000 0.52370  0.21700  0.78870  Biso   1.000  O
  O111     1.0000 0.36910  0.01540  0.86150  Biso   1.000  O
  O112     1.0000 0.11540  0.83450  0.80040  Biso   1.000  O
  O113     1.0000 0.14070  0.83480  0.88260  Biso   1.000  O
  O114     1.0000 0.32810  0.99330  0.75190  Biso   1.000  O
  C571     1.0000 0.63670  0.25950  0.31930  Biso   1.000  C
  C572     1.0000 0.60160  0.24920  0.29120  Biso   1.000  C
  C573     1.0000 0.59500  0.25000  0.23930  Biso   1.000  C
  C574     1.0000 0.62950  0.25950  0.21090  Biso   1.000  C
  C575     1.0000 0.70480  0.27100  0.21010  Biso   1.000  C
  C576     1.0000 0.74190  0.27810  0.23660  Biso   1.000  C
  C577     1.0000 0.74350  0.28250  0.29310  Biso   1.000  C
  C578     1.0000 0.71070  0.27520  0.31840  Biso   1.000  C
  C579     1.0000 0.66980  0.26690  0.29350  Biso   1.000  C
  C580     1.0000 0.66330  0.26590  0.23580  Biso   1.000  C
  C581     1.0000 0.53040  0.25810  0.31240  Biso   1.000  C
  C582     1.0000 0.53090  0.28810  0.33940  Biso   1.000  C
  C583     1.0000 0.62290  0.25800  0.15150  Biso   1.000  C
  C584     1.0000 0.62870  0.28510  0.12310  Biso   1.000  C
  C585     1.0000 0.62190  0.28520  0.06880  Biso   1.000  C
  C586     1.0000 0.60820  0.25750  0.04340  Biso   1.000  C
  C587     1.0000 0.60450  0.22850  0.07190  Biso   1.000  C
  C588     1.0000 0.60970  0.22750  0.12650  Biso   1.000  C
  C589     1.0000 0.60430  0.25460  0.98560  Biso   1.000  C
  C590     1.0000 0.63900  0.25970  0.37840  Biso   1.000  C
  C591     1.0000 0.63190  0.29060  0.40540  Biso   1.000  C
  C592     1.0000 0.63010  0.29100  0.45930  Biso   1.000  C
  C593     1.0000 0.63490  0.26330  0.48700  Biso   1.000  C
  C594     1.0000 0.64990  0.20080  0.49400  Biso   1.000  C
  C595     1.0000 0.66130  0.17100  0.46820  Biso   1.000  C
  C596     1.0000 0.66550  0.17140  0.41460  Biso   1.000  C
  C597     1.0000 0.65750  0.20250  0.38670  Biso   1.000  C
  C598     1.0000 0.64590  0.22830  0.40900  Biso   1.000  C
  C599     1.0000 0.64540  0.23110  0.46680  Biso   1.000  C
  C600     1.0000 0.61630  0.35160  0.39480  Biso   1.000  C
  C601     1.0000 0.60950  0.37720  0.35220  Biso   1.000  C
  C602     1.0000 0.63000  0.26470  0.54510  Biso   1.000  C
  C603     1.0000 0.59120  0.26750  0.56040  Biso   1.000  C
  C604     1.0000 0.58310  0.26650  0.61340  Biso   1.000  C
  C605     1.0000 0.61440  0.26370  0.65060  Biso   1.000  C
  C606     1.0000 0.65580  0.26000  0.63600  Biso   1.000  C
  C607     1.0000 0.66170  0.26110  0.58350  Biso   1.000  C
  C608     1.0000 0.60860  0.26150  0.70550  Biso   1.000  C
  C609     1.0000 0.83280  0.96710  0.83940  Biso   1.000  C
  C610     1.0000 0.86000  0.96450  0.80150  Biso   1.000  C
  C611     1.0000 0.88660  0.93690  0.80170  Biso   1.000  C
  C612     1.0000 0.88580  0.91190  0.83990  Biso   1.000  C
  C613     1.0000 0.85860  0.91450  0.87780  Biso   1.000  C
  C614     1.0000 0.83200  0.94210  0.87760  Biso   1.000  C
  C615     1.0000 0.80480  0.94480  0.91550  Biso   1.000  C
  C616     1.0000 0.80400  0.91980  0.95370  Biso   1.000  C
  C617     1.0000 0.83050  0.89220  0.95400  Biso   1.000  C
  C618     1.0000 0.85780  0.88950  0.91600  Biso   1.000  C
  C619     1.0000 0.85360  0.97310  0.70160  Biso   1.000  C
  C620     1.0000 0.89950  0.98410  0.71200  Biso   1.000  C
  C621     1.0000 0.92020  0.88360  0.84180  Biso   1.000  C
  C622     1.0000 0.94690  0.88120  0.88340  Biso   1.000  C
  C623     1.0000 0.98010  0.85860  0.88010  Biso   1.000  C
  C624     1.0000 0.98310  0.83580  0.83840  Biso   1.000  C
  C625     1.0000 0.95410  0.83950  0.79860  Biso   1.000  C
  C626     1.0000 0.91940  0.86090  0.79930  Biso   1.000  C
  C627     1.0000 0.01640  0.81420  0.83880  Biso   1.000  C
  C628     1.0000 0.80580  0.99940  0.83790  Biso   1.000  C
  C629     1.0000 0.81930  0.02950  0.86240  Biso   1.000  C
  C630     1.0000 0.79280  0.05710  0.86320  Biso   1.000  C
  C631     1.0000 0.75290  0.05460  0.83960  Biso   1.000  C
  C632     1.0000 0.73930  0.02460  0.81520  Biso   1.000  C
  C633     1.0000 0.76580  0.99700  0.81430  Biso   1.000  C
  C634     1.0000 0.75230  0.96690  0.78990  Biso   1.000  C
  C635     1.0000 0.71230  0.96440  0.76630  Biso   1.000  C
  C636     1.0000 0.68590  0.99200  0.76710  Biso   1.000  C
  C637     1.0000 0.69940  0.02210  0.79160  Biso   1.000  C
  C638     1.0000 0.86200  0.06550  0.91400  Biso   1.000  C
  C639     1.0000 0.85100  0.10200  0.90000  Biso   1.000  C
  C640     1.0000 0.72920  0.08620  0.83990  Biso   1.000  C
  C641     1.0000 0.70610  0.09410  0.87970  Biso   1.000  C
  C642     1.0000 0.68310  0.12320  0.88410  Biso   1.000  C
  C643     1.0000 0.68460  0.14600  0.84430  Biso   1.000  C
  C644     1.0000 0.70610  0.13980  0.80310  Biso   1.000  C
  C645     1.0000 0.72810  0.11080  0.80200  Biso   1.000  C
  C646     1.0000 0.66040  0.17880  0.84580  Biso   1.000  C
  C647     1.0000 0.32430  0.05070  0.80660  Biso   1.000  C
  C648     1.0000 0.36110  0.04770  0.83820  Biso   1.000  C
  C649     1.0000 0.39140  0.07400  0.83940  Biso   1.000  C
  C650     1.0000 0.38280  0.10240  0.81530  Biso   1.000  C
  C651     1.0000 0.33050  0.14250  0.76610  Biso   1.000  C
  C652     1.0000 0.28940  0.14650  0.73940  Biso   1.000  C
  C653     1.0000 0.26200  0.11930  0.73810  Biso   1.000  C
  C654     1.0000 0.27400  0.08970  0.75530  Biso   1.000  C
  C655     1.0000 0.31440  0.08050  0.78720  Biso   1.000  C
  C656     1.0000 0.34280  0.11100  0.78850  Biso   1.000  C
  C657     1.0000 0.40950  0.00820  0.88680  Biso   1.000  C
  C658     1.0000 0.40990  0.97210  0.90050  Biso   1.000  C
  C659     1.0000 0.41730  0.13080  0.81860  Biso   1.000  C
  C660     1.0000 0.42930  0.14610  0.77250  Biso   1.000  C
  C661     1.0000 0.46160  0.16890  0.77660  Biso   1.000  C
  C662     1.0000 0.48340  0.17620  0.82300  Biso   1.000  C
  C663     1.0000 0.46760  0.15940  0.86960  Biso   1.000  C
  C664     1.0000 0.43660  0.13810  0.86400  Biso   1.000  C
  C665     1.0000 0.51700  0.19840  0.82690  Biso   1.000  C
  C666     1.0000 0.29010  0.02260  0.81400  Biso   1.000  C
  C667     1.0000 0.29520  0.99400  0.78350  Biso   1.000  C
  C668     1.0000 0.26920  0.96630  0.78590  Biso   1.000  C
  C669     1.0000 0.23810  0.96710  0.81890  Biso   1.000  C
  C670     1.0000 0.23310  0.99560  0.84950  Biso   1.000  C
  C671     1.0000 0.25910  0.02340  0.84710  Biso   1.000  C
  C672     1.0000 0.25400  0.05200  0.87770  Biso   1.000  C
  C673     1.0000 0.22290  0.05280  0.91070  Biso   1.000  C
  C674     1.0000 0.19690  0.02500  0.91310  Biso   1.000  C
  C675     1.0000 0.20200  0.99640  0.88250  Biso   1.000  C
  C676     1.0000 0.34640  0.96010  0.74300  Biso   1.000  C
  C677     1.0000 0.39070  0.96710  0.72800  Biso   1.000  C
  C678     1.0000 0.21480  0.93440  0.82050  Biso   1.000  C
  C679     1.0000 0.18250  0.92720  0.78280  Biso   1.000  C
  C680     1.0000 0.15640  0.90010  0.78980  Biso   1.000  C
  C681     1.0000 0.16260  0.88020  0.83470  Biso   1.000  C
  C682     1.0000 0.19490  0.88740  0.87240  Biso   1.000  C
  C683     1.0000 0.22100  0.91450  0.86540  Biso   1.000  C
  C684     1.0000 0.13950  0.84290  0.83700  Biso   1.000  C
  Zn25     1.0000 0.90316  0.71771  0.11179  Biso   1.000  Zn
  Zn26     1.0000 0.94161  0.75850  0.21049  Biso   1.000  Zn
  Zn27     1.0000 0.89893  0.79730  0.11284  Biso   1.000  Zn
  Zn28     1.0000 0.84293  0.75257  0.18246  Biso   1.000  Zn
  Cl55     1.0000 0.71760  0.78410  0.79600  Biso   1.000  Cl
  Cl56     1.0000 0.83030  0.63410  0.49460  Biso   1.000  Cl
  Cl57     1.0000 0.67200  0.36160  0.99890  Biso   1.000  Cl
  Cl58     1.0000 0.85470  0.49260  0.27160  Biso   1.000  Cl
  Cl59     1.0000 0.22450  0.68600  0.28320  Biso   1.000  Cl
  Cl60     1.0000 0.32840  0.52450  0.03130  Biso   1.000  Cl
  Cl61     1.0000 0.35340  0.53120  0.07500  Biso   1.000  Cl
  O115     1.0000 0.89580  0.75790  0.15570  Biso   1.000  O
  O116     1.0000 0.90270  0.72770  0.03870  Biso   1.000  O
  O117     1.0000 0.89430  0.78470  0.03700  Biso   1.000  O
  O118     1.0000 0.93120  0.74020  0.67800  Biso   1.000  O
  O119     1.0000 0.92700  0.76500  0.28070  Biso   1.000  O
  O120     1.0000 0.86140  0.75600  0.26110  Biso   1.000  O
  O121     1.0000 0.87300  0.81920  0.62760  Biso   1.000  O
  O122     1.0000 0.48160  0.29340  0.19900  Biso   1.000  O
  O123     1.0000 0.45670  0.31560  0.12310  Biso   1.000  O
  O124     1.0000 0.65550  0.48300  0.24810  Biso   1.000  O
  O125     1.0000 0.83100  0.70250  0.18430  Biso   1.000  O
  O126     1.0000 0.86520  0.68080  0.12010  Biso   1.000  O
  O127     1.0000 0.64710  0.53050  0.09720  Biso   1.000  O
  O128     1.0000 0.95730  0.69640  0.13050  Biso   1.000  O
  O129     1.0000 0.97630  0.71700  0.21130  Biso   1.000  O
  O130     1.0000 0.13090  0.51540  0.13850  Biso   1.000  O
  O131     1.0000 0.38460  0.33450  0.19960  Biso   1.000  O
  O132     1.0000 0.35930  0.33480  0.11740  Biso   1.000  O
  O133     1.0000 0.17190  0.49330  0.24810  Biso   1.000  O
  C685     1.0000 0.86330  0.75950  0.68070  Biso   1.000  C
  C686     1.0000 0.89840  0.74920  0.70880  Biso   1.000  C
  C687     1.0000 0.90500  0.75000  0.76070  Biso   1.000  C
  C688     1.0000 0.87050  0.75950  0.78910  Biso   1.000  C
  C689     1.0000 0.79520  0.77100  0.78990  Biso   1.000  C
  C690     1.0000 0.75810  0.77810  0.76340  Biso   1.000  C
  C691     1.0000 0.75650  0.78250  0.70690  Biso   1.000  C
  C692     1.0000 0.78930  0.77520  0.68160  Biso   1.000  C
  C693     1.0000 0.83020  0.76690  0.70650  Biso   1.000  C
  C694     1.0000 0.83670  0.76590  0.76420  Biso   1.000  C
  C695     1.0000 0.96960  0.75810  0.68760  Biso   1.000  C
  C696     1.0000 0.96910  0.78810  0.66060  Biso   1.000  C
  C697     1.0000 0.87710  0.75800  0.84850  Biso   1.000  C
  C698     1.0000 0.87130  0.78510  0.87690  Biso   1.000  C
  C699     1.0000 0.87810  0.78520  0.93120  Biso   1.000  C
  C700     1.0000 0.89180  0.75750  0.95660  Biso   1.000  C
  C701     1.0000 0.89550  0.72850  0.92810  Biso   1.000  C
  C702     1.0000 0.89030  0.72750  0.87350  Biso   1.000  C
  C703     1.0000 0.89570  0.75460  0.01440  Biso   1.000  C
  C704     1.0000 0.86100  0.75970  0.62160  Biso   1.000  C
  C705     1.0000 0.86810  0.79060  0.59460  Biso   1.000  C
  C706     1.0000 0.86990  0.79100  0.54070  Biso   1.000  C
  C707     1.0000 0.86510  0.76330  0.51300  Biso   1.000  C
  C708     1.0000 0.85010  0.70080  0.50600  Biso   1.000  C
  C709     1.0000 0.83870  0.67100  0.53180  Biso   1.000  C
  C710     1.0000 0.83450  0.67140  0.58540  Biso   1.000  C
  C711     1.0000 0.84250  0.70250  0.61330  Biso   1.000  C
  C712     1.0000 0.85410  0.72830  0.59100  Biso   1.000  C
  C713     1.0000 0.85460  0.73110  0.53320  Biso   1.000  C
  C714     1.0000 0.88370  0.85160  0.60520  Biso   1.000  C
  C715     1.0000 0.89050  0.87720  0.64780  Biso   1.000  C
  C716     1.0000 0.87000  0.76470  0.45490  Biso   1.000  C
  C717     1.0000 0.90880  0.76750  0.43960  Biso   1.000  C
  C718     1.0000 0.91690  0.76650  0.38660  Biso   1.000  C
  C719     1.0000 0.88560  0.76370  0.34940  Biso   1.000  C
  C720     1.0000 0.84420  0.76000  0.36400  Biso   1.000  C
  C721     1.0000 0.83830  0.76110  0.41650  Biso   1.000  C
  C722     1.0000 0.89140  0.76150  0.29450  Biso   1.000  C
  C723     1.0000 0.66720  0.46710  0.16060  Biso   1.000  C
  C724     1.0000 0.64000  0.46450  0.19850  Biso   1.000  C
  C725     1.0000 0.61340  0.43690  0.19830  Biso   1.000  C
  C726     1.0000 0.61420  0.41190  0.16010  Biso   1.000  C
  C727     1.0000 0.64140  0.41450  0.12220  Biso   1.000  C
  C728     1.0000 0.66800  0.44210  0.12240  Biso   1.000  C
  C729     1.0000 0.69520  0.44480  0.08450  Biso   1.000  C
  C730     1.0000 0.69600  0.41980  0.04630  Biso   1.000  C
  C731     1.0000 0.66950  0.39220  0.04600  Biso   1.000  C
  C732     1.0000 0.64220  0.38950  0.08400  Biso   1.000  C
  C733     1.0000 0.64640  0.47310  0.29840  Biso   1.000  C
  C734     1.0000 0.60050  0.48410  0.28800  Biso   1.000  C
  C735     1.0000 0.57980  0.38360  0.15820  Biso   1.000  C
  C736     1.0000 0.55310  0.38120  0.11660  Biso   1.000  C
  C737     1.0000 0.51990  0.35860  0.11990  Biso   1.000  C
  C738     1.0000 0.51690  0.33580  0.16160  Biso   1.000  C
  C739     1.0000 0.54590  0.33950  0.20140  Biso   1.000  C
  C740     1.0000 0.58060  0.36090  0.20070  Biso   1.000  C
  C741     1.0000 0.48360  0.31420  0.16120  Biso   1.000  C
  C742     1.0000 0.69420  0.49940  0.16210  Biso   1.000  C
  C743     1.0000 0.68070  0.52950  0.13760  Biso   1.000  C
  C744     1.0000 0.70720  0.55710  0.13680  Biso   1.000  C
  C745     1.0000 0.74710  0.55460  0.16040  Biso   1.000  C
  C746     1.0000 0.76070  0.52460  0.18480  Biso   1.000  C
  C747     1.0000 0.73420  0.49700  0.18570  Biso   1.000  C
  C748     1.0000 0.74770  0.46690  0.21010  Biso   1.000  C
  C749     1.0000 0.78770  0.46440  0.23370  Biso   1.000  C
  C750     1.0000 0.81410  0.49200  0.23290  Biso   1.000  C
  C751     1.0000 0.80060  0.52210  0.20840  Biso   1.000  C
  C752     1.0000 0.63800  0.56550  0.08600  Biso   1.000  C
  C753     1.0000 0.64900  0.60200  0.10000  Biso   1.000  C
  C754     1.0000 0.77080  0.58620  0.16010  Biso   1.000  C
  C755     1.0000 0.79390  0.59410  0.12030  Biso   1.000  C
  C756     1.0000 0.81690  0.62320  0.11590  Biso   1.000  C
  C757     1.0000 0.81540  0.64600  0.15570  Biso   1.000  C
  C758     1.0000 0.79390  0.63980  0.19690  Biso   1.000  C
  C759     1.0000 0.77190  0.61080  0.19800  Biso   1.000  C
  C760     1.0000 0.83960  0.67880  0.15420  Biso   1.000  C
  C761     1.0000 0.17570  0.55070  0.19340  Biso   1.000  C
  C762     1.0000 0.13890  0.54770  0.16180  Biso   1.000  C
  C763     1.0000 0.10860  0.57400  0.16060  Biso   1.000  C
  C764     1.0000 0.11720  0.60240  0.18470  Biso   1.000  C
  C765     1.0000 0.16950  0.64250  0.23390  Biso   1.000  C
  C766     1.0000 0.21060  0.64650  0.26060  Biso   1.000  C
  C767     1.0000 0.23800  0.61930  0.26190  Biso   1.000  C
  C768     1.0000 0.22600  0.58970  0.24470  Biso   1.000  C
  C769     1.0000 0.18560  0.58050  0.21280  Biso   1.000  C
  C770     1.0000 0.15720  0.61100  0.21150  Biso   1.000  C
  C771     1.0000 0.09050  0.50820  0.11320  Biso   1.000  C
  C772     1.0000 0.09010  0.47210  0.09950  Biso   1.000  C
  C773     1.0000 0.08270  0.63080  0.18140  Biso   1.000  C
  C774     1.0000 0.07070  0.64610  0.22750  Biso   1.000  C
  C775     1.0000 0.03840  0.66890  0.22340  Biso   1.000  C
  C776     1.0000 0.01660  0.67620  0.17700  Biso   1.000  C
  C777     1.0000 0.03240  0.65940  0.13040  Biso   1.000  C
  C778     1.0000 0.06340  0.63810  0.13600  Biso   1.000  C
  C779     1.0000 0.98300  0.69840  0.17310  Biso   1.000  C
  C780     1.0000 0.20990  0.52260  0.18600  Biso   1.000  C
  C781     1.0000 0.20480  0.49400  0.21650  Biso   1.000  C
  C782     1.0000 0.23080  0.46630  0.21410  Biso   1.000  C
  C783     1.0000 0.26190  0.46710  0.18110  Biso   1.000  C
  C784     1.0000 0.26690  0.49560  0.15050  Biso   1.000  C
  C785     1.0000 0.24090  0.52340  0.15290  Biso   1.000  C
  C786     1.0000 0.24600  0.55200  0.12230  Biso   1.000  C
  C787     1.0000 0.27710  0.55280  0.08930  Biso   1.000  C
  C788     1.0000 0.30310  0.52500  0.08690  Biso   1.000  C
  C789     1.0000 0.29800  0.49640  0.11750  Biso   1.000  C
  C790     1.0000 0.15360  0.46010  0.25700  Biso   1.000  C
  C791     1.0000 0.10930  0.46710  0.27200  Biso   1.000  C
  C792     1.0000 0.28520  0.43440  0.17950  Biso   1.000  C
  C793     1.0000 0.31750  0.42720  0.21720  Biso   1.000  C
  C794     1.0000 0.34360  0.40010  0.21020  Biso   1.000  C
  C795     1.0000 0.33740  0.38020  0.16530  Biso   1.000  C
  C796     1.0000 0.30510  0.38740  0.12760  Biso   1.000  C
  C797     1.0000 0.27900  0.41450  0.13460  Biso   1.000  C
  C798     1.0000 0.36050  0.34290  0.16300  Biso   1.000  C
  Zn29     1.0000 0.40316  0.21771  0.11179  Biso   1.000  Zn
  Zn30     1.0000 0.44161  0.25850  0.21049  Biso   1.000  Zn
  Zn31     1.0000 0.39893  0.29730  0.11284  Biso   1.000  Zn
  Zn32     1.0000 0.34293  0.25257  0.18246  Biso   1.000  Zn
  Cl62     1.0000 0.21760  0.28410  0.79600  Biso   1.000  Cl
  Cl63     1.0000 0.33030  0.13410  0.49460  Biso   1.000  Cl
  Cl64     1.0000 0.17200  0.86160  0.99890  Biso   1.000  Cl
  Cl65     1.0000 0.35470  0.99260  0.27160  Biso   1.000  Cl
  Cl66     1.0000 0.72450  0.18600  0.28320  Biso   1.000  Cl
  Cl67     1.0000 0.82840  0.02450  0.03130  Biso   1.000  Cl
  Cl68     1.0000 0.85340  0.03120  0.07500  Biso   1.000  Cl
  O134     1.0000 0.39580  0.25790  0.15570  Biso   1.000  O
  O135     1.0000 0.40270  0.22770  0.03870  Biso   1.000  O
  O136     1.0000 0.39430  0.28470  0.03700  Biso   1.000  O
  O137     1.0000 0.43120  0.24020  0.67800  Biso   1.000  O
  O138     1.0000 0.42700  0.26500  0.28070  Biso   1.000  O
  O139     1.0000 0.36140  0.25600  0.26110  Biso   1.000  O
  O140     1.0000 0.37300  0.31920  0.62760  Biso   1.000  O
  O141     1.0000 0.98160  0.79340  0.19900  Biso   1.000  O
  O142     1.0000 0.95670  0.81560  0.12310  Biso   1.000  O
  O143     1.0000 0.15550  0.98300  0.24810  Biso   1.000  O
  O144     1.0000 0.33100  0.20250  0.18430  Biso   1.000  O
  O145     1.0000 0.36520  0.18080  0.12010  Biso   1.000  O
  O146     1.0000 0.14710  0.03050  0.09720  Biso   1.000  O
  O147     1.0000 0.45730  0.19640  0.13050  Biso   1.000  O
  O148     1.0000 0.47630  0.21700  0.21130  Biso   1.000  O
  O149     1.0000 0.63090  0.01540  0.13850  Biso   1.000  O
  O150     1.0000 0.88460  0.83450  0.19960  Biso   1.000  O
  O151     1.0000 0.85930  0.83480  0.11740  Biso   1.000  O
  O152     1.0000 0.67190  0.99330  0.24810  Biso   1.000  O
  C799     1.0000 0.36330  0.25950  0.68070  Biso   1.000  C
  C800     1.0000 0.39840  0.24920  0.70880  Biso   1.000  C
  C801     1.0000 0.40500  0.25000  0.76070  Biso   1.000  C
  C802     1.0000 0.37050  0.25950  0.78910  Biso   1.000  C
  C803     1.0000 0.29520  0.27100  0.78990  Biso   1.000  C
  C804     1.0000 0.25810  0.27810  0.76340  Biso   1.000  C
  C805     1.0000 0.25650  0.28250  0.70690  Biso   1.000  C
  C806     1.0000 0.28930  0.27520  0.68160  Biso   1.000  C
  C807     1.0000 0.33020  0.26690  0.70650  Biso   1.000  C
  C808     1.0000 0.33670  0.26590  0.76420  Biso   1.000  C
  C809     1.0000 0.46960  0.25810  0.68760  Biso   1.000  C
  C810     1.0000 0.46910  0.28810  0.66060  Biso   1.000  C
  C811     1.0000 0.37710  0.25800  0.84850  Biso   1.000  C
  C812     1.0000 0.37130  0.28510  0.87690  Biso   1.000  C
  C813     1.0000 0.37810  0.28520  0.93120  Biso   1.000  C
  C814     1.0000 0.39180  0.25750  0.95660  Biso   1.000  C
  C815     1.0000 0.39550  0.22850  0.92810  Biso   1.000  C
  C816     1.0000 0.39030  0.22750  0.87350  Biso   1.000  C
  C817     1.0000 0.39570  0.25460  0.01440  Biso   1.000  C
  C818     1.0000 0.36100  0.25970  0.62160  Biso   1.000  C
  C819     1.0000 0.36810  0.29060  0.59460  Biso   1.000  C
  C820     1.0000 0.36990  0.29100  0.54070  Biso   1.000  C
  C821     1.0000 0.36510  0.26330  0.51300  Biso   1.000  C
  C822     1.0000 0.35010  0.20080  0.50600  Biso   1.000  C
  C823     1.0000 0.33870  0.17100  0.53180  Biso   1.000  C
  C824     1.0000 0.33450  0.17140  0.58540  Biso   1.000  C
  C825     1.0000 0.34250  0.20250  0.61330  Biso   1.000  C
  C826     1.0000 0.35410  0.22830  0.59100  Biso   1.000  C
  C827     1.0000 0.35460  0.23110  0.53320  Biso   1.000  C
  C828     1.0000 0.38370  0.35160  0.60520  Biso   1.000  C
  C829     1.0000 0.39050  0.37720  0.64780  Biso   1.000  C
  C830     1.0000 0.37000  0.26470  0.45490  Biso   1.000  C
  C831     1.0000 0.40880  0.26750  0.43960  Biso   1.000  C
  C832     1.0000 0.41690  0.26650  0.38660  Biso   1.000  C
  C833     1.0000 0.38560  0.26370  0.34940  Biso   1.000  C
  C834     1.0000 0.34420  0.26000  0.36400  Biso   1.000  C
  C835     1.0000 0.33830  0.26110  0.41650  Biso   1.000  C
  C836     1.0000 0.39140  0.26150  0.29450  Biso   1.000  C
  C837     1.0000 0.16720  0.96710  0.16060  Biso   1.000  C
  C838     1.0000 0.14000  0.96450  0.19850  Biso   1.000  C
  C839     1.0000 0.11340  0.93690  0.19830  Biso   1.000  C
  C840     1.0000 0.11420  0.91190  0.16010  Biso   1.000  C
  C841     1.0000 0.14140  0.91450  0.12220  Biso   1.000  C
  C842     1.0000 0.16800  0.94210  0.12240  Biso   1.000  C
  C843     1.0000 0.19520  0.94480  0.08450  Biso   1.000  C
  C844     1.0000 0.19600  0.91980  0.04630  Biso   1.000  C
  C845     1.0000 0.16950  0.89220  0.04600  Biso   1.000  C
  C846     1.0000 0.14220  0.88950  0.08400  Biso   1.000  C
  C847     1.0000 0.14640  0.97310  0.29840  Biso   1.000  C
  C848     1.0000 0.10050  0.98410  0.28800  Biso   1.000  C
  C849     1.0000 0.07980  0.88360  0.15820  Biso   1.000  C
  C850     1.0000 0.05310  0.88120  0.11660  Biso   1.000  C
  C851     1.0000 0.01990  0.85860  0.11990  Biso   1.000  C
  C852     1.0000 0.01690  0.83580  0.16160  Biso   1.000  C
  C853     1.0000 0.04590  0.83950  0.20140  Biso   1.000  C
  C854     1.0000 0.08060  0.86090  0.20070  Biso   1.000  C
  C855     1.0000 0.98360  0.81420  0.16120  Biso   1.000  C
  C856     1.0000 0.19420  0.99940  0.16210  Biso   1.000  C
  C857     1.0000 0.18070  0.02950  0.13760  Biso   1.000  C
  C858     1.0000 0.20720  0.05710  0.13680  Biso   1.000  C
  C859     1.0000 0.24710  0.05460  0.16040  Biso   1.000  C
  C860     1.0000 0.26070  0.02460  0.18480  Biso   1.000  C
  C861     1.0000 0.23420  0.99700  0.18570  Biso   1.000  C
  C862     1.0000 0.24770  0.96690  0.21010  Biso   1.000  C
  C863     1.0000 0.28770  0.96440  0.23370  Biso   1.000  C
  C864     1.0000 0.31410  0.99200  0.23290  Biso   1.000  C
  C865     1.0000 0.30060  0.02210  0.20840  Biso   1.000  C
  C866     1.0000 0.13800  0.06550  0.08600  Biso   1.000  C
  C867     1.0000 0.14900  0.10200  0.10000  Biso   1.000  C
  C868     1.0000 0.27080  0.08620  0.16010  Biso   1.000  C
  C869     1.0000 0.29390  0.09410  0.12030  Biso   1.000  C
  C870     1.0000 0.31690  0.12320  0.11590  Biso   1.000  C
  C871     1.0000 0.31540  0.14600  0.15570  Biso   1.000  C
  C872     1.0000 0.29390  0.13980  0.19690  Biso   1.000  C
  C873     1.0000 0.27190  0.11080  0.19800  Biso   1.000  C
  C874     1.0000 0.33960  0.17880  0.15420  Biso   1.000  C
  C875     1.0000 0.67570  0.05070  0.19340  Biso   1.000  C
  C876     1.0000 0.63890  0.04770  0.16180  Biso   1.000  C
  C877     1.0000 0.60860  0.07400  0.16060  Biso   1.000  C
  C878     1.0000 0.61720  0.10240  0.18470  Biso   1.000  C
  C879     1.0000 0.66950  0.14250  0.23390  Biso   1.000  C
  C880     1.0000 0.71060  0.14650  0.26060  Biso   1.000  C
  C881     1.0000 0.73800  0.11930  0.26190  Biso   1.000  C
  C882     1.0000 0.72600  0.08970  0.24470  Biso   1.000  C
  C883     1.0000 0.68560  0.08050  0.21280  Biso   1.000  C
  C884     1.0000 0.65720  0.11100  0.21150  Biso   1.000  C
  C885     1.0000 0.59050  0.00820  0.11320  Biso   1.000  C
  C886     1.0000 0.59010  0.97210  0.09950  Biso   1.000  C
  C887     1.0000 0.58270  0.13080  0.18140  Biso   1.000  C
  C888     1.0000 0.57070  0.14610  0.22750  Biso   1.000  C
  C889     1.0000 0.53840  0.16890  0.22340  Biso   1.000  C
  C890     1.0000 0.51660  0.17620  0.17700  Biso   1.000  C
  C891     1.0000 0.53240  0.15940  0.13040  Biso   1.000  C
  C892     1.0000 0.56340  0.13810  0.13600  Biso   1.000  C
  C893     1.0000 0.48300  0.19840  0.17310  Biso   1.000  C
  C894     1.0000 0.70990  0.02260  0.18600  Biso   1.000  C
  C895     1.0000 0.70480  0.99400  0.21650  Biso   1.000  C
  C896     1.0000 0.73080  0.96630  0.21410  Biso   1.000  C
  C897     1.0000 0.76190  0.96710  0.18110  Biso   1.000  C
  C898     1.0000 0.76690  0.99560  0.15050  Biso   1.000  C
  C899     1.0000 0.74090  0.02340  0.15290  Biso   1.000  C
  C900     1.0000 0.74600  0.05200  0.12230  Biso   1.000  C
  C901     1.0000 0.77710  0.05280  0.08930  Biso   1.000  C
  C902     1.0000 0.80310  0.02500  0.08690  Biso   1.000  C
  C903     1.0000 0.79800  0.99640  0.11750  Biso   1.000  C
  C904     1.0000 0.65360  0.96010  0.25700  Biso   1.000  C
  C905     1.0000 0.60930  0.96710  0.27200  Biso   1.000  C
  C906     1.0000 0.78520  0.93440  0.17950  Biso   1.000  C
  C907     1.0000 0.81750  0.92720  0.21720  Biso   1.000  C
  C908     1.0000 0.84360  0.90010  0.21020  Biso   1.000  C
  C909     1.0000 0.83740  0.88020  0.16530  Biso   1.000  C
  C910     1.0000 0.80510  0.88740  0.12760  Biso   1.000  C
  C911     1.0000 0.77900  0.91450  0.13460  Biso   1.000  C
  C912     1.0000 0.86050  0.84290  0.16300  Biso   1.000  C
