data_image0
_cell_length_a       18.401
_cell_length_b       18.401
_cell_length_c       44.057
_cell_angle_alpha    90
_cell_angle_beta     90
_cell_angle_gamma    120

_symmetry_space_group_name_H-M    "P 1"
_symmetry_int_tables_number       1

loop_
  _symmetry_equiv_pos_as_xyz
  'x, y, z'

loop_
  _atom_site_label
  _atom_site_occupancy
  _atom_site_fract_x
  _atom_site_fract_y
  _atom_site_fract_z
  _atom_site_thermal_displace_type
  _atom_site_B_iso_or_equiv
  _atom_site_type_symbol
  O1       1.0000 0.31710  0.51400  0.97343  Biso   1.000  O
  O2       1.0000 0.14050  0.15410  0.88550  Biso   1.000  O
  O3       1.0000 0.42540  0.63370  0.06670  Biso   1.000  O
  C1       1.0000 0.25220  0.37090  0.93850  Biso   1.000  C
  H1       1.0000 0.30870  0.39570  0.94360  Biso   1.000  H
  C2       1.0000 0.21220  0.29680  0.92160  Biso   1.000  C
  H2       1.0000 0.24250  0.27070  0.91620  Biso   1.000  H
  C3       1.0000 0.44720  0.58840  0.05560  Biso   1.000  C
  C4       1.0000 0.48260  0.54550  0.07553  Biso   1.000  C
  C5       1.0000 0.49560  0.56690  0.10610  Biso   1.000  C
  H3       1.0000 0.48240  0.60590  0.11390  Biso   1.000  H
  C6       1.0000 0.52840  0.53000  0.12509  Biso   1.000  C
  H4       1.0000 0.53710  0.54430  0.14550  Biso   1.000  H
  C7       1.0000 0.25690  0.11860  0.78017  Biso   1.000  C
  C8       1.0000 0.24900  0.13170  0.74960  Biso   1.000  C
  H5       1.0000 0.19730  0.12040  0.74150  Biso   1.000  H
  C9       1.0000 0.50230  0.49450  0.06389  Biso   1.000  C
  H6       1.0000 0.49620  0.48460  0.04310  Biso   1.000  H
  O4       1.0000 0.98377  0.84733  0.30676  Biso   1.000  O
  O5       1.0000 0.80717  0.48743  0.21883  Biso   1.000  O
  O6       1.0000 0.09207  0.96703  0.40003  Biso   1.000  O
  C10      1.0000 0.91887  0.70423  0.27183  Biso   1.000  C
  H7       1.0000 0.97537  0.72903  0.27693  Biso   1.000  H
  C11      1.0000 0.87887  0.63013  0.25493  Biso   1.000  C
  H8       1.0000 0.90917  0.60403  0.24953  Biso   1.000  H
  C12      1.0000 0.11387  0.92173  0.38893  Biso   1.000  C
  C13      1.0000 0.14927  0.87883  0.40886  Biso   1.000  C
  C14      1.0000 0.16227  0.90023  0.43943  Biso   1.000  C
  H9       1.0000 0.14907  0.93923  0.44723  Biso   1.000  H
  C15      1.0000 0.19507  0.86333  0.45842  Biso   1.000  C
  H10      1.0000 0.20377  0.87763  0.47883  Biso   1.000  H
  C16      1.0000 0.92357  0.45193  0.11350  Biso   1.000  C
  C17      1.0000 0.91567  0.46503  0.08293  Biso   1.000  C
  H11      1.0000 0.86397  0.45373  0.07483  Biso   1.000  H
  C18      1.0000 0.16897  0.82783  0.39722  Biso   1.000  C
  H12      1.0000 0.16287  0.81793  0.37643  Biso   1.000  H
  O7       1.0000 0.65043  0.18067  0.64010  Biso   1.000  O
  O8       1.0000 0.47383  0.82077  0.55217  Biso   1.000  O
  O9       1.0000 0.75873  0.30037  0.73337  Biso   1.000  O
  C19      1.0000 0.58553  0.03757  0.60517  Biso   1.000  C
  H13      1.0000 0.64203  0.06237  0.61027  Biso   1.000  H
  C20      1.0000 0.54553  0.96347  0.58827  Biso   1.000  C
  H14      1.0000 0.57583  0.93737  0.58287  Biso   1.000  H
  C21      1.0000 0.78053  0.25507  0.72227  Biso   1.000  C
  C22      1.0000 0.81593  0.21217  0.74220  Biso   1.000  C
  C23      1.0000 0.82893  0.23357  0.77277  Biso   1.000  C
  H15      1.0000 0.81573  0.27257  0.78057  Biso   1.000  H
  C24      1.0000 0.86173  0.19667  0.79176  Biso   1.000  C
  H16      1.0000 0.87043  0.21097  0.81217  Biso   1.000  H
  C25      1.0000 0.59023  0.78527  0.44684  Biso   1.000  C
  C26      1.0000 0.58233  0.79837  0.41627  Biso   1.000  C
  H17      1.0000 0.53063  0.78707  0.40817  Biso   1.000  H
  C27      1.0000 0.83563  0.16117  0.73056  Biso   1.000  C
  H18      1.0000 0.82953  0.15127  0.70977  Biso   1.000  H
  O10      1.0000 0.48600  0.80310  0.97343  Biso   1.000  O
  O11      1.0000 0.84590  0.98640  0.88550  Biso   1.000  O
  O12      1.0000 0.36630  0.79170  0.06670  Biso   1.000  O
  C28      1.0000 0.62910  0.88130  0.93850  Biso   1.000  C
  H19      1.0000 0.60430  0.91300  0.94360  Biso   1.000  H
  C29      1.0000 0.70320  0.91540  0.92160  Biso   1.000  C
  H20      1.0000 0.72930  0.97180  0.91620  Biso   1.000  H
  C30      1.0000 0.41160  0.85880  0.05560  Biso   1.000  C
  C31      1.0000 0.45450  0.93710  0.07553  Biso   1.000  C
  C32      1.0000 0.43310  0.92870  0.10610  Biso   1.000  C
  H21      1.0000 0.39410  0.87650  0.11390  Biso   1.000  H
  C33      1.0000 0.47000  0.99840  0.12509  Biso   1.000  C
  H22      1.0000 0.45570  0.99280  0.14550  Biso   1.000  H
  C34      1.0000 0.88140  0.13830  0.78017  Biso   1.000  C
  C35      1.0000 0.86830  0.11730  0.74960  Biso   1.000  C
  H23      1.0000 0.87960  0.07690  0.74150  Biso   1.000  H
  C36      1.0000 0.50550  0.00780  0.06389  Biso   1.000  C
  H24      1.0000 0.51540  0.01160  0.04310  Biso   1.000  H
  O13      1.0000 0.15267  0.13643  0.30676  Biso   1.000  O
  O14      1.0000 0.51257  0.31973  0.21883  Biso   1.000  O
  O15      1.0000 0.03297  0.12503  0.40003  Biso   1.000  O
  C37      1.0000 0.29577  0.21463  0.27183  Biso   1.000  C
  H25      1.0000 0.27097  0.24633  0.27693  Biso   1.000  H
  C38      1.0000 0.36987  0.24873  0.25493  Biso   1.000  C
  H26      1.0000 0.39597  0.30513  0.24953  Biso   1.000  H
  C39      1.0000 0.07827  0.19213  0.38893  Biso   1.000  C
  C40      1.0000 0.12117  0.27043  0.40886  Biso   1.000  C
  C41      1.0000 0.09977  0.26203  0.43943  Biso   1.000  C
  H27      1.0000 0.06077  0.20983  0.44723  Biso   1.000  H
  C42      1.0000 0.13667  0.33173  0.45842  Biso   1.000  C
  H28      1.0000 0.12237  0.32613  0.47883  Biso   1.000  H
  C43      1.0000 0.54807  0.47163  0.11350  Biso   1.000  C
  C44      1.0000 0.53497  0.45063  0.08293  Biso   1.000  C
  H29      1.0000 0.54627  0.41023  0.07483  Biso   1.000  H
  C45      1.0000 0.17217  0.34113  0.39722  Biso   1.000  C
  H30      1.0000 0.18207  0.34493  0.37643  Biso   1.000  H
  O16      1.0000 0.81933  0.46977  0.64010  Biso   1.000  O
  O17      1.0000 0.17923  0.65307  0.55217  Biso   1.000  O
  O18      1.0000 0.69963  0.45837  0.73337  Biso   1.000  O
  C46      1.0000 0.96243  0.54797  0.60517  Biso   1.000  C
  H31      1.0000 0.93763  0.57967  0.61027  Biso   1.000  H
  C47      1.0000 0.03653  0.58207  0.58827  Biso   1.000  C
  H32      1.0000 0.06263  0.63847  0.58287  Biso   1.000  H
  C48      1.0000 0.74493  0.52547  0.72227  Biso   1.000  C
  C49      1.0000 0.78783  0.60377  0.74220  Biso   1.000  C
  C50      1.0000 0.76643  0.59537  0.77277  Biso   1.000  C
  H33      1.0000 0.72743  0.54317  0.78057  Biso   1.000  H
  C51      1.0000 0.80333  0.66507  0.79176  Biso   1.000  C
  H34      1.0000 0.78903  0.65947  0.81217  Biso   1.000  H
  C52      1.0000 0.21473  0.80497  0.44684  Biso   1.000  C
  C53      1.0000 0.20163  0.78397  0.41627  Biso   1.000  C
  H35      1.0000 0.21293  0.74357  0.40817  Biso   1.000  H
  C54      1.0000 0.83883  0.67447  0.73056  Biso   1.000  C
  H36      1.0000 0.84873  0.67827  0.70977  Biso   1.000  H
  O19      1.0000 0.19690  0.68290  0.97343  Biso   1.000  O
  O20      1.0000 0.01360  0.85950  0.88550  Biso   1.000  O
  O21      1.0000 0.20830  0.57460  0.06670  Biso   1.000  O
  C55      1.0000 0.11870  0.74780  0.93850  Biso   1.000  C
  H37      1.0000 0.08700  0.69130  0.94360  Biso   1.000  H
  C56      1.0000 0.08460  0.78780  0.92160  Biso   1.000  C
  H38      1.0000 0.02820  0.75750  0.91620  Biso   1.000  H
  C57      1.0000 0.14120  0.55280  0.05560  Biso   1.000  C
  C58      1.0000 0.06290  0.51740  0.07553  Biso   1.000  C
  C59      1.0000 0.07130  0.50440  0.10610  Biso   1.000  C
  H39      1.0000 0.12350  0.51760  0.11390  Biso   1.000  H
  C60      1.0000 0.00160  0.47160  0.12509  Biso   1.000  C
  H40      1.0000 0.00720  0.46290  0.14550  Biso   1.000  H
  C61      1.0000 0.86170  0.74310  0.78017  Biso   1.000  C
  C62      1.0000 0.88270  0.75100  0.74960  Biso   1.000  C
  H41      1.0000 0.92310  0.80270  0.74150  Biso   1.000  H
  C63      1.0000 0.99220  0.49770  0.06389  Biso   1.000  C
  H42      1.0000 0.98840  0.50380  0.04310  Biso   1.000  H
  O22      1.0000 0.86357  0.01623  0.30676  Biso   1.000  O
  O23      1.0000 0.68027  0.19283  0.21883  Biso   1.000  O
  O24      1.0000 0.87497  0.90793  0.40003  Biso   1.000  O
  C64      1.0000 0.78537  0.08113  0.27183  Biso   1.000  C
  H43      1.0000 0.75367  0.02463  0.27693  Biso   1.000  H
  C65      1.0000 0.75127  0.12113  0.25493  Biso   1.000  C
  H44      1.0000 0.69487  0.09083  0.24953  Biso   1.000  H
  C66      1.0000 0.80787  0.88613  0.38893  Biso   1.000  C
  C67      1.0000 0.72957  0.85073  0.40886  Biso   1.000  C
  C68      1.0000 0.73797  0.83773  0.43943  Biso   1.000  C
  H45      1.0000 0.79017  0.85093  0.44723  Biso   1.000  H
  C69      1.0000 0.66827  0.80493  0.45842  Biso   1.000  C
  H46      1.0000 0.67387  0.79623  0.47883  Biso   1.000  H
  C70      1.0000 0.52837  0.07643  0.11350  Biso   1.000  C
  C71      1.0000 0.54937  0.08433  0.08293  Biso   1.000  C
  H47      1.0000 0.58977  0.13603  0.07483  Biso   1.000  H
  C72      1.0000 0.65887  0.83103  0.39722  Biso   1.000  C
  H48      1.0000 0.65507  0.83713  0.37643  Biso   1.000  H
  O25      1.0000 0.53023  0.34957  0.64010  Biso   1.000  O
  O26      1.0000 0.34693  0.52617  0.55217  Biso   1.000  O
  O27      1.0000 0.54163  0.24127  0.73337  Biso   1.000  O
  C73      1.0000 0.45203  0.41447  0.60517  Biso   1.000  C
  H49      1.0000 0.42033  0.35797  0.61027  Biso   1.000  H
  C74      1.0000 0.41793  0.45447  0.58827  Biso   1.000  C
  H50      1.0000 0.36153  0.42417  0.58287  Biso   1.000  H
  C75      1.0000 0.47453  0.21947  0.72227  Biso   1.000  C
  C76      1.0000 0.39623  0.18407  0.74220  Biso   1.000  C
  C77      1.0000 0.40463  0.17107  0.77277  Biso   1.000  C
  H51      1.0000 0.45683  0.18427  0.78057  Biso   1.000  H
  C78      1.0000 0.33493  0.13827  0.79176  Biso   1.000  C
  H52      1.0000 0.34053  0.12957  0.81217  Biso   1.000  H
  C79      1.0000 0.19503  0.40977  0.44684  Biso   1.000  C
  C80      1.0000 0.21603  0.41767  0.41627  Biso   1.000  C
  H53      1.0000 0.25643  0.46937  0.40817  Biso   1.000  H
  C81      1.0000 0.32553  0.16437  0.73056  Biso   1.000  C
  H54      1.0000 0.32173  0.17047  0.70977  Biso   1.000  H
  O28      1.0000 0.48600  0.68290  0.97343  Biso   1.000  O
  O29      1.0000 0.84590  0.85950  0.88550  Biso   1.000  O
  O30      1.0000 0.36630  0.57460  0.06670  Biso   1.000  O
  C82      1.0000 0.62910  0.74780  0.93850  Biso   1.000  C
  H55      1.0000 0.60430  0.69130  0.94360  Biso   1.000  H
  C83      1.0000 0.70320  0.78780  0.92160  Biso   1.000  C
  H56      1.0000 0.72930  0.75750  0.91620  Biso   1.000  H
  C84      1.0000 0.41160  0.55280  0.05560  Biso   1.000  C
  C85      1.0000 0.45450  0.51740  0.07553  Biso   1.000  C
  C86      1.0000 0.43310  0.50440  0.10610  Biso   1.000  C
  H57      1.0000 0.39410  0.51760  0.11390  Biso   1.000  H
  C87      1.0000 0.47000  0.47160  0.12509  Biso   1.000  C
  H58      1.0000 0.45570  0.46290  0.14550  Biso   1.000  H
  C88      1.0000 0.88140  0.74310  0.78017  Biso   1.000  C
  C89      1.0000 0.86830  0.75100  0.74960  Biso   1.000  C
  H59      1.0000 0.87960  0.80270  0.74150  Biso   1.000  H
  C90      1.0000 0.50550  0.49770  0.06389  Biso   1.000  C
  H60      1.0000 0.51540  0.50380  0.04310  Biso   1.000  H
  O31      1.0000 0.15267  0.01623  0.30676  Biso   1.000  O
  O32      1.0000 0.51257  0.19283  0.21883  Biso   1.000  O
  O33      1.0000 0.03297  0.90793  0.40003  Biso   1.000  O
  C91      1.0000 0.29577  0.08113  0.27183  Biso   1.000  C
  H61      1.0000 0.27097  0.02463  0.27693  Biso   1.000  H
  C92      1.0000 0.36987  0.12113  0.25493  Biso   1.000  C
  H62      1.0000 0.39597  0.09083  0.24953  Biso   1.000  H
  C93      1.0000 0.07827  0.88613  0.38893  Biso   1.000  C
  C94      1.0000 0.12117  0.85073  0.40886  Biso   1.000  C
  C95      1.0000 0.09977  0.83773  0.43943  Biso   1.000  C
  H63      1.0000 0.06077  0.85093  0.44723  Biso   1.000  H
  C96      1.0000 0.13667  0.80493  0.45842  Biso   1.000  C
  H64      1.0000 0.12237  0.79623  0.47883  Biso   1.000  H
  C97      1.0000 0.54807  0.07643  0.11350  Biso   1.000  C
  C98      1.0000 0.53497  0.08433  0.08293  Biso   1.000  C
  H65      1.0000 0.54627  0.13603  0.07483  Biso   1.000  H
  C99      1.0000 0.17217  0.83103  0.39722  Biso   1.000  C
  H66      1.0000 0.18207  0.83713  0.37643  Biso   1.000  H
  O34      1.0000 0.81933  0.34957  0.64010  Biso   1.000  O
  O35      1.0000 0.17923  0.52617  0.55217  Biso   1.000  O
  O36      1.0000 0.69963  0.24127  0.73337  Biso   1.000  O
  C100     1.0000 0.96243  0.41447  0.60517  Biso   1.000  C
  H67      1.0000 0.93763  0.35797  0.61027  Biso   1.000  H
  C101     1.0000 0.03653  0.45447  0.58827  Biso   1.000  C
  H68      1.0000 0.06263  0.42417  0.58287  Biso   1.000  H
  C102     1.0000 0.74493  0.21947  0.72227  Biso   1.000  C
  C103     1.0000 0.78783  0.18407  0.74220  Biso   1.000  C
  C104     1.0000 0.76643  0.17107  0.77277  Biso   1.000  C
  H69      1.0000 0.72743  0.18427  0.78057  Biso   1.000  H
  C105     1.0000 0.80333  0.13827  0.79176  Biso   1.000  C
  H70      1.0000 0.78903  0.12957  0.81217  Biso   1.000  H
  C106     1.0000 0.21473  0.40977  0.44684  Biso   1.000  C
  C107     1.0000 0.20163  0.41767  0.41627  Biso   1.000  C
  H71      1.0000 0.21293  0.46937  0.40817  Biso   1.000  H
  C108     1.0000 0.83883  0.16437  0.73056  Biso   1.000  C
  H72      1.0000 0.84873  0.17047  0.70977  Biso   1.000  H
  O37      1.0000 0.19690  0.51400  0.97343  Biso   1.000  O
  O38      1.0000 0.01360  0.15410  0.88550  Biso   1.000  O
  O39      1.0000 0.20830  0.63370  0.06670  Biso   1.000  O
  C109     1.0000 0.11870  0.37090  0.93850  Biso   1.000  C
  H73      1.0000 0.08700  0.39570  0.94360  Biso   1.000  H
  C110     1.0000 0.08460  0.29680  0.92160  Biso   1.000  C
  H74      1.0000 0.02820  0.27070  0.91620  Biso   1.000  H
  C111     1.0000 0.14120  0.58840  0.05560  Biso   1.000  C
  C112     1.0000 0.06290  0.54550  0.07553  Biso   1.000  C
  C113     1.0000 0.07130  0.56690  0.10610  Biso   1.000  C
  H75      1.0000 0.12350  0.60590  0.11390  Biso   1.000  H
  C114     1.0000 0.00160  0.53000  0.12509  Biso   1.000  C
  H76      1.0000 0.00720  0.54430  0.14550  Biso   1.000  H
  C115     1.0000 0.86170  0.11860  0.78017  Biso   1.000  C
  C116     1.0000 0.88270  0.13170  0.74960  Biso   1.000  C
  H77      1.0000 0.92310  0.12040  0.74150  Biso   1.000  H
  C117     1.0000 0.99220  0.49450  0.06389  Biso   1.000  C
  H78      1.0000 0.98840  0.48460  0.04310  Biso   1.000  H
  O40      1.0000 0.86357  0.84733  0.30676  Biso   1.000  O
  O41      1.0000 0.68027  0.48743  0.21883  Biso   1.000  O
  O42      1.0000 0.87497  0.96703  0.40003  Biso   1.000  O
  C118     1.0000 0.78537  0.70423  0.27183  Biso   1.000  C
  H79      1.0000 0.75367  0.72903  0.27693  Biso   1.000  H
  C119     1.0000 0.75127  0.63013  0.25493  Biso   1.000  C
  H80      1.0000 0.69487  0.60403  0.24953  Biso   1.000  H
  C120     1.0000 0.80787  0.92173  0.38893  Biso   1.000  C
  C121     1.0000 0.72957  0.87883  0.40886  Biso   1.000  C
  C122     1.0000 0.73797  0.90023  0.43943  Biso   1.000  C
  H81      1.0000 0.79017  0.93923  0.44723  Biso   1.000  H
  C123     1.0000 0.66827  0.86333  0.45842  Biso   1.000  C
  H82      1.0000 0.67387  0.87763  0.47883  Biso   1.000  H
  C124     1.0000 0.52837  0.45193  0.11350  Biso   1.000  C
  C125     1.0000 0.54937  0.46503  0.08293  Biso   1.000  C
  H83      1.0000 0.58977  0.45373  0.07483  Biso   1.000  H
  C126     1.0000 0.65887  0.82783  0.39722  Biso   1.000  C
  H84      1.0000 0.65507  0.81793  0.37643  Biso   1.000  H
  O43      1.0000 0.53023  0.18067  0.64010  Biso   1.000  O
  O44      1.0000 0.34693  0.82077  0.55217  Biso   1.000  O
  O45      1.0000 0.54163  0.30037  0.73337  Biso   1.000  O
  C127     1.0000 0.45203  0.03757  0.60517  Biso   1.000  C
  H85      1.0000 0.42033  0.06237  0.61027  Biso   1.000  H
  C128     1.0000 0.41793  0.96347  0.58827  Biso   1.000  C
  H86      1.0000 0.36153  0.93737  0.58287  Biso   1.000  H
  C129     1.0000 0.47453  0.25507  0.72227  Biso   1.000  C
  C130     1.0000 0.39623  0.21217  0.74220  Biso   1.000  C
  C131     1.0000 0.40463  0.23357  0.77277  Biso   1.000  C
  H87      1.0000 0.45683  0.27257  0.78057  Biso   1.000  H
  C132     1.0000 0.33493  0.19667  0.79176  Biso   1.000  C
  H88      1.0000 0.34053  0.21097  0.81217  Biso   1.000  H
  C133     1.0000 0.19503  0.78527  0.44684  Biso   1.000  C
  C134     1.0000 0.21603  0.79837  0.41627  Biso   1.000  C
  H89      1.0000 0.25643  0.78707  0.40817  Biso   1.000  H
  C135     1.0000 0.32553  0.16117  0.73056  Biso   1.000  C
  H90      1.0000 0.32173  0.15127  0.70977  Biso   1.000  H
  O46      1.0000 0.31710  0.80310  0.97343  Biso   1.000  O
  O47      1.0000 0.14050  0.98640  0.88550  Biso   1.000  O
  O48      1.0000 0.42540  0.79170  0.06670  Biso   1.000  O
  C136     1.0000 0.25220  0.88130  0.93850  Biso   1.000  C
  H91      1.0000 0.30870  0.91300  0.94360  Biso   1.000  H
  C137     1.0000 0.21220  0.91540  0.92160  Biso   1.000  C
  H92      1.0000 0.24250  0.97180  0.91620  Biso   1.000  H
  C138     1.0000 0.44720  0.85880  0.05560  Biso   1.000  C
  C139     1.0000 0.48260  0.93710  0.07553  Biso   1.000  C
  C140     1.0000 0.49560  0.92870  0.10610  Biso   1.000  C
  H93      1.0000 0.48240  0.87650  0.11390  Biso   1.000  H
  C141     1.0000 0.52840  0.99840  0.12509  Biso   1.000  C
  H94      1.0000 0.53710  0.99280  0.14550  Biso   1.000  H
  C142     1.0000 0.25690  0.13830  0.78017  Biso   1.000  C
  C143     1.0000 0.24900  0.11730  0.74960  Biso   1.000  C
  H95      1.0000 0.19730  0.07690  0.74150  Biso   1.000  H
  C144     1.0000 0.50230  0.00780  0.06389  Biso   1.000  C
  H96      1.0000 0.49620  0.01160  0.04310  Biso   1.000  H
  O49      1.0000 0.98377  0.13643  0.30676  Biso   1.000  O
  O50      1.0000 0.80717  0.31973  0.21883  Biso   1.000  O
  O51      1.0000 0.09207  0.12503  0.40003  Biso   1.000  O
  C145     1.0000 0.91887  0.21463  0.27183  Biso   1.000  C
  H97      1.0000 0.97537  0.24633  0.27693  Biso   1.000  H
  C146     1.0000 0.87887  0.24873  0.25493  Biso   1.000  C
  H98      1.0000 0.90917  0.30513  0.24953  Biso   1.000  H
  C147     1.0000 0.11387  0.19213  0.38893  Biso   1.000  C
  C148     1.0000 0.14927  0.27043  0.40886  Biso   1.000  C
  C149     1.0000 0.16227  0.26203  0.43943  Biso   1.000  C
  H99      1.0000 0.14907  0.20983  0.44723  Biso   1.000  H
  C150     1.0000 0.19507  0.33173  0.45842  Biso   1.000  C
  H100     1.0000 0.20377  0.32613  0.47883  Biso   1.000  H
  C151     1.0000 0.92357  0.47163  0.11350  Biso   1.000  C
  C152     1.0000 0.91567  0.45063  0.08293  Biso   1.000  C
  H101     1.0000 0.86397  0.41023  0.07483  Biso   1.000  H
  C153     1.0000 0.16897  0.34113  0.39722  Biso   1.000  C
  H102     1.0000 0.16287  0.34493  0.37643  Biso   1.000  H
  O52      1.0000 0.65043  0.46977  0.64010  Biso   1.000  O
  O53      1.0000 0.47383  0.65307  0.55217  Biso   1.000  O
  O54      1.0000 0.75873  0.45837  0.73337  Biso   1.000  O
  C154     1.0000 0.58553  0.54797  0.60517  Biso   1.000  C
  H103     1.0000 0.64203  0.57967  0.61027  Biso   1.000  H
  C155     1.0000 0.54553  0.58207  0.58827  Biso   1.000  C
  H104     1.0000 0.57583  0.63847  0.58287  Biso   1.000  H
  C156     1.0000 0.78053  0.52547  0.72227  Biso   1.000  C
  C157     1.0000 0.81593  0.60377  0.74220  Biso   1.000  C
  C158     1.0000 0.82893  0.59537  0.77277  Biso   1.000  C
  H105     1.0000 0.81573  0.54317  0.78057  Biso   1.000  H
  C159     1.0000 0.86173  0.66507  0.79176  Biso   1.000  C
  H106     1.0000 0.87043  0.65947  0.81217  Biso   1.000  H
  C160     1.0000 0.59023  0.80497  0.44684  Biso   1.000  C
  C161     1.0000 0.58233  0.78397  0.41627  Biso   1.000  C
  H107     1.0000 0.53063  0.74357  0.40817  Biso   1.000  H
  C162     1.0000 0.83563  0.67447  0.73056  Biso   1.000  C
  H108     1.0000 0.82953  0.67827  0.70977  Biso   1.000  H
  Zn1      1.0000 0.38975  0.61025  0.99952  Biso   1.000  Zn
  O55      1.0000 0.43580  0.56420  0.02825  Biso   1.000  O
  Zn2      1.0000 0.05642  0.94358  0.33285  Biso   1.000  Zn
  O56      1.0000 0.10247  0.89753  0.36158  Biso   1.000  O
  Zn3      1.0000 0.72308  0.27692  0.66619  Biso   1.000  Zn
  O57      1.0000 0.76913  0.23087  0.69492  Biso   1.000  O
  Zn4      1.0000 0.38975  0.77950  0.99952  Biso   1.000  Zn
  O58      1.0000 0.43580  0.87160  0.02825  Biso   1.000  O
  Zn5      1.0000 0.05642  0.11283  0.33285  Biso   1.000  Zn
  O59      1.0000 0.10247  0.20493  0.36158  Biso   1.000  O
  Zn6      1.0000 0.72308  0.44617  0.66619  Biso   1.000  Zn
  O60      1.0000 0.76913  0.53827  0.69492  Biso   1.000  O
  Zn7      1.0000 0.22050  0.61025  0.99952  Biso   1.000  Zn
  O61      1.0000 0.12840  0.56420  0.02825  Biso   1.000  O
  Zn8      1.0000 0.88717  0.94358  0.33285  Biso   1.000  Zn
  O62      1.0000 0.79507  0.89753  0.36158  Biso   1.000  O
  Zn9      1.0000 0.55383  0.27692  0.66619  Biso   1.000  Zn
  O63      1.0000 0.46173  0.23087  0.69492  Biso   1.000  O
  Zn10     1.0000 0.33333  0.66667  0.06086  Biso   1.000  Zn
  O64      1.0000 0.33333  0.66667  0.01490  Biso   1.000  O
  Zn11     1.0000 0.00000  0.00000  0.39419  Biso   1.000  Zn
  O65      1.0000 0.00000  0.00000  0.34823  Biso   1.000  O
  Zn12     1.0000 0.66667  0.33333  0.72753  Biso   1.000  Zn
  O66      1.0000 0.66667  0.33333  0.68157  Biso   1.000  O
  Zn13     1.0000 0.11572  0.05786  0.86264  Biso   1.000  Zn
  O67      1.0000 0.11170  0.05585  0.78663  Biso   1.000  O
  O68      1.0000 0.19230  0.09615  0.82808  Biso   1.000  O
  C163     1.0000 0.17970  0.08985  0.80010  Biso   1.000  C
  Zn14     1.0000 0.78239  0.39119  0.19597  Biso   1.000  Zn
  O69      1.0000 0.77837  0.38918  0.11996  Biso   1.000  O
  O70      1.0000 0.85897  0.42948  0.16141  Biso   1.000  O
  C164     1.0000 0.84637  0.42318  0.13343  Biso   1.000  C
  Zn15     1.0000 0.44905  0.72453  0.52931  Biso   1.000  Zn
  O71      1.0000 0.44503  0.72252  0.45330  Biso   1.000  O
  O72      1.0000 0.52563  0.76282  0.49475  Biso   1.000  O
  C165     1.0000 0.51303  0.75652  0.46677  Biso   1.000  C
  Zn16     1.0000 0.94214  0.05786  0.86264  Biso   1.000  Zn
  O73      1.0000 0.94415  0.05585  0.78663  Biso   1.000  O
  O74      1.0000 0.90385  0.09615  0.82808  Biso   1.000  O
  C166     1.0000 0.91015  0.08985  0.80010  Biso   1.000  C
  Zn17     1.0000 0.60881  0.39119  0.19597  Biso   1.000  Zn
  O75      1.0000 0.61082  0.38918  0.11996  Biso   1.000  O
  O76      1.0000 0.57052  0.42948  0.16141  Biso   1.000  O
  C167     1.0000 0.57682  0.42318  0.13343  Biso   1.000  C
  Zn18     1.0000 0.27547  0.72453  0.52931  Biso   1.000  Zn
  O77      1.0000 0.27748  0.72252  0.45330  Biso   1.000  O
  O78      1.0000 0.23718  0.76282  0.49475  Biso   1.000  O
  C168     1.0000 0.24348  0.75652  0.46677  Biso   1.000  C
  Zn19     1.0000 0.94214  0.88428  0.86264  Biso   1.000  Zn
  O79      1.0000 0.94415  0.88830  0.78663  Biso   1.000  O
  O80      1.0000 0.90385  0.80770  0.82808  Biso   1.000  O
  C169     1.0000 0.91015  0.82030  0.80010  Biso   1.000  C
  Zn20     1.0000 0.60881  0.21761  0.19597  Biso   1.000  Zn
  O81      1.0000 0.61082  0.22163  0.11996  Biso   1.000  O
  O82      1.0000 0.57052  0.14103  0.16141  Biso   1.000  O
  C170     1.0000 0.57682  0.15363  0.13343  Biso   1.000  C
  Zn21     1.0000 0.27547  0.55095  0.52931  Biso   1.000  Zn
  O83      1.0000 0.27748  0.55497  0.45330  Biso   1.000  O
  O84      1.0000 0.23718  0.47437  0.49475  Biso   1.000  O
  C171     1.0000 0.24348  0.48697  0.46677  Biso   1.000  C
  Zn22     1.0000 0.00000  0.00000  0.80456  Biso   1.000  Zn
  O85      1.0000 0.00000  0.00000  0.84800  Biso   1.000  O
  Zn23     1.0000 0.66667  0.33333  0.13789  Biso   1.000  Zn
  O86      1.0000 0.66667  0.33333  0.18133  Biso   1.000  O
  Zn24     1.0000 0.33333  0.66667  0.47123  Biso   1.000  Zn
  O87      1.0000 0.33333  0.66667  0.51467  Biso   1.000  O
  C172     1.0000 0.24145  0.48290  0.96640  Biso   1.000  C
  C173     1.0000 0.20335  0.40670  0.94760  Biso   1.000  C
  C174     1.0000 0.09075  0.18150  0.89380  Biso   1.000  C
  C175     1.0000 0.13065  0.26130  0.91280  Biso   1.000  C
  C176     1.0000 0.90812  0.81623  0.29973  Biso   1.000  C
  C177     1.0000 0.87002  0.74003  0.28093  Biso   1.000  C
  C178     1.0000 0.75742  0.51483  0.22713  Biso   1.000  C
  C179     1.0000 0.79732  0.59463  0.24613  Biso   1.000  C
  C180     1.0000 0.57478  0.14957  0.63307  Biso   1.000  C
  C181     1.0000 0.53668  0.07337  0.61427  Biso   1.000  C
  C182     1.0000 0.42408  0.84817  0.56047  Biso   1.000  C
  C183     1.0000 0.46398  0.92797  0.57947  Biso   1.000  C
  C184     1.0000 0.51710  0.75855  0.96640  Biso   1.000  C
  C185     1.0000 0.59330  0.79665  0.94760  Biso   1.000  C
  C186     1.0000 0.81850  0.90925  0.89380  Biso   1.000  C
  C187     1.0000 0.73870  0.86935  0.91280  Biso   1.000  C
  C188     1.0000 0.18377  0.09188  0.29973  Biso   1.000  C
  C189     1.0000 0.25997  0.12998  0.28093  Biso   1.000  C
  C190     1.0000 0.48517  0.24258  0.22713  Biso   1.000  C
  C191     1.0000 0.40537  0.20268  0.24613  Biso   1.000  C
  C192     1.0000 0.85043  0.42522  0.63307  Biso   1.000  C
  C193     1.0000 0.92663  0.46332  0.61427  Biso   1.000  C
  C194     1.0000 0.15183  0.57592  0.56047  Biso   1.000  C
  C195     1.0000 0.07203  0.53602  0.57947  Biso   1.000  C
  C196     1.0000 0.24145  0.75855  0.96640  Biso   1.000  C
  C197     1.0000 0.20335  0.79665  0.94760  Biso   1.000  C
  C198     1.0000 0.09075  0.90925  0.89380  Biso   1.000  C
  C199     1.0000 0.13065  0.86935  0.91280  Biso   1.000  C
  C200     1.0000 0.90812  0.09188  0.29973  Biso   1.000  C
  C201     1.0000 0.87002  0.12998  0.28093  Biso   1.000  C
  C202     1.0000 0.75742  0.24258  0.22713  Biso   1.000  C
  C203     1.0000 0.79732  0.20268  0.24613  Biso   1.000  C
  C204     1.0000 0.57478  0.42522  0.63307  Biso   1.000  C
  C205     1.0000 0.53668  0.46332  0.61427  Biso   1.000  C
  C206     1.0000 0.42408  0.57592  0.56047  Biso   1.000  C
  C207     1.0000 0.46398  0.53602  0.57947  Biso   1.000  C
  O88      1.0000 0.51400  0.31710  0.02657  Biso   1.000  O
  O89      1.0000 0.15410  0.14050  0.11450  Biso   1.000  O
  O90      1.0000 0.63370  0.42540  0.93330  Biso   1.000  O
  C208     1.0000 0.37090  0.25220  0.06150  Biso   1.000  C
  H109     1.0000 0.39570  0.30870  0.05640  Biso   1.000  H
  C209     1.0000 0.29680  0.21220  0.07840  Biso   1.000  C
  H110     1.0000 0.27070  0.24250  0.08380  Biso   1.000  H
  C210     1.0000 0.58840  0.44720  0.94440  Biso   1.000  C
  C211     1.0000 0.54550  0.48260  0.92447  Biso   1.000  C
  C212     1.0000 0.56690  0.49560  0.89390  Biso   1.000  C
  H111     1.0000 0.60590  0.48240  0.88610  Biso   1.000  H
  C213     1.0000 0.53000  0.52840  0.87491  Biso   1.000  C
  H112     1.0000 0.54430  0.53710  0.85450  Biso   1.000  H
  C214     1.0000 0.11860  0.25690  0.21983  Biso   1.000  C
  C215     1.0000 0.13170  0.24900  0.25040  Biso   1.000  C
  H113     1.0000 0.12040  0.19730  0.25850  Biso   1.000  H
  C216     1.0000 0.49450  0.50230  0.93611  Biso   1.000  C
  H114     1.0000 0.48460  0.49620  0.95690  Biso   1.000  H
  O91      1.0000 0.18067  0.65043  0.35990  Biso   1.000  O
  O92      1.0000 0.82077  0.47383  0.44783  Biso   1.000  O
  O93      1.0000 0.30037  0.75873  0.26663  Biso   1.000  O
  C217     1.0000 0.03757  0.58553  0.39483  Biso   1.000  C
  H115     1.0000 0.06237  0.64203  0.38973  Biso   1.000  H
  C218     1.0000 0.96347  0.54553  0.41173  Biso   1.000  C
  H116     1.0000 0.93737  0.57583  0.41713  Biso   1.000  H
  C219     1.0000 0.25507  0.78053  0.27773  Biso   1.000  C
  C220     1.0000 0.21217  0.81593  0.25780  Biso   1.000  C
  C221     1.0000 0.23357  0.82893  0.22723  Biso   1.000  C
  H117     1.0000 0.27257  0.81573  0.21943  Biso   1.000  H
  C222     1.0000 0.19667  0.86173  0.20824  Biso   1.000  C
  H118     1.0000 0.21097  0.87043  0.18783  Biso   1.000  H
  C223     1.0000 0.78527  0.59023  0.55316  Biso   1.000  C
  C224     1.0000 0.79837  0.58233  0.58373  Biso   1.000  C
  H119     1.0000 0.78707  0.53063  0.59183  Biso   1.000  H
  C225     1.0000 0.16117  0.83563  0.26944  Biso   1.000  C
  H120     1.0000 0.15127  0.82953  0.29023  Biso   1.000  H
  O94      1.0000 0.84733  0.98377  0.69324  Biso   1.000  O
  O95      1.0000 0.48743  0.80717  0.78117  Biso   1.000  O
  O96      1.0000 0.96703  0.09207  0.59997  Biso   1.000  O
  C226     1.0000 0.70423  0.91887  0.72817  Biso   1.000  C
  H121     1.0000 0.72903  0.97537  0.72307  Biso   1.000  H
  C227     1.0000 0.63013  0.87887  0.74507  Biso   1.000  C
  H122     1.0000 0.60403  0.90917  0.75047  Biso   1.000  H
  C228     1.0000 0.92173  0.11387  0.61107  Biso   1.000  C
  C229     1.0000 0.87883  0.14927  0.59114  Biso   1.000  C
  C230     1.0000 0.90023  0.16227  0.56057  Biso   1.000  C
  H123     1.0000 0.93923  0.14907  0.55277  Biso   1.000  H
  C231     1.0000 0.86333  0.19507  0.54158  Biso   1.000  C
  H124     1.0000 0.87763  0.20377  0.52117  Biso   1.000  H
  C232     1.0000 0.45193  0.92357  0.88650  Biso   1.000  C
  C233     1.0000 0.46503  0.91567  0.91707  Biso   1.000  C
  H125     1.0000 0.45373  0.86397  0.92517  Biso   1.000  H
  C234     1.0000 0.82783  0.16897  0.60278  Biso   1.000  C
  H126     1.0000 0.81793  0.16287  0.62357  Biso   1.000  H
  O97      1.0000 0.80310  0.48600  0.02657  Biso   1.000  O
  O98      1.0000 0.98640  0.84590  0.11450  Biso   1.000  O
  O99      1.0000 0.79170  0.36630  0.93330  Biso   1.000  O
  C235     1.0000 0.88130  0.62910  0.06150  Biso   1.000  C
  H127     1.0000 0.91300  0.60430  0.05640  Biso   1.000  H
  C236     1.0000 0.91540  0.70320  0.07840  Biso   1.000  C
  H128     1.0000 0.97180  0.72930  0.08380  Biso   1.000  H
  C237     1.0000 0.85880  0.41160  0.94440  Biso   1.000  C
  C238     1.0000 0.93710  0.45450  0.92447  Biso   1.000  C
  C239     1.0000 0.92870  0.43310  0.89390  Biso   1.000  C
  H129     1.0000 0.87650  0.39410  0.88610  Biso   1.000  H
  C240     1.0000 0.99840  0.47000  0.87491  Biso   1.000  C
  H130     1.0000 0.99280  0.45570  0.85450  Biso   1.000  H
  C241     1.0000 0.13830  0.88140  0.21983  Biso   1.000  C
  C242     1.0000 0.11730  0.86830  0.25040  Biso   1.000  C
  H131     1.0000 0.07690  0.87960  0.25850  Biso   1.000  H
  C243     1.0000 0.00780  0.50550  0.93611  Biso   1.000  C
  H132     1.0000 0.01160  0.51540  0.95690  Biso   1.000  H
  O100     1.0000 0.46977  0.81933  0.35990  Biso   1.000  O
  O101     1.0000 0.65307  0.17923  0.44783  Biso   1.000  O
  O102     1.0000 0.45837  0.69963  0.26663  Biso   1.000  O
  C244     1.0000 0.54797  0.96243  0.39483  Biso   1.000  C
  H133     1.0000 0.57967  0.93763  0.38973  Biso   1.000  H
  C245     1.0000 0.58207  0.03653  0.41173  Biso   1.000  C
  H134     1.0000 0.63847  0.06263  0.41713  Biso   1.000  H
  C246     1.0000 0.52547  0.74493  0.27773  Biso   1.000  C
  C247     1.0000 0.60377  0.78783  0.25780  Biso   1.000  C
  C248     1.0000 0.59537  0.76643  0.22723  Biso   1.000  C
  H135     1.0000 0.54317  0.72743  0.21943  Biso   1.000  H
  C249     1.0000 0.66507  0.80333  0.20824  Biso   1.000  C
  H136     1.0000 0.65947  0.78903  0.18783  Biso   1.000  H
  C250     1.0000 0.80497  0.21473  0.55316  Biso   1.000  C
  C251     1.0000 0.78397  0.20163  0.58373  Biso   1.000  C
  H137     1.0000 0.74357  0.21293  0.59183  Biso   1.000  H
  C252     1.0000 0.67447  0.83883  0.26944  Biso   1.000  C
  H138     1.0000 0.67827  0.84873  0.29023  Biso   1.000  H
  O103     1.0000 0.13643  0.15267  0.69324  Biso   1.000  O
  O104     1.0000 0.31973  0.51257  0.78117  Biso   1.000  O
  O105     1.0000 0.12503  0.03297  0.59997  Biso   1.000  O
  C253     1.0000 0.21463  0.29577  0.72817  Biso   1.000  C
  H139     1.0000 0.24633  0.27097  0.72307  Biso   1.000  H
  C254     1.0000 0.24873  0.36987  0.74507  Biso   1.000  C
  H140     1.0000 0.30513  0.39597  0.75047  Biso   1.000  H
  C255     1.0000 0.19213  0.07827  0.61107  Biso   1.000  C
  C256     1.0000 0.27043  0.12117  0.59114  Biso   1.000  C
  C257     1.0000 0.26203  0.09977  0.56057  Biso   1.000  C
  H141     1.0000 0.20983  0.06077  0.55277  Biso   1.000  H
  C258     1.0000 0.33173  0.13667  0.54158  Biso   1.000  C
  H142     1.0000 0.32613  0.12237  0.52117  Biso   1.000  H
  C259     1.0000 0.47163  0.54807  0.88650  Biso   1.000  C
  C260     1.0000 0.45063  0.53497  0.91707  Biso   1.000  C
  H143     1.0000 0.41023  0.54627  0.92517  Biso   1.000  H
  C261     1.0000 0.34113  0.17217  0.60278  Biso   1.000  C
  H144     1.0000 0.34493  0.18207  0.62357  Biso   1.000  H
  O106     1.0000 0.68290  0.19690  0.02657  Biso   1.000  O
  O107     1.0000 0.85950  0.01360  0.11450  Biso   1.000  O
  O108     1.0000 0.57460  0.20830  0.93330  Biso   1.000  O
  C262     1.0000 0.74780  0.11870  0.06150  Biso   1.000  C
  H145     1.0000 0.69130  0.08700  0.05640  Biso   1.000  H
  C263     1.0000 0.78780  0.08460  0.07840  Biso   1.000  C
  H146     1.0000 0.75750  0.02820  0.08380  Biso   1.000  H
  C264     1.0000 0.55280  0.14120  0.94440  Biso   1.000  C
  C265     1.0000 0.51740  0.06290  0.92447  Biso   1.000  C
  C266     1.0000 0.50440  0.07130  0.89390  Biso   1.000  C
  H147     1.0000 0.51760  0.12350  0.88610  Biso   1.000  H
  C267     1.0000 0.47160  0.00160  0.87491  Biso   1.000  C
  H148     1.0000 0.46290  0.00720  0.85450  Biso   1.000  H
  C268     1.0000 0.74310  0.86170  0.21983  Biso   1.000  C
  C269     1.0000 0.75100  0.88270  0.25040  Biso   1.000  C
  H149     1.0000 0.80270  0.92310  0.25850  Biso   1.000  H
  C270     1.0000 0.49770  0.99220  0.93611  Biso   1.000  C
  H150     1.0000 0.50380  0.98840  0.95690  Biso   1.000  H
  O109     1.0000 0.34957  0.53023  0.35990  Biso   1.000  O
  O110     1.0000 0.52617  0.34693  0.44783  Biso   1.000  O
  O111     1.0000 0.24127  0.54163  0.26663  Biso   1.000  O
  C271     1.0000 0.41447  0.45203  0.39483  Biso   1.000  C
  H151     1.0000 0.35797  0.42033  0.38973  Biso   1.000  H
  C272     1.0000 0.45447  0.41793  0.41173  Biso   1.000  C
  H152     1.0000 0.42417  0.36153  0.41713  Biso   1.000  H
  C273     1.0000 0.21947  0.47453  0.27773  Biso   1.000  C
  C274     1.0000 0.18407  0.39623  0.25780  Biso   1.000  C
  C275     1.0000 0.17107  0.40463  0.22723  Biso   1.000  C
  H153     1.0000 0.18427  0.45683  0.21943  Biso   1.000  H
  C276     1.0000 0.13827  0.33493  0.20824  Biso   1.000  C
  H154     1.0000 0.12957  0.34053  0.18783  Biso   1.000  H
  C277     1.0000 0.40977  0.19503  0.55316  Biso   1.000  C
  C278     1.0000 0.41767  0.21603  0.58373  Biso   1.000  C
  H155     1.0000 0.46937  0.25643  0.59183  Biso   1.000  H
  C279     1.0000 0.16437  0.32553  0.26944  Biso   1.000  C
  H156     1.0000 0.17047  0.32173  0.29023  Biso   1.000  H
  O112     1.0000 0.01623  0.86357  0.69324  Biso   1.000  O
  O113     1.0000 0.19283  0.68027  0.78117  Biso   1.000  O
  O114     1.0000 0.90793  0.87497  0.59997  Biso   1.000  O
  C280     1.0000 0.08113  0.78537  0.72817  Biso   1.000  C
  H157     1.0000 0.02463  0.75367  0.72307  Biso   1.000  H
  C281     1.0000 0.12113  0.75127  0.74507  Biso   1.000  C
  H158     1.0000 0.09083  0.69487  0.75047  Biso   1.000  H
  C282     1.0000 0.88613  0.80787  0.61107  Biso   1.000  C
  C283     1.0000 0.85073  0.72957  0.59114  Biso   1.000  C
  C284     1.0000 0.83773  0.73797  0.56057  Biso   1.000  C
  H159     1.0000 0.85093  0.79017  0.55277  Biso   1.000  H
  C285     1.0000 0.80493  0.66827  0.54158  Biso   1.000  C
  H160     1.0000 0.79623  0.67387  0.52117  Biso   1.000  H
  C286     1.0000 0.07643  0.52837  0.88650  Biso   1.000  C
  C287     1.0000 0.08433  0.54937  0.91707  Biso   1.000  C
  H161     1.0000 0.13603  0.58977  0.92517  Biso   1.000  H
  C288     1.0000 0.83103  0.65887  0.60278  Biso   1.000  C
  H162     1.0000 0.83713  0.65507  0.62357  Biso   1.000  H
  O115     1.0000 0.68290  0.48600  0.02657  Biso   1.000  O
  O116     1.0000 0.85950  0.84590  0.11450  Biso   1.000  O
  O117     1.0000 0.57460  0.36630  0.93330  Biso   1.000  O
  C289     1.0000 0.74780  0.62910  0.06150  Biso   1.000  C
  H163     1.0000 0.69130  0.60430  0.05640  Biso   1.000  H
  C290     1.0000 0.78780  0.70320  0.07840  Biso   1.000  C
  H164     1.0000 0.75750  0.72930  0.08380  Biso   1.000  H
  C291     1.0000 0.55280  0.41160  0.94440  Biso   1.000  C
  C292     1.0000 0.51740  0.45450  0.92447  Biso   1.000  C
  C293     1.0000 0.50440  0.43310  0.89390  Biso   1.000  C
  H165     1.0000 0.51760  0.39410  0.88610  Biso   1.000  H
  C294     1.0000 0.47160  0.47000  0.87491  Biso   1.000  C
  H166     1.0000 0.46290  0.45570  0.85450  Biso   1.000  H
  C295     1.0000 0.74310  0.88140  0.21983  Biso   1.000  C
  C296     1.0000 0.75100  0.86830  0.25040  Biso   1.000  C
  H167     1.0000 0.80270  0.87960  0.25850  Biso   1.000  H
  C297     1.0000 0.49770  0.50550  0.93611  Biso   1.000  C
  H168     1.0000 0.50380  0.51540  0.95690  Biso   1.000  H
  O118     1.0000 0.34957  0.81933  0.35990  Biso   1.000  O
  O119     1.0000 0.52617  0.17923  0.44783  Biso   1.000  O
  O120     1.0000 0.24127  0.69963  0.26663  Biso   1.000  O
  C298     1.0000 0.41447  0.96243  0.39483  Biso   1.000  C
  H169     1.0000 0.35797  0.93763  0.38973  Biso   1.000  H
  C299     1.0000 0.45447  0.03653  0.41173  Biso   1.000  C
  H170     1.0000 0.42417  0.06263  0.41713  Biso   1.000  H
  C300     1.0000 0.21947  0.74493  0.27773  Biso   1.000  C
  C301     1.0000 0.18407  0.78783  0.25780  Biso   1.000  C
  C302     1.0000 0.17107  0.76643  0.22723  Biso   1.000  C
  H171     1.0000 0.18427  0.72743  0.21943  Biso   1.000  H
  C303     1.0000 0.13827  0.80333  0.20824  Biso   1.000  C
  H172     1.0000 0.12957  0.78903  0.18783  Biso   1.000  H
  C304     1.0000 0.40977  0.21473  0.55316  Biso   1.000  C
  C305     1.0000 0.41767  0.20163  0.58373  Biso   1.000  C
  H173     1.0000 0.46937  0.21293  0.59183  Biso   1.000  H
  C306     1.0000 0.16437  0.83883  0.26944  Biso   1.000  C
  H174     1.0000 0.17047  0.84873  0.29023  Biso   1.000  H
  O121     1.0000 0.01623  0.15267  0.69324  Biso   1.000  O
  O122     1.0000 0.19283  0.51257  0.78117  Biso   1.000  O
  O123     1.0000 0.90793  0.03297  0.59997  Biso   1.000  O
  C307     1.0000 0.08113  0.29577  0.72817  Biso   1.000  C
  H175     1.0000 0.02463  0.27097  0.72307  Biso   1.000  H
  C308     1.0000 0.12113  0.36987  0.74507  Biso   1.000  C
  H176     1.0000 0.09083  0.39597  0.75047  Biso   1.000  H
  C309     1.0000 0.88613  0.07827  0.61107  Biso   1.000  C
  C310     1.0000 0.85073  0.12117  0.59114  Biso   1.000  C
  C311     1.0000 0.83773  0.09977  0.56057  Biso   1.000  C
  H177     1.0000 0.85093  0.06077  0.55277  Biso   1.000  H
  C312     1.0000 0.80493  0.13667  0.54158  Biso   1.000  C
  H178     1.0000 0.79623  0.12237  0.52117  Biso   1.000  H
  C313     1.0000 0.07643  0.54807  0.88650  Biso   1.000  C
  C314     1.0000 0.08433  0.53497  0.91707  Biso   1.000  C
  H179     1.0000 0.13603  0.54627  0.92517  Biso   1.000  H
  C315     1.0000 0.83103  0.17217  0.60278  Biso   1.000  C
  H180     1.0000 0.83713  0.18207  0.62357  Biso   1.000  H
  O124     1.0000 0.51400  0.19690  0.02657  Biso   1.000  O
  O125     1.0000 0.15410  0.01360  0.11450  Biso   1.000  O
  O126     1.0000 0.63370  0.20830  0.93330  Biso   1.000  O
  C316     1.0000 0.37090  0.11870  0.06150  Biso   1.000  C
  H181     1.0000 0.39570  0.08700  0.05640  Biso   1.000  H
  C317     1.0000 0.29680  0.08460  0.07840  Biso   1.000  C
  H182     1.0000 0.27070  0.02820  0.08380  Biso   1.000  H
  C318     1.0000 0.58840  0.14120  0.94440  Biso   1.000  C
  C319     1.0000 0.54550  0.06290  0.92447  Biso   1.000  C
  C320     1.0000 0.56690  0.07130  0.89390  Biso   1.000  C
  H183     1.0000 0.60590  0.12350  0.88610  Biso   1.000  H
  C321     1.0000 0.53000  0.00160  0.87491  Biso   1.000  C
  H184     1.0000 0.54430  0.00720  0.85450  Biso   1.000  H
  C322     1.0000 0.11860  0.86170  0.21983  Biso   1.000  C
  C323     1.0000 0.13170  0.88270  0.25040  Biso   1.000  C
  H185     1.0000 0.12040  0.92310  0.25850  Biso   1.000  H
  C324     1.0000 0.49450  0.99220  0.93611  Biso   1.000  C
  H186     1.0000 0.48460  0.98840  0.95690  Biso   1.000  H
  O127     1.0000 0.18067  0.53023  0.35990  Biso   1.000  O
  O128     1.0000 0.82077  0.34693  0.44783  Biso   1.000  O
  O129     1.0000 0.30037  0.54163  0.26663  Biso   1.000  O
  C325     1.0000 0.03757  0.45203  0.39483  Biso   1.000  C
  H187     1.0000 0.06237  0.42033  0.38973  Biso   1.000  H
  C326     1.0000 0.96347  0.41793  0.41173  Biso   1.000  C
  H188     1.0000 0.93737  0.36153  0.41713  Biso   1.000  H
  C327     1.0000 0.25507  0.47453  0.27773  Biso   1.000  C
  C328     1.0000 0.21217  0.39623  0.25780  Biso   1.000  C
  C329     1.0000 0.23357  0.40463  0.22723  Biso   1.000  C
  H189     1.0000 0.27257  0.45683  0.21943  Biso   1.000  H
  C330     1.0000 0.19667  0.33493  0.20824  Biso   1.000  C
  H190     1.0000 0.21097  0.34053  0.18783  Biso   1.000  H
  C331     1.0000 0.78527  0.19503  0.55316  Biso   1.000  C
  C332     1.0000 0.79837  0.21603  0.58373  Biso   1.000  C
  H191     1.0000 0.78707  0.25643  0.59183  Biso   1.000  H
  C333     1.0000 0.16117  0.32553  0.26944  Biso   1.000  C
  H192     1.0000 0.15127  0.32173  0.29023  Biso   1.000  H
  O130     1.0000 0.84733  0.86357  0.69324  Biso   1.000  O
  O131     1.0000 0.48743  0.68027  0.78117  Biso   1.000  O
  O132     1.0000 0.96703  0.87497  0.59997  Biso   1.000  O
  C334     1.0000 0.70423  0.78537  0.72817  Biso   1.000  C
  H193     1.0000 0.72903  0.75367  0.72307  Biso   1.000  H
  C335     1.0000 0.63013  0.75127  0.74507  Biso   1.000  C
  H194     1.0000 0.60403  0.69487  0.75047  Biso   1.000  H
  C336     1.0000 0.92173  0.80787  0.61107  Biso   1.000  C
  C337     1.0000 0.87883  0.72957  0.59114  Biso   1.000  C
  C338     1.0000 0.90023  0.73797  0.56057  Biso   1.000  C
  H195     1.0000 0.93923  0.79017  0.55277  Biso   1.000  H
  C339     1.0000 0.86333  0.66827  0.54158  Biso   1.000  C
  H196     1.0000 0.87763  0.67387  0.52117  Biso   1.000  H
  C340     1.0000 0.45193  0.52837  0.88650  Biso   1.000  C
  C341     1.0000 0.46503  0.54937  0.91707  Biso   1.000  C
  H197     1.0000 0.45373  0.58977  0.92517  Biso   1.000  H
  C342     1.0000 0.82783  0.65887  0.60278  Biso   1.000  C
  H198     1.0000 0.81793  0.65507  0.62357  Biso   1.000  H
  O133     1.0000 0.80310  0.31710  0.02657  Biso   1.000  O
  O134     1.0000 0.98640  0.14050  0.11450  Biso   1.000  O
  O135     1.0000 0.79170  0.42540  0.93330  Biso   1.000  O
  C343     1.0000 0.88130  0.25220  0.06150  Biso   1.000  C
  H199     1.0000 0.91300  0.30870  0.05640  Biso   1.000  H
  C344     1.0000 0.91540  0.21220  0.07840  Biso   1.000  C
  H200     1.0000 0.97180  0.24250  0.08380  Biso   1.000  H
  C345     1.0000 0.85880  0.44720  0.94440  Biso   1.000  C
  C346     1.0000 0.93710  0.48260  0.92447  Biso   1.000  C
  C347     1.0000 0.92870  0.49560  0.89390  Biso   1.000  C
  H201     1.0000 0.87650  0.48240  0.88610  Biso   1.000  H
  C348     1.0000 0.99840  0.52840  0.87491  Biso   1.000  C
  H202     1.0000 0.99280  0.53710  0.85450  Biso   1.000  H
  C349     1.0000 0.13830  0.25690  0.21983  Biso   1.000  C
  C350     1.0000 0.11730  0.24900  0.25040  Biso   1.000  C
  H203     1.0000 0.07690  0.19730  0.25850  Biso   1.000  H
  C351     1.0000 0.00780  0.50230  0.93611  Biso   1.000  C
  H204     1.0000 0.01160  0.49620  0.95690  Biso   1.000  H
  O136     1.0000 0.46977  0.65043  0.35990  Biso   1.000  O
  O137     1.0000 0.65307  0.47383  0.44783  Biso   1.000  O
  O138     1.0000 0.45837  0.75873  0.26663  Biso   1.000  O
  C352     1.0000 0.54797  0.58553  0.39483  Biso   1.000  C
  H205     1.0000 0.57967  0.64203  0.38973  Biso   1.000  H
  C353     1.0000 0.58207  0.54553  0.41173  Biso   1.000  C
  H206     1.0000 0.63847  0.57583  0.41713  Biso   1.000  H
  C354     1.0000 0.52547  0.78053  0.27773  Biso   1.000  C
  C355     1.0000 0.60377  0.81593  0.25780  Biso   1.000  C
  C356     1.0000 0.59537  0.82893  0.22723  Biso   1.000  C
  H207     1.0000 0.54317  0.81573  0.21943  Biso   1.000  H
  C357     1.0000 0.66507  0.86173  0.20824  Biso   1.000  C
  H208     1.0000 0.65947  0.87043  0.18783  Biso   1.000  H
  C358     1.0000 0.80497  0.59023  0.55316  Biso   1.000  C
  C359     1.0000 0.78397  0.58233  0.58373  Biso   1.000  C
  H209     1.0000 0.74357  0.53063  0.59183  Biso   1.000  H
  C360     1.0000 0.67447  0.83563  0.26944  Biso   1.000  C
  H210     1.0000 0.67827  0.82953  0.29023  Biso   1.000  H
  O139     1.0000 0.13643  0.98377  0.69324  Biso   1.000  O
  O140     1.0000 0.31973  0.80717  0.78117  Biso   1.000  O
  O141     1.0000 0.12503  0.09207  0.59997  Biso   1.000  O
  C361     1.0000 0.21463  0.91887  0.72817  Biso   1.000  C
  H211     1.0000 0.24633  0.97537  0.72307  Biso   1.000  H
  C362     1.0000 0.24873  0.87887  0.74507  Biso   1.000  C
  H212     1.0000 0.30513  0.90917  0.75047  Biso   1.000  H
  C363     1.0000 0.19213  0.11387  0.61107  Biso   1.000  C
  C364     1.0000 0.27043  0.14927  0.59114  Biso   1.000  C
  C365     1.0000 0.26203  0.16227  0.56057  Biso   1.000  C
  H213     1.0000 0.20983  0.14907  0.55277  Biso   1.000  H
  C366     1.0000 0.33173  0.19507  0.54158  Biso   1.000  C
  H214     1.0000 0.32613  0.20377  0.52117  Biso   1.000  H
  C367     1.0000 0.47163  0.92357  0.88650  Biso   1.000  C
  C368     1.0000 0.45063  0.91567  0.91707  Biso   1.000  C
  H215     1.0000 0.41023  0.86397  0.92517  Biso   1.000  H
  C369     1.0000 0.34113  0.16897  0.60278  Biso   1.000  C
  H216     1.0000 0.34493  0.16287  0.62357  Biso   1.000  H
  Zn25     1.0000 0.61025  0.38975  0.00048  Biso   1.000  Zn
  O142     1.0000 0.56420  0.43580  0.97175  Biso   1.000  O
  Zn26     1.0000 0.27692  0.72308  0.33381  Biso   1.000  Zn
  O143     1.0000 0.23087  0.76913  0.30508  Biso   1.000  O
  Zn27     1.0000 0.94358  0.05642  0.66715  Biso   1.000  Zn
  O144     1.0000 0.89753  0.10247  0.63842  Biso   1.000  O
  Zn28     1.0000 0.77950  0.38975  0.00048  Biso   1.000  Zn
  O145     1.0000 0.87160  0.43580  0.97175  Biso   1.000  O
  Zn29     1.0000 0.44617  0.72308  0.33381  Biso   1.000  Zn
  O146     1.0000 0.53827  0.76913  0.30508  Biso   1.000  O
  Zn30     1.0000 0.11283  0.05642  0.66715  Biso   1.000  Zn
  O147     1.0000 0.20493  0.10247  0.63842  Biso   1.000  O
  Zn31     1.0000 0.61025  0.22050  0.00048  Biso   1.000  Zn
  O148     1.0000 0.56420  0.12840  0.97175  Biso   1.000  O
  Zn32     1.0000 0.27692  0.55383  0.33381  Biso   1.000  Zn
  O149     1.0000 0.23087  0.46173  0.30508  Biso   1.000  O
  Zn33     1.0000 0.94358  0.88717  0.66715  Biso   1.000  Zn
  O150     1.0000 0.89753  0.79507  0.63842  Biso   1.000  O
  Zn34     1.0000 0.66667  0.33333  0.93914  Biso   1.000  Zn
  O151     1.0000 0.66667  0.33333  0.98510  Biso   1.000  O
  Zn35     1.0000 0.33333  0.66667  0.27247  Biso   1.000  Zn
  O152     1.0000 0.33333  0.66667  0.31843  Biso   1.000  O
  Zn36     1.0000 0.00000  0.00000  0.60581  Biso   1.000  Zn
  O153     1.0000 0.00000  0.00000  0.65177  Biso   1.000  O
  Zn37     1.0000 0.05786  0.11572  0.13736  Biso   1.000  Zn
  O154     1.0000 0.05585  0.11170  0.21337  Biso   1.000  O
  O155     1.0000 0.09615  0.19230  0.17192  Biso   1.000  O
  C370     1.0000 0.08985  0.17970  0.19990  Biso   1.000  C
  Zn38     1.0000 0.72453  0.44905  0.47069  Biso   1.000  Zn
  O156     1.0000 0.72252  0.44503  0.54670  Biso   1.000  O
  O157     1.0000 0.76282  0.52563  0.50525  Biso   1.000  O
  C371     1.0000 0.75652  0.51303  0.53323  Biso   1.000  C
  Zn39     1.0000 0.39119  0.78239  0.80403  Biso   1.000  Zn
  O158     1.0000 0.38918  0.77837  0.88004  Biso   1.000  O
  O159     1.0000 0.42948  0.85897  0.83859  Biso   1.000  O
  C372     1.0000 0.42318  0.84637  0.86657  Biso   1.000  C
  Zn40     1.0000 0.05786  0.94214  0.13736  Biso   1.000  Zn
  O160     1.0000 0.05585  0.94415  0.21337  Biso   1.000  O
  O161     1.0000 0.09615  0.90385  0.17192  Biso   1.000  O
  C373     1.0000 0.08985  0.91015  0.19990  Biso   1.000  C
  Zn41     1.0000 0.72453  0.27547  0.47069  Biso   1.000  Zn
  O162     1.0000 0.72252  0.27748  0.54670  Biso   1.000  O
  O163     1.0000 0.76282  0.23718  0.50525  Biso   1.000  O
  C374     1.0000 0.75652  0.24348  0.53323  Biso   1.000  C
  Zn42     1.0000 0.39119  0.60881  0.80403  Biso   1.000  Zn
  O164     1.0000 0.38918  0.61082  0.88004  Biso   1.000  O
  O165     1.0000 0.42948  0.57052  0.83859  Biso   1.000  O
  C375     1.0000 0.42318  0.57682  0.86657  Biso   1.000  C
  Zn43     1.0000 0.88428  0.94214  0.13736  Biso   1.000  Zn
  O166     1.0000 0.88830  0.94415  0.21337  Biso   1.000  O
  O167     1.0000 0.80770  0.90385  0.17192  Biso   1.000  O
  C376     1.0000 0.82030  0.91015  0.19990  Biso   1.000  C
  Zn44     1.0000 0.55095  0.27547  0.47069  Biso   1.000  Zn
  O168     1.0000 0.55497  0.27748  0.54670  Biso   1.000  O
  O169     1.0000 0.47437  0.23718  0.50525  Biso   1.000  O
  C377     1.0000 0.48697  0.24348  0.53323  Biso   1.000  C
  Zn45     1.0000 0.21761  0.60881  0.80403  Biso   1.000  Zn
  O170     1.0000 0.22163  0.61082  0.88004  Biso   1.000  O
  O171     1.0000 0.14103  0.57052  0.83859  Biso   1.000  O
  C378     1.0000 0.15363  0.57682  0.86657  Biso   1.000  C
  Zn46     1.0000 0.00000  0.00000  0.19544  Biso   1.000  Zn
  O172     1.0000 0.00000  0.00000  0.15200  Biso   1.000  O
  Zn47     1.0000 0.66667  0.33333  0.52877  Biso   1.000  Zn
  O173     1.0000 0.66667  0.33333  0.48533  Biso   1.000  O
  Zn48     1.0000 0.33333  0.66667  0.86211  Biso   1.000  Zn
  O174     1.0000 0.33333  0.66667  0.81867  Biso   1.000  O
  C379     1.0000 0.48290  0.24145  0.03360  Biso   1.000  C
  C380     1.0000 0.40670  0.20335  0.05240  Biso   1.000  C
  C381     1.0000 0.18150  0.09075  0.10620  Biso   1.000  C
  C382     1.0000 0.26130  0.13065  0.08720  Biso   1.000  C
  C383     1.0000 0.14957  0.57478  0.36693  Biso   1.000  C
  C384     1.0000 0.07337  0.53668  0.38573  Biso   1.000  C
  C385     1.0000 0.84817  0.42408  0.43953  Biso   1.000  C
  C386     1.0000 0.92797  0.46398  0.42053  Biso   1.000  C
  C387     1.0000 0.81623  0.90812  0.70027  Biso   1.000  C
  C388     1.0000 0.74003  0.87002  0.71907  Biso   1.000  C
  C389     1.0000 0.51483  0.75742  0.77287  Biso   1.000  C
  C390     1.0000 0.59463  0.79732  0.75387  Biso   1.000  C
  C391     1.0000 0.75855  0.51710  0.03360  Biso   1.000  C
  C392     1.0000 0.79665  0.59330  0.05240  Biso   1.000  C
  C393     1.0000 0.90925  0.81850  0.10620  Biso   1.000  C
  C394     1.0000 0.86935  0.73870  0.08720  Biso   1.000  C
  C395     1.0000 0.42522  0.85043  0.36693  Biso   1.000  C
  C396     1.0000 0.46332  0.92663  0.38573  Biso   1.000  C
  C397     1.0000 0.57592  0.15183  0.43953  Biso   1.000  C
  C398     1.0000 0.53602  0.07203  0.42053  Biso   1.000  C
  C399     1.0000 0.09188  0.18377  0.70027  Biso   1.000  C
  C400     1.0000 0.12998  0.25997  0.71907  Biso   1.000  C
  C401     1.0000 0.24258  0.48517  0.77287  Biso   1.000  C
  C402     1.0000 0.20268  0.40537  0.75387  Biso   1.000  C
  C403     1.0000 0.75855  0.24145  0.03360  Biso   1.000  C
  C404     1.0000 0.79665  0.20335  0.05240  Biso   1.000  C
  C405     1.0000 0.90925  0.09075  0.10620  Biso   1.000  C
  C406     1.0000 0.86935  0.13065  0.08720  Biso   1.000  C
  C407     1.0000 0.42522  0.57478  0.36693  Biso   1.000  C
  C408     1.0000 0.46332  0.53668  0.38573  Biso   1.000  C
  C409     1.0000 0.57592  0.42408  0.43953  Biso   1.000  C
  C410     1.0000 0.53602  0.46398  0.42053  Biso   1.000  C
  C411     1.0000 0.09188  0.90812  0.70027  Biso   1.000  C
  C412     1.0000 0.12998  0.87002  0.71907  Biso   1.000  C
  C413     1.0000 0.24258  0.75742  0.77287  Biso   1.000  C
  C414     1.0000 0.20268  0.79732  0.75387  Biso   1.000  C
