data_image0
_cell_length_a       17.712
_cell_length_b       17.712
_cell_length_c       17.712
_cell_angle_alpha    90
_cell_angle_beta     90
_cell_angle_gamma    90

_symmetry_space_group_name_H-M    "P 1"
_symmetry_int_tables_number       1

loop_
  _symmetry_equiv_pos_as_xyz
  'x, y, z'

loop_
  _atom_site_label
  _atom_site_occupancy
  _atom_site_fract_x
  _atom_site_fract_y
  _atom_site_fract_z
  _atom_site_thermal_displace_type
  _atom_site_B_iso_or_equiv
  _atom_site_type_symbol
  C1       1.0000 0.04100  0.02900  0.10700  Biso   1.000  C
  C2       1.0000 0.03100  0.95000  0.10260  Biso   1.000  C
  C3       1.0000 0.95300  0.93600  0.08800  Biso   1.000  C
  C4       1.0000 0.91590  0.00700  0.08300  Biso   1.000  C
  C5       1.0000 0.97100  0.06400  0.09500  Biso   1.000  C
  C6       1.0000 0.11500  0.06900  0.12200  Biso   1.000  C
  H1       1.0000 0.10730  0.12340  0.12200  Biso   1.000  H
  H2       1.0000 0.15170  0.05550  0.08220  Biso   1.000  H
  H3       1.0000 0.13530  0.05280  0.17100  Biso   1.000  H
  H4       1.0000 0.15560  0.03110  0.12810  Biso   1.000  H
  H5       1.0000 0.11120  0.09890  0.16790  Biso   1.000  H
  H6       1.0000 0.12760  0.10160  0.07910  Biso   1.000  H
  C7       1.0000 0.09100  0.89000  0.11200  Biso   1.000  C
  H7       1.0000 0.13960  0.91470  0.12160  Biso   1.000  H
  H8       1.0000 0.09430  0.86000  0.06570  Biso   1.000  H
  H9       1.0000 0.07800  0.85740  0.15450  Biso   1.000  H
  H10      1.0000 0.06830  0.84000  0.10620  Biso   1.000  H
  H11      1.0000 0.11360  0.89470  0.16220  Biso   1.000  H
  H12      1.0000 0.12990  0.89740  0.07340  Biso   1.000  H
  C8       1.0000 0.91600  0.86000  0.07900  Biso   1.000  C
  H13      1.0000 0.95440  0.82020  0.08460  Biso   1.000  H
  H14      1.0000 0.89340  0.85610  0.02850  Biso   1.000  H
  H15      1.0000 0.87700  0.85340  0.11730  Biso   1.000  H
  H16      1.0000 0.86220  0.86630  0.06900  Biso   1.000  H
  H17      1.0000 0.92320  0.83040  0.12510  Biso   1.000  H
  H18      1.0000 0.93960  0.83300  0.03630  Biso   1.000  H
  C9       1.0000 0.83290  0.01900  0.06800  Biso   1.000  C
  H19      1.0000 0.80780  0.97040  0.06210  Biso   1.000  H
  H20      1.0000 0.82660  0.04910  0.02200  Biso   1.000  H
  H21      1.0000 0.81030  0.04650  0.11080  Biso   1.000  H
  H22      1.0000 0.82200  0.07360  0.06780  Biso   1.000  H
  H23      1.0000 0.80320  0.99490  0.10790  Biso   1.000  H
  H24      1.0000 0.81950  0.99750  0.01910  Biso   1.000  H
  C10      1.0000 0.95600  0.14800  0.09500  Biso   1.000  C
  H25      1.0000 0.00330  0.17540  0.10440  Biso   1.000  H
  H26      1.0000 0.91940  0.16090  0.13440  Biso   1.000  H
  H27      1.0000 0.93570  0.16350  0.04560  Biso   1.000  H
  H28      1.0000 0.90230  0.15780  0.08520  Biso   1.000  H
  H29      1.0000 0.98630  0.17240  0.05520  Biso   1.000  H
  H30      1.0000 0.96990  0.16970  0.14400  Biso   1.000  H
  C11      1.0000 0.95900  0.97100  0.10700  Biso   1.000  C
  C12      1.0000 0.96900  0.05000  0.10260  Biso   1.000  C
  C13      1.0000 0.04700  0.06400  0.08800  Biso   1.000  C
  C14      1.0000 0.08410  0.99300  0.08300  Biso   1.000  C
  C15      1.0000 0.02900  0.93600  0.09500  Biso   1.000  C
  C16      1.0000 0.88500  0.93100  0.12200  Biso   1.000  C
  H31      1.0000 0.89270  0.87660  0.12200  Biso   1.000  H
  H32      1.0000 0.84830  0.94450  0.08220  Biso   1.000  H
  H33      1.0000 0.86470  0.94720  0.17100  Biso   1.000  H
  H34      1.0000 0.84440  0.96890  0.12810  Biso   1.000  H
  H35      1.0000 0.88880  0.90110  0.16790  Biso   1.000  H
  H36      1.0000 0.87240  0.89840  0.07910  Biso   1.000  H
  C17      1.0000 0.90900  0.11000  0.11200  Biso   1.000  C
  H37      1.0000 0.86040  0.08530  0.12160  Biso   1.000  H
  H38      1.0000 0.90570  0.14000  0.06570  Biso   1.000  H
  H39      1.0000 0.92200  0.14260  0.15450  Biso   1.000  H
  H40      1.0000 0.93170  0.16000  0.10620  Biso   1.000  H
  H41      1.0000 0.88640  0.10530  0.16220  Biso   1.000  H
  H42      1.0000 0.87010  0.10260  0.07340  Biso   1.000  H
  C18      1.0000 0.08400  0.14000  0.07900  Biso   1.000  C
  H43      1.0000 0.04560  0.17980  0.08460  Biso   1.000  H
  H44      1.0000 0.10660  0.14390  0.02850  Biso   1.000  H
  H45      1.0000 0.12300  0.14660  0.11730  Biso   1.000  H
  H46      1.0000 0.13780  0.13370  0.06900  Biso   1.000  H
  H47      1.0000 0.07680  0.16960  0.12510  Biso   1.000  H
  H48      1.0000 0.06040  0.16700  0.03630  Biso   1.000  H
  C19      1.0000 0.16710  0.98100  0.06800  Biso   1.000  C
  H49      1.0000 0.19220  0.02960  0.06210  Biso   1.000  H
  H50      1.0000 0.17340  0.95090  0.02200  Biso   1.000  H
  H51      1.0000 0.18970  0.95350  0.11080  Biso   1.000  H
  H52      1.0000 0.17800  0.92640  0.06780  Biso   1.000  H
  H53      1.0000 0.19680  0.00510  0.10790  Biso   1.000  H
  H54      1.0000 0.18050  0.00250  0.01910  Biso   1.000  H
  C20      1.0000 0.04400  0.85200  0.09500  Biso   1.000  C
  H55      1.0000 0.99670  0.82460  0.10440  Biso   1.000  H
  H56      1.0000 0.08060  0.83910  0.13440  Biso   1.000  H
  H57      1.0000 0.06430  0.83650  0.04560  Biso   1.000  H
  H58      1.0000 0.09770  0.84220  0.08520  Biso   1.000  H
  H59      1.0000 0.01370  0.82760  0.05520  Biso   1.000  H
  H60      1.0000 0.03010  0.83030  0.14400  Biso   1.000  H
  C21      1.0000 0.95900  0.02900  0.89300  Biso   1.000  C
  C22      1.0000 0.96900  0.95000  0.89740  Biso   1.000  C
  C23      1.0000 0.04700  0.93600  0.91200  Biso   1.000  C
  C24      1.0000 0.08410  0.00700  0.91700  Biso   1.000  C
  C25      1.0000 0.02900  0.06400  0.90500  Biso   1.000  C
  C26      1.0000 0.88500  0.06900  0.87800  Biso   1.000  C
  H61      1.0000 0.89270  0.12340  0.87800  Biso   1.000  H
  H62      1.0000 0.84830  0.05550  0.91780  Biso   1.000  H
  H63      1.0000 0.86470  0.05280  0.82900  Biso   1.000  H
  H64      1.0000 0.84440  0.03110  0.87190  Biso   1.000  H
  H65      1.0000 0.88880  0.09890  0.83210  Biso   1.000  H
  H66      1.0000 0.87240  0.10160  0.92090  Biso   1.000  H
  C27      1.0000 0.90900  0.89000  0.88800  Biso   1.000  C
  H67      1.0000 0.86040  0.91470  0.87840  Biso   1.000  H
  H68      1.0000 0.90570  0.86000  0.93430  Biso   1.000  H
  H69      1.0000 0.92200  0.85740  0.84550  Biso   1.000  H
  H70      1.0000 0.93170  0.84000  0.89380  Biso   1.000  H
  H71      1.0000 0.88640  0.89470  0.83780  Biso   1.000  H
  H72      1.0000 0.87010  0.89740  0.92660  Biso   1.000  H
  C28      1.0000 0.08400  0.86000  0.92100  Biso   1.000  C
  H73      1.0000 0.04560  0.82020  0.91540  Biso   1.000  H
  H74      1.0000 0.10660  0.85610  0.97150  Biso   1.000  H
  H75      1.0000 0.12300  0.85340  0.88270  Biso   1.000  H
  H76      1.0000 0.13780  0.86630  0.93100  Biso   1.000  H
  H77      1.0000 0.07680  0.83040  0.87490  Biso   1.000  H
  H78      1.0000 0.06040  0.83300  0.96370  Biso   1.000  H
  C29      1.0000 0.16710  0.01900  0.93200  Biso   1.000  C
  H79      1.0000 0.19220  0.97040  0.93790  Biso   1.000  H
  H80      1.0000 0.17340  0.04910  0.97800  Biso   1.000  H
  H81      1.0000 0.18970  0.04650  0.88920  Biso   1.000  H
  H82      1.0000 0.17800  0.07360  0.93220  Biso   1.000  H
  H83      1.0000 0.19680  0.99490  0.89210  Biso   1.000  H
  H84      1.0000 0.18050  0.99750  0.98090  Biso   1.000  H
  C30      1.0000 0.04400  0.14800  0.90500  Biso   1.000  C
  H85      1.0000 0.99670  0.17540  0.89560  Biso   1.000  H
  H86      1.0000 0.08060  0.16090  0.86560  Biso   1.000  H
  H87      1.0000 0.06430  0.16350  0.95440  Biso   1.000  H
  H88      1.0000 0.09770  0.15780  0.91480  Biso   1.000  H
  H89      1.0000 0.01370  0.17240  0.94480  Biso   1.000  H
  H90      1.0000 0.03010  0.16970  0.85600  Biso   1.000  H
  C31      1.0000 0.04100  0.97100  0.89300  Biso   1.000  C
  C32      1.0000 0.03100  0.05000  0.89740  Biso   1.000  C
  C33      1.0000 0.95300  0.06400  0.91200  Biso   1.000  C
  C34      1.0000 0.91590  0.99300  0.91700  Biso   1.000  C
  C35      1.0000 0.97100  0.93600  0.90500  Biso   1.000  C
  C36      1.0000 0.11500  0.93100  0.87800  Biso   1.000  C
  H91      1.0000 0.10730  0.87660  0.87800  Biso   1.000  H
  H92      1.0000 0.15170  0.94450  0.91780  Biso   1.000  H
  H93      1.0000 0.13530  0.94720  0.82900  Biso   1.000  H
  H94      1.0000 0.15560  0.96890  0.87190  Biso   1.000  H
  H95      1.0000 0.11120  0.90110  0.83210  Biso   1.000  H
  H96      1.0000 0.12760  0.89840  0.92090  Biso   1.000  H
  C37      1.0000 0.09100  0.11000  0.88800  Biso   1.000  C
  H97      1.0000 0.13960  0.08530  0.87840  Biso   1.000  H
  H98      1.0000 0.09430  0.14000  0.93430  Biso   1.000  H
  H99      1.0000 0.07800  0.14260  0.84550  Biso   1.000  H
  H100     1.0000 0.06830  0.16000  0.89380  Biso   1.000  H
  H101     1.0000 0.11360  0.10530  0.83780  Biso   1.000  H
  H102     1.0000 0.12990  0.10260  0.92660  Biso   1.000  H
  C38      1.0000 0.91600  0.14000  0.92100  Biso   1.000  C
  H103     1.0000 0.95440  0.17980  0.91540  Biso   1.000  H
  H104     1.0000 0.89340  0.14390  0.97150  Biso   1.000  H
  H105     1.0000 0.87700  0.14660  0.88270  Biso   1.000  H
  H106     1.0000 0.86220  0.13370  0.93100  Biso   1.000  H
  H107     1.0000 0.92320  0.16960  0.87490  Biso   1.000  H
  H108     1.0000 0.93960  0.16700  0.96370  Biso   1.000  H
  C39      1.0000 0.83290  0.98100  0.93200  Biso   1.000  C
  H109     1.0000 0.80780  0.02960  0.93790  Biso   1.000  H
  H110     1.0000 0.82660  0.95090  0.97800  Biso   1.000  H
  H111     1.0000 0.81030  0.95350  0.88920  Biso   1.000  H
  H112     1.0000 0.82200  0.92640  0.93220  Biso   1.000  H
  H113     1.0000 0.80320  0.00510  0.89210  Biso   1.000  H
  H114     1.0000 0.81950  0.00250  0.98090  Biso   1.000  H
  C40      1.0000 0.95600  0.85200  0.90500  Biso   1.000  C
  H115     1.0000 0.00330  0.82460  0.89560  Biso   1.000  H
  H116     1.0000 0.91940  0.83910  0.86560  Biso   1.000  H
  H117     1.0000 0.93570  0.83650  0.95440  Biso   1.000  H
  H118     1.0000 0.90230  0.84220  0.91480  Biso   1.000  H
  H119     1.0000 0.98630  0.82760  0.94480  Biso   1.000  H
  H120     1.0000 0.96990  0.83030  0.85600  Biso   1.000  H
  C41      1.0000 0.10700  0.04100  0.02900  Biso   1.000  C
  C42      1.0000 0.10260  0.03100  0.95000  Biso   1.000  C
  C43      1.0000 0.08800  0.95300  0.93600  Biso   1.000  C
  C44      1.0000 0.08300  0.91590  0.00700  Biso   1.000  C
  C45      1.0000 0.09500  0.97100  0.06400  Biso   1.000  C
  C46      1.0000 0.12200  0.11500  0.06900  Biso   1.000  C
  H121     1.0000 0.12200  0.10730  0.12340  Biso   1.000  H
  H122     1.0000 0.08220  0.15170  0.05550  Biso   1.000  H
  H123     1.0000 0.17100  0.13530  0.05280  Biso   1.000  H
  H124     1.0000 0.12810  0.15560  0.03110  Biso   1.000  H
  H125     1.0000 0.16790  0.11120  0.09890  Biso   1.000  H
  H126     1.0000 0.07910  0.12760  0.10160  Biso   1.000  H
  C47      1.0000 0.11200  0.09100  0.89000  Biso   1.000  C
  H127     1.0000 0.12160  0.13960  0.91470  Biso   1.000  H
  H128     1.0000 0.06570  0.09430  0.86000  Biso   1.000  H
  H129     1.0000 0.15450  0.07800  0.85740  Biso   1.000  H
  H130     1.0000 0.10620  0.06830  0.84000  Biso   1.000  H
  H131     1.0000 0.16220  0.11360  0.89470  Biso   1.000  H
  H132     1.0000 0.07340  0.12990  0.89740  Biso   1.000  H
  C48      1.0000 0.07900  0.91600  0.86000  Biso   1.000  C
  H133     1.0000 0.08460  0.95440  0.82020  Biso   1.000  H
  H134     1.0000 0.02850  0.89340  0.85610  Biso   1.000  H
  H135     1.0000 0.11730  0.87700  0.85340  Biso   1.000  H
  H136     1.0000 0.06900  0.86220  0.86630  Biso   1.000  H
  H137     1.0000 0.12510  0.92320  0.83040  Biso   1.000  H
  H138     1.0000 0.03630  0.93960  0.83300  Biso   1.000  H
  C49      1.0000 0.06800  0.83290  0.01900  Biso   1.000  C
  H139     1.0000 0.06210  0.80780  0.97040  Biso   1.000  H
  H140     1.0000 0.02200  0.82660  0.04910  Biso   1.000  H
  H141     1.0000 0.11080  0.81030  0.04650  Biso   1.000  H
  H142     1.0000 0.06780  0.82200  0.07360  Biso   1.000  H
  H143     1.0000 0.10790  0.80320  0.99490  Biso   1.000  H
  H144     1.0000 0.01910  0.81950  0.99750  Biso   1.000  H
  C50      1.0000 0.09500  0.95600  0.14800  Biso   1.000  C
  H145     1.0000 0.10440  0.00330  0.17540  Biso   1.000  H
  H146     1.0000 0.13440  0.91940  0.16090  Biso   1.000  H
  H147     1.0000 0.04560  0.93570  0.16350  Biso   1.000  H
  H148     1.0000 0.08520  0.90230  0.15780  Biso   1.000  H
  H149     1.0000 0.05520  0.98630  0.17240  Biso   1.000  H
  H150     1.0000 0.14400  0.96990  0.16970  Biso   1.000  H
  C51      1.0000 0.10700  0.95900  0.97100  Biso   1.000  C
  C52      1.0000 0.10260  0.96900  0.05000  Biso   1.000  C
  C53      1.0000 0.08800  0.04700  0.06400  Biso   1.000  C
  C54      1.0000 0.08300  0.08410  0.99300  Biso   1.000  C
  C55      1.0000 0.09500  0.02900  0.93600  Biso   1.000  C
  C56      1.0000 0.12200  0.88500  0.93100  Biso   1.000  C
  H151     1.0000 0.12200  0.89270  0.87660  Biso   1.000  H
  H152     1.0000 0.08220  0.84830  0.94450  Biso   1.000  H
  H153     1.0000 0.17100  0.86470  0.94720  Biso   1.000  H
  H154     1.0000 0.12810  0.84440  0.96890  Biso   1.000  H
  H155     1.0000 0.16790  0.88880  0.90110  Biso   1.000  H
  H156     1.0000 0.07910  0.87240  0.89840  Biso   1.000  H
  C57      1.0000 0.11200  0.90900  0.11000  Biso   1.000  C
  H157     1.0000 0.12160  0.86040  0.08530  Biso   1.000  H
  H158     1.0000 0.06570  0.90570  0.14000  Biso   1.000  H
  H159     1.0000 0.15450  0.92200  0.14260  Biso   1.000  H
  H160     1.0000 0.10620  0.93170  0.16000  Biso   1.000  H
  H161     1.0000 0.16220  0.88640  0.10530  Biso   1.000  H
  H162     1.0000 0.07340  0.87010  0.10260  Biso   1.000  H
  C58      1.0000 0.07900  0.08400  0.14000  Biso   1.000  C
  H163     1.0000 0.08460  0.04560  0.17980  Biso   1.000  H
  H164     1.0000 0.02850  0.10660  0.14390  Biso   1.000  H
  H165     1.0000 0.11730  0.12300  0.14660  Biso   1.000  H
  H166     1.0000 0.06900  0.13780  0.13370  Biso   1.000  H
  H167     1.0000 0.12510  0.07680  0.16960  Biso   1.000  H
  H168     1.0000 0.03630  0.06040  0.16700  Biso   1.000  H
  C59      1.0000 0.06800  0.16710  0.98100  Biso   1.000  C
  H169     1.0000 0.06210  0.19220  0.02960  Biso   1.000  H
  H170     1.0000 0.02200  0.17340  0.95090  Biso   1.000  H
  H171     1.0000 0.11080  0.18970  0.95350  Biso   1.000  H
  H172     1.0000 0.06780  0.17800  0.92640  Biso   1.000  H
  H173     1.0000 0.10790  0.19680  0.00510  Biso   1.000  H
  H174     1.0000 0.01910  0.18050  0.00250  Biso   1.000  H
  C60      1.0000 0.09500  0.04400  0.85200  Biso   1.000  C
  H175     1.0000 0.10440  0.99670  0.82460  Biso   1.000  H
  H176     1.0000 0.13440  0.08060  0.83910  Biso   1.000  H
  H177     1.0000 0.04560  0.06430  0.83650  Biso   1.000  H
  H178     1.0000 0.08520  0.09770  0.84220  Biso   1.000  H
  H179     1.0000 0.05520  0.01370  0.82760  Biso   1.000  H
  H180     1.0000 0.14400  0.03010  0.83030  Biso   1.000  H
  C61      1.0000 0.89300  0.95900  0.02900  Biso   1.000  C
  C62      1.0000 0.89740  0.96900  0.95000  Biso   1.000  C
  C63      1.0000 0.91200  0.04700  0.93600  Biso   1.000  C
  C64      1.0000 0.91700  0.08410  0.00700  Biso   1.000  C
  C65      1.0000 0.90500  0.02900  0.06400  Biso   1.000  C
  C66      1.0000 0.87800  0.88500  0.06900  Biso   1.000  C
  H181     1.0000 0.87800  0.89270  0.12340  Biso   1.000  H
  H182     1.0000 0.91780  0.84830  0.05550  Biso   1.000  H
  H183     1.0000 0.82900  0.86470  0.05280  Biso   1.000  H
  H184     1.0000 0.87190  0.84440  0.03110  Biso   1.000  H
  H185     1.0000 0.83210  0.88880  0.09890  Biso   1.000  H
  H186     1.0000 0.92090  0.87240  0.10160  Biso   1.000  H
  C67      1.0000 0.88800  0.90900  0.89000  Biso   1.000  C
  H187     1.0000 0.87840  0.86040  0.91470  Biso   1.000  H
  H188     1.0000 0.93430  0.90570  0.86000  Biso   1.000  H
  H189     1.0000 0.84550  0.92200  0.85740  Biso   1.000  H
  H190     1.0000 0.89380  0.93170  0.84000  Biso   1.000  H
  H191     1.0000 0.83780  0.88640  0.89470  Biso   1.000  H
  H192     1.0000 0.92660  0.87010  0.89740  Biso   1.000  H
  C68      1.0000 0.92100  0.08400  0.86000  Biso   1.000  C
  H193     1.0000 0.91540  0.04560  0.82020  Biso   1.000  H
  H194     1.0000 0.97150  0.10660  0.85610  Biso   1.000  H
  H195     1.0000 0.88270  0.12300  0.85340  Biso   1.000  H
  H196     1.0000 0.93100  0.13780  0.86630  Biso   1.000  H
  H197     1.0000 0.87490  0.07680  0.83040  Biso   1.000  H
  H198     1.0000 0.96370  0.06040  0.83300  Biso   1.000  H
  C69      1.0000 0.93200  0.16710  0.01900  Biso   1.000  C
  H199     1.0000 0.93790  0.19220  0.97040  Biso   1.000  H
  H200     1.0000 0.97800  0.17340  0.04910  Biso   1.000  H
  H201     1.0000 0.88920  0.18970  0.04650  Biso   1.000  H
  H202     1.0000 0.93220  0.17800  0.07360  Biso   1.000  H
  H203     1.0000 0.89210  0.19680  0.99490  Biso   1.000  H
  H204     1.0000 0.98090  0.18050  0.99750  Biso   1.000  H
  C70      1.0000 0.90500  0.04400  0.14800  Biso   1.000  C
  H205     1.0000 0.89560  0.99670  0.17540  Biso   1.000  H
  H206     1.0000 0.86560  0.08060  0.16090  Biso   1.000  H
  H207     1.0000 0.95440  0.06430  0.16350  Biso   1.000  H
  H208     1.0000 0.91480  0.09770  0.15780  Biso   1.000  H
  H209     1.0000 0.94480  0.01370  0.17240  Biso   1.000  H
  H210     1.0000 0.85600  0.03010  0.16970  Biso   1.000  H
  C71      1.0000 0.89300  0.04100  0.97100  Biso   1.000  C
  C72      1.0000 0.89740  0.03100  0.05000  Biso   1.000  C
  C73      1.0000 0.91200  0.95300  0.06400  Biso   1.000  C
  C74      1.0000 0.91700  0.91590  0.99300  Biso   1.000  C
  C75      1.0000 0.90500  0.97100  0.93600  Biso   1.000  C
  C76      1.0000 0.87800  0.11500  0.93100  Biso   1.000  C
  H211     1.0000 0.87800  0.10730  0.87660  Biso   1.000  H
  H212     1.0000 0.91780  0.15170  0.94450  Biso   1.000  H
  H213     1.0000 0.82900  0.13530  0.94720  Biso   1.000  H
  H214     1.0000 0.87190  0.15560  0.96890  Biso   1.000  H
  H215     1.0000 0.83210  0.11120  0.90110  Biso   1.000  H
  H216     1.0000 0.92090  0.12760  0.89840  Biso   1.000  H
  C77      1.0000 0.88800  0.09100  0.11000  Biso   1.000  C
  H217     1.0000 0.87840  0.13960  0.08530  Biso   1.000  H
  H218     1.0000 0.93430  0.09430  0.14000  Biso   1.000  H
  H219     1.0000 0.84550  0.07800  0.14260  Biso   1.000  H
  H220     1.0000 0.89380  0.06830  0.16000  Biso   1.000  H
  H221     1.0000 0.83780  0.11360  0.10530  Biso   1.000  H
  H222     1.0000 0.92660  0.12990  0.10260  Biso   1.000  H
  C78      1.0000 0.92100  0.91600  0.14000  Biso   1.000  C
  H223     1.0000 0.91540  0.95440  0.17980  Biso   1.000  H
  H224     1.0000 0.97150  0.89340  0.14390  Biso   1.000  H
  H225     1.0000 0.88270  0.87700  0.14660  Biso   1.000  H
  H226     1.0000 0.93100  0.86220  0.13370  Biso   1.000  H
  H227     1.0000 0.87490  0.92320  0.16960  Biso   1.000  H
  H228     1.0000 0.96370  0.93960  0.16700  Biso   1.000  H
  C79      1.0000 0.93200  0.83290  0.98100  Biso   1.000  C
  H229     1.0000 0.93790  0.80780  0.02960  Biso   1.000  H
  H230     1.0000 0.97800  0.82660  0.95090  Biso   1.000  H
  H231     1.0000 0.88920  0.81030  0.95350  Biso   1.000  H
  H232     1.0000 0.93220  0.82200  0.92640  Biso   1.000  H
  H233     1.0000 0.89210  0.80320  0.00510  Biso   1.000  H
  H234     1.0000 0.98090  0.81950  0.00250  Biso   1.000  H
  C80      1.0000 0.90500  0.95600  0.85200  Biso   1.000  C
  H235     1.0000 0.89560  0.00330  0.82460  Biso   1.000  H
  H236     1.0000 0.86560  0.91940  0.83910  Biso   1.000  H
  H237     1.0000 0.95440  0.93570  0.83650  Biso   1.000  H
  H238     1.0000 0.91480  0.90230  0.84220  Biso   1.000  H
  H239     1.0000 0.94480  0.98630  0.82760  Biso   1.000  H
  H240     1.0000 0.85600  0.96990  0.83030  Biso   1.000  H
  C81      1.0000 0.02900  0.10700  0.04100  Biso   1.000  C
  C82      1.0000 0.95000  0.10260  0.03100  Biso   1.000  C
  C83      1.0000 0.93600  0.08800  0.95300  Biso   1.000  C
  C84      1.0000 0.00700  0.08300  0.91590  Biso   1.000  C
  C85      1.0000 0.06400  0.09500  0.97100  Biso   1.000  C
  C86      1.0000 0.06900  0.12200  0.11500  Biso   1.000  C
  H241     1.0000 0.12340  0.12200  0.10730  Biso   1.000  H
  H242     1.0000 0.05550  0.08220  0.15170  Biso   1.000  H
  H243     1.0000 0.05280  0.17100  0.13530  Biso   1.000  H
  H244     1.0000 0.03110  0.12810  0.15560  Biso   1.000  H
  H245     1.0000 0.09890  0.16790  0.11120  Biso   1.000  H
  H246     1.0000 0.10160  0.07910  0.12760  Biso   1.000  H
  C87      1.0000 0.89000  0.11200  0.09100  Biso   1.000  C
  H247     1.0000 0.91470  0.12160  0.13960  Biso   1.000  H
  H248     1.0000 0.86000  0.06570  0.09430  Biso   1.000  H
  H249     1.0000 0.85740  0.15450  0.07800  Biso   1.000  H
  H250     1.0000 0.84000  0.10620  0.06830  Biso   1.000  H
  H251     1.0000 0.89470  0.16220  0.11360  Biso   1.000  H
  H252     1.0000 0.89740  0.07340  0.12990  Biso   1.000  H
  C88      1.0000 0.86000  0.07900  0.91600  Biso   1.000  C
  H253     1.0000 0.82020  0.08460  0.95440  Biso   1.000  H
  H254     1.0000 0.85610  0.02850  0.89340  Biso   1.000  H
  H255     1.0000 0.85340  0.11730  0.87700  Biso   1.000  H
  H256     1.0000 0.86630  0.06900  0.86220  Biso   1.000  H
  H257     1.0000 0.83040  0.12510  0.92320  Biso   1.000  H
  H258     1.0000 0.83300  0.03630  0.93960  Biso   1.000  H
  C89      1.0000 0.01900  0.06800  0.83290  Biso   1.000  C
  H259     1.0000 0.97040  0.06210  0.80780  Biso   1.000  H
  H260     1.0000 0.04910  0.02200  0.82660  Biso   1.000  H
  H261     1.0000 0.04650  0.11080  0.81030  Biso   1.000  H
  H262     1.0000 0.07360  0.06780  0.82200  Biso   1.000  H
  H263     1.0000 0.99490  0.10790  0.80320  Biso   1.000  H
  H264     1.0000 0.99750  0.01910  0.81950  Biso   1.000  H
  C90      1.0000 0.14800  0.09500  0.95600  Biso   1.000  C
  H265     1.0000 0.17540  0.10440  0.00330  Biso   1.000  H
  H266     1.0000 0.16090  0.13440  0.91940  Biso   1.000  H
  H267     1.0000 0.16350  0.04560  0.93570  Biso   1.000  H
  H268     1.0000 0.15780  0.08520  0.90230  Biso   1.000  H
  H269     1.0000 0.17240  0.05520  0.98630  Biso   1.000  H
  H270     1.0000 0.16970  0.14400  0.96990  Biso   1.000  H
  C91      1.0000 0.97100  0.10700  0.95900  Biso   1.000  C
  C92      1.0000 0.05000  0.10260  0.96900  Biso   1.000  C
  C93      1.0000 0.06400  0.08800  0.04700  Biso   1.000  C
  C94      1.0000 0.99300  0.08300  0.08410  Biso   1.000  C
  C95      1.0000 0.93600  0.09500  0.02900  Biso   1.000  C
  C96      1.0000 0.93100  0.12200  0.88500  Biso   1.000  C
  H271     1.0000 0.87660  0.12200  0.89270  Biso   1.000  H
  H272     1.0000 0.94450  0.08220  0.84830  Biso   1.000  H
  H273     1.0000 0.94720  0.17100  0.86470  Biso   1.000  H
  H274     1.0000 0.96890  0.12810  0.84440  Biso   1.000  H
  H275     1.0000 0.90110  0.16790  0.88880  Biso   1.000  H
  H276     1.0000 0.89840  0.07910  0.87240  Biso   1.000  H
  C97      1.0000 0.11000  0.11200  0.90900  Biso   1.000  C
  H277     1.0000 0.08530  0.12160  0.86040  Biso   1.000  H
  H278     1.0000 0.14000  0.06570  0.90570  Biso   1.000  H
  H279     1.0000 0.14260  0.15450  0.92200  Biso   1.000  H
  H280     1.0000 0.16000  0.10620  0.93170  Biso   1.000  H
  H281     1.0000 0.10530  0.16220  0.88640  Biso   1.000  H
  H282     1.0000 0.10260  0.07340  0.87010  Biso   1.000  H
  C98      1.0000 0.14000  0.07900  0.08400  Biso   1.000  C
  H283     1.0000 0.17980  0.08460  0.04560  Biso   1.000  H
  H284     1.0000 0.14390  0.02850  0.10660  Biso   1.000  H
  H285     1.0000 0.14660  0.11730  0.12300  Biso   1.000  H
  H286     1.0000 0.13370  0.06900  0.13780  Biso   1.000  H
  H287     1.0000 0.16960  0.12510  0.07680  Biso   1.000  H
  H288     1.0000 0.16700  0.03630  0.06040  Biso   1.000  H
  C99      1.0000 0.98100  0.06800  0.16710  Biso   1.000  C
  H289     1.0000 0.02960  0.06210  0.19220  Biso   1.000  H
  H290     1.0000 0.95090  0.02200  0.17340  Biso   1.000  H
  H291     1.0000 0.95350  0.11080  0.18970  Biso   1.000  H
  H292     1.0000 0.92640  0.06780  0.17800  Biso   1.000  H
  H293     1.0000 0.00510  0.10790  0.19680  Biso   1.000  H
  H294     1.0000 0.00250  0.01910  0.18050  Biso   1.000  H
  C100     1.0000 0.85200  0.09500  0.04400  Biso   1.000  C
  H295     1.0000 0.82460  0.10440  0.99670  Biso   1.000  H
  H296     1.0000 0.83910  0.13440  0.08060  Biso   1.000  H
  H297     1.0000 0.83650  0.04560  0.06430  Biso   1.000  H
  H298     1.0000 0.84220  0.08520  0.09770  Biso   1.000  H
  H299     1.0000 0.82760  0.05520  0.01370  Biso   1.000  H
  H300     1.0000 0.83030  0.14400  0.03010  Biso   1.000  H
  C101     1.0000 0.02900  0.89300  0.95900  Biso   1.000  C
  C102     1.0000 0.95000  0.89740  0.96900  Biso   1.000  C
  C103     1.0000 0.93600  0.91200  0.04700  Biso   1.000  C
  C104     1.0000 0.00700  0.91700  0.08410  Biso   1.000  C
  C105     1.0000 0.06400  0.90500  0.02900  Biso   1.000  C
  C106     1.0000 0.06900  0.87800  0.88500  Biso   1.000  C
  H301     1.0000 0.12340  0.87800  0.89270  Biso   1.000  H
  H302     1.0000 0.05550  0.91780  0.84830  Biso   1.000  H
  H303     1.0000 0.05280  0.82900  0.86470  Biso   1.000  H
  H304     1.0000 0.03110  0.87190  0.84440  Biso   1.000  H
  H305     1.0000 0.09890  0.83210  0.88880  Biso   1.000  H
  H306     1.0000 0.10160  0.92090  0.87240  Biso   1.000  H
  C107     1.0000 0.89000  0.88800  0.90900  Biso   1.000  C
  H307     1.0000 0.91470  0.87840  0.86040  Biso   1.000  H
  H308     1.0000 0.86000  0.93430  0.90570  Biso   1.000  H
  H309     1.0000 0.85740  0.84550  0.92200  Biso   1.000  H
  H310     1.0000 0.84000  0.89380  0.93170  Biso   1.000  H
  H311     1.0000 0.89470  0.83780  0.88640  Biso   1.000  H
  H312     1.0000 0.89740  0.92660  0.87010  Biso   1.000  H
  C108     1.0000 0.86000  0.92100  0.08400  Biso   1.000  C
  H313     1.0000 0.82020  0.91540  0.04560  Biso   1.000  H
  H314     1.0000 0.85610  0.97150  0.10660  Biso   1.000  H
  H315     1.0000 0.85340  0.88270  0.12300  Biso   1.000  H
  H316     1.0000 0.86630  0.93100  0.13780  Biso   1.000  H
  H317     1.0000 0.83040  0.87490  0.07680  Biso   1.000  H
  H318     1.0000 0.83300  0.96370  0.06040  Biso   1.000  H
  C109     1.0000 0.01900  0.93200  0.16710  Biso   1.000  C
  H319     1.0000 0.97040  0.93790  0.19220  Biso   1.000  H
  H320     1.0000 0.04910  0.97800  0.17340  Biso   1.000  H
  H321     1.0000 0.04650  0.88920  0.18970  Biso   1.000  H
  H322     1.0000 0.07360  0.93220  0.17800  Biso   1.000  H
  H323     1.0000 0.99490  0.89210  0.19680  Biso   1.000  H
  H324     1.0000 0.99750  0.98090  0.18050  Biso   1.000  H
  C110     1.0000 0.14800  0.90500  0.04400  Biso   1.000  C
  H325     1.0000 0.17540  0.89560  0.99670  Biso   1.000  H
  H326     1.0000 0.16090  0.86560  0.08060  Biso   1.000  H
  H327     1.0000 0.16350  0.95440  0.06430  Biso   1.000  H
  H328     1.0000 0.15780  0.91480  0.09770  Biso   1.000  H
  H329     1.0000 0.17240  0.94480  0.01370  Biso   1.000  H
  H330     1.0000 0.16970  0.85600  0.03010  Biso   1.000  H
  C111     1.0000 0.97100  0.89300  0.04100  Biso   1.000  C
  C112     1.0000 0.05000  0.89740  0.03100  Biso   1.000  C
  C113     1.0000 0.06400  0.91200  0.95300  Biso   1.000  C
  C114     1.0000 0.99300  0.91700  0.91590  Biso   1.000  C
  C115     1.0000 0.93600  0.90500  0.97100  Biso   1.000  C
  C116     1.0000 0.93100  0.87800  0.11500  Biso   1.000  C
  H331     1.0000 0.87660  0.87800  0.10730  Biso   1.000  H
  H332     1.0000 0.94450  0.91780  0.15170  Biso   1.000  H
  H333     1.0000 0.94720  0.82900  0.13530  Biso   1.000  H
  H334     1.0000 0.96890  0.87190  0.15560  Biso   1.000  H
  H335     1.0000 0.90110  0.83210  0.11120  Biso   1.000  H
  H336     1.0000 0.89840  0.92090  0.12760  Biso   1.000  H
  C117     1.0000 0.11000  0.88800  0.09100  Biso   1.000  C
  H337     1.0000 0.08530  0.87840  0.13960  Biso   1.000  H
  H338     1.0000 0.14000  0.93430  0.09430  Biso   1.000  H
  H339     1.0000 0.14260  0.84550  0.07800  Biso   1.000  H
  H340     1.0000 0.16000  0.89380  0.06830  Biso   1.000  H
  H341     1.0000 0.10530  0.83780  0.11360  Biso   1.000  H
  H342     1.0000 0.10260  0.92660  0.12990  Biso   1.000  H
  C118     1.0000 0.14000  0.92100  0.91600  Biso   1.000  C
  H343     1.0000 0.17980  0.91540  0.95440  Biso   1.000  H
  H344     1.0000 0.14390  0.97150  0.89340  Biso   1.000  H
  H345     1.0000 0.14660  0.88270  0.87700  Biso   1.000  H
  H346     1.0000 0.13370  0.93100  0.86220  Biso   1.000  H
  H347     1.0000 0.16960  0.87490  0.92320  Biso   1.000  H
  H348     1.0000 0.16700  0.96370  0.93960  Biso   1.000  H
  C119     1.0000 0.98100  0.93200  0.83290  Biso   1.000  C
  H349     1.0000 0.02960  0.93790  0.80780  Biso   1.000  H
  H350     1.0000 0.95090  0.97800  0.82660  Biso   1.000  H
  H351     1.0000 0.95350  0.88920  0.81030  Biso   1.000  H
  H352     1.0000 0.92640  0.93220  0.82200  Biso   1.000  H
  H353     1.0000 0.00510  0.89210  0.80320  Biso   1.000  H
  H354     1.0000 0.00250  0.98090  0.81950  Biso   1.000  H
  C120     1.0000 0.85200  0.90500  0.95600  Biso   1.000  C
  H355     1.0000 0.82460  0.89560  0.00330  Biso   1.000  H
  H356     1.0000 0.83910  0.86560  0.91940  Biso   1.000  H
  H357     1.0000 0.83650  0.95440  0.93570  Biso   1.000  H
  H358     1.0000 0.84220  0.91480  0.90230  Biso   1.000  H
  H359     1.0000 0.82760  0.94480  0.98630  Biso   1.000  H
  H360     1.0000 0.83030  0.85600  0.96990  Biso   1.000  H
  C121     1.0000 0.95900  0.97100  0.89300  Biso   1.000  C
  C122     1.0000 0.96900  0.05000  0.89740  Biso   1.000  C
  C123     1.0000 0.04700  0.06400  0.91200  Biso   1.000  C
  C124     1.0000 0.08410  0.99300  0.91700  Biso   1.000  C
  C125     1.0000 0.02900  0.93600  0.90500  Biso   1.000  C
  C126     1.0000 0.88500  0.93100  0.87800  Biso   1.000  C
  H361     1.0000 0.89270  0.87660  0.87800  Biso   1.000  H
  H362     1.0000 0.84830  0.94450  0.91780  Biso   1.000  H
  H363     1.0000 0.86470  0.94720  0.82900  Biso   1.000  H
  H364     1.0000 0.84440  0.96890  0.87190  Biso   1.000  H
  H365     1.0000 0.88880  0.90110  0.83210  Biso   1.000  H
  H366     1.0000 0.87240  0.89840  0.92090  Biso   1.000  H
  C127     1.0000 0.90900  0.11000  0.88800  Biso   1.000  C
  H367     1.0000 0.86040  0.08530  0.87840  Biso   1.000  H
  H368     1.0000 0.90570  0.14000  0.93430  Biso   1.000  H
  H369     1.0000 0.92200  0.14260  0.84550  Biso   1.000  H
  H370     1.0000 0.93170  0.16000  0.89380  Biso   1.000  H
  H371     1.0000 0.88640  0.10530  0.83780  Biso   1.000  H
  H372     1.0000 0.87010  0.10260  0.92660  Biso   1.000  H
  C128     1.0000 0.08400  0.14000  0.92100  Biso   1.000  C
  H373     1.0000 0.04560  0.17980  0.91540  Biso   1.000  H
  H374     1.0000 0.10660  0.14390  0.97150  Biso   1.000  H
  H375     1.0000 0.12300  0.14660  0.88270  Biso   1.000  H
  H376     1.0000 0.13780  0.13370  0.93100  Biso   1.000  H
  H377     1.0000 0.07680  0.16960  0.87490  Biso   1.000  H
  H378     1.0000 0.06040  0.16700  0.96370  Biso   1.000  H
  C129     1.0000 0.16710  0.98100  0.93200  Biso   1.000  C
  H379     1.0000 0.19220  0.02960  0.93790  Biso   1.000  H
  H380     1.0000 0.17340  0.95090  0.97800  Biso   1.000  H
  H381     1.0000 0.18970  0.95350  0.88920  Biso   1.000  H
  H382     1.0000 0.17800  0.92640  0.93220  Biso   1.000  H
  H383     1.0000 0.19680  0.00510  0.89210  Biso   1.000  H
  H384     1.0000 0.18050  0.00250  0.98090  Biso   1.000  H
  C130     1.0000 0.04400  0.85200  0.90500  Biso   1.000  C
  H385     1.0000 0.99670  0.82460  0.89560  Biso   1.000  H
  H386     1.0000 0.08060  0.83910  0.86560  Biso   1.000  H
  H387     1.0000 0.06430  0.83650  0.95440  Biso   1.000  H
  H388     1.0000 0.09770  0.84220  0.91480  Biso   1.000  H
  H389     1.0000 0.01370  0.82760  0.94480  Biso   1.000  H
  H390     1.0000 0.03010  0.83030  0.85600  Biso   1.000  H
  C131     1.0000 0.04100  0.02900  0.89300  Biso   1.000  C
  C132     1.0000 0.03100  0.95000  0.89740  Biso   1.000  C
  C133     1.0000 0.95300  0.93600  0.91200  Biso   1.000  C
  C134     1.0000 0.91590  0.00700  0.91700  Biso   1.000  C
  C135     1.0000 0.97100  0.06400  0.90500  Biso   1.000  C
  C136     1.0000 0.11500  0.06900  0.87800  Biso   1.000  C
  H391     1.0000 0.10730  0.12340  0.87800  Biso   1.000  H
  H392     1.0000 0.15170  0.05550  0.91780  Biso   1.000  H
  H393     1.0000 0.13530  0.05280  0.82900  Biso   1.000  H
  H394     1.0000 0.15560  0.03110  0.87190  Biso   1.000  H
  H395     1.0000 0.11120  0.09890  0.83210  Biso   1.000  H
  H396     1.0000 0.12760  0.10160  0.92090  Biso   1.000  H
  C137     1.0000 0.09100  0.89000  0.88800  Biso   1.000  C
  H397     1.0000 0.13960  0.91470  0.87840  Biso   1.000  H
  H398     1.0000 0.09430  0.86000  0.93430  Biso   1.000  H
  H399     1.0000 0.07800  0.85740  0.84550  Biso   1.000  H
  H400     1.0000 0.06830  0.84000  0.89380  Biso   1.000  H
  H401     1.0000 0.11360  0.89470  0.83780  Biso   1.000  H
  H402     1.0000 0.12990  0.89740  0.92660  Biso   1.000  H
  C138     1.0000 0.91600  0.86000  0.92100  Biso   1.000  C
  H403     1.0000 0.95440  0.82020  0.91540  Biso   1.000  H
  H404     1.0000 0.89340  0.85610  0.97150  Biso   1.000  H
  H405     1.0000 0.87700  0.85340  0.88270  Biso   1.000  H
  H406     1.0000 0.86220  0.86630  0.93100  Biso   1.000  H
  H407     1.0000 0.92320  0.83040  0.87490  Biso   1.000  H
  H408     1.0000 0.93960  0.83300  0.96370  Biso   1.000  H
  C139     1.0000 0.83290  0.01900  0.93200  Biso   1.000  C
  H409     1.0000 0.80780  0.97040  0.93790  Biso   1.000  H
  H410     1.0000 0.82660  0.04910  0.97800  Biso   1.000  H
  H411     1.0000 0.81030  0.04650  0.88920  Biso   1.000  H
  H412     1.0000 0.82200  0.07360  0.93220  Biso   1.000  H
  H413     1.0000 0.80320  0.99490  0.89210  Biso   1.000  H
  H414     1.0000 0.81950  0.99750  0.98090  Biso   1.000  H
  C140     1.0000 0.95600  0.14800  0.90500  Biso   1.000  C
  H415     1.0000 0.00330  0.17540  0.89560  Biso   1.000  H
  H416     1.0000 0.91940  0.16090  0.86560  Biso   1.000  H
  H417     1.0000 0.93570  0.16350  0.95440  Biso   1.000  H
  H418     1.0000 0.90230  0.15780  0.91480  Biso   1.000  H
  H419     1.0000 0.98630  0.17240  0.94480  Biso   1.000  H
  H420     1.0000 0.96990  0.16970  0.85600  Biso   1.000  H
  C141     1.0000 0.04100  0.97100  0.10700  Biso   1.000  C
  C142     1.0000 0.03100  0.05000  0.10260  Biso   1.000  C
  C143     1.0000 0.95300  0.06400  0.08800  Biso   1.000  C
  C144     1.0000 0.91590  0.99300  0.08300  Biso   1.000  C
  C145     1.0000 0.97100  0.93600  0.09500  Biso   1.000  C
  C146     1.0000 0.11500  0.93100  0.12200  Biso   1.000  C
  H421     1.0000 0.10730  0.87660  0.12200  Biso   1.000  H
  H422     1.0000 0.15170  0.94450  0.08220  Biso   1.000  H
  H423     1.0000 0.13530  0.94720  0.17100  Biso   1.000  H
  H424     1.0000 0.15560  0.96890  0.12810  Biso   1.000  H
  H425     1.0000 0.11120  0.90110  0.16790  Biso   1.000  H
  H426     1.0000 0.12760  0.89840  0.07910  Biso   1.000  H
  C147     1.0000 0.09100  0.11000  0.11200  Biso   1.000  C
  H427     1.0000 0.13960  0.08530  0.12160  Biso   1.000  H
  H428     1.0000 0.09430  0.14000  0.06570  Biso   1.000  H
  H429     1.0000 0.07800  0.14260  0.15450  Biso   1.000  H
  H430     1.0000 0.06830  0.16000  0.10620  Biso   1.000  H
  H431     1.0000 0.11360  0.10530  0.16220  Biso   1.000  H
  H432     1.0000 0.12990  0.10260  0.07340  Biso   1.000  H
  C148     1.0000 0.91600  0.14000  0.07900  Biso   1.000  C
  H433     1.0000 0.95440  0.17980  0.08460  Biso   1.000  H
  H434     1.0000 0.89340  0.14390  0.02850  Biso   1.000  H
  H435     1.0000 0.87700  0.14660  0.11730  Biso   1.000  H
  H436     1.0000 0.86220  0.13370  0.06900  Biso   1.000  H
  H437     1.0000 0.92320  0.16960  0.12510  Biso   1.000  H
  H438     1.0000 0.93960  0.16700  0.03630  Biso   1.000  H
  C149     1.0000 0.83290  0.98100  0.06800  Biso   1.000  C
  H439     1.0000 0.80780  0.02960  0.06210  Biso   1.000  H
  H440     1.0000 0.82660  0.95090  0.02200  Biso   1.000  H
  H441     1.0000 0.81030  0.95350  0.11080  Biso   1.000  H
  H442     1.0000 0.82200  0.92640  0.06780  Biso   1.000  H
  H443     1.0000 0.80320  0.00510  0.10790  Biso   1.000  H
  H444     1.0000 0.81950  0.00250  0.01910  Biso   1.000  H
  C150     1.0000 0.95600  0.85200  0.09500  Biso   1.000  C
  H445     1.0000 0.00330  0.82460  0.10440  Biso   1.000  H
  H446     1.0000 0.91940  0.83910  0.13440  Biso   1.000  H
  H447     1.0000 0.93570  0.83650  0.04560  Biso   1.000  H
  H448     1.0000 0.90230  0.84220  0.08520  Biso   1.000  H
  H449     1.0000 0.98630  0.82760  0.05520  Biso   1.000  H
  H450     1.0000 0.96990  0.83030  0.14400  Biso   1.000  H
  C151     1.0000 0.95900  0.02900  0.10700  Biso   1.000  C
  C152     1.0000 0.96900  0.95000  0.10260  Biso   1.000  C
  C153     1.0000 0.04700  0.93600  0.08800  Biso   1.000  C
  C154     1.0000 0.08410  0.00700  0.08300  Biso   1.000  C
  C155     1.0000 0.02900  0.06400  0.09500  Biso   1.000  C
  C156     1.0000 0.88500  0.06900  0.12200  Biso   1.000  C
  H451     1.0000 0.89270  0.12340  0.12200  Biso   1.000  H
  H452     1.0000 0.84830  0.05550  0.08220  Biso   1.000  H
  H453     1.0000 0.86470  0.05280  0.17100  Biso   1.000  H
  H454     1.0000 0.84440  0.03110  0.12810  Biso   1.000  H
  H455     1.0000 0.88880  0.09890  0.16790  Biso   1.000  H
  H456     1.0000 0.87240  0.10160  0.07910  Biso   1.000  H
  C157     1.0000 0.90900  0.89000  0.11200  Biso   1.000  C
  H457     1.0000 0.86040  0.91470  0.12160  Biso   1.000  H
  H458     1.0000 0.90570  0.86000  0.06570  Biso   1.000  H
  H459     1.0000 0.92200  0.85740  0.15450  Biso   1.000  H
  H460     1.0000 0.93170  0.84000  0.10620  Biso   1.000  H
  H461     1.0000 0.88640  0.89470  0.16220  Biso   1.000  H
  H462     1.0000 0.87010  0.89740  0.07340  Biso   1.000  H
  C158     1.0000 0.08400  0.86000  0.07900  Biso   1.000  C
  H463     1.0000 0.04560  0.82020  0.08460  Biso   1.000  H
  H464     1.0000 0.10660  0.85610  0.02850  Biso   1.000  H
  H465     1.0000 0.12300  0.85340  0.11730  Biso   1.000  H
  H466     1.0000 0.13780  0.86630  0.06900  Biso   1.000  H
  H467     1.0000 0.07680  0.83040  0.12510  Biso   1.000  H
  H468     1.0000 0.06040  0.83300  0.03630  Biso   1.000  H
  C159     1.0000 0.16710  0.01900  0.06800  Biso   1.000  C
  H469     1.0000 0.19220  0.97040  0.06210  Biso   1.000  H
  H470     1.0000 0.17340  0.04910  0.02200  Biso   1.000  H
  H471     1.0000 0.18970  0.04650  0.11080  Biso   1.000  H
  H472     1.0000 0.17800  0.07360  0.06780  Biso   1.000  H
  H473     1.0000 0.19680  0.99490  0.10790  Biso   1.000  H
  H474     1.0000 0.18050  0.99750  0.01910  Biso   1.000  H
  C160     1.0000 0.04400  0.14800  0.09500  Biso   1.000  C
  H475     1.0000 0.99670  0.17540  0.10440  Biso   1.000  H
  H476     1.0000 0.08060  0.16090  0.13440  Biso   1.000  H
  H477     1.0000 0.06430  0.16350  0.04560  Biso   1.000  H
  H478     1.0000 0.09770  0.15780  0.08520  Biso   1.000  H
  H479     1.0000 0.01370  0.17240  0.05520  Biso   1.000  H
  H480     1.0000 0.03010  0.16970  0.14400  Biso   1.000  H
  C161     1.0000 0.89300  0.95900  0.97100  Biso   1.000  C
  C162     1.0000 0.89740  0.96900  0.05000  Biso   1.000  C
  C163     1.0000 0.91200  0.04700  0.06400  Biso   1.000  C
  C164     1.0000 0.91700  0.08410  0.99300  Biso   1.000  C
  C165     1.0000 0.90500  0.02900  0.93600  Biso   1.000  C
  C166     1.0000 0.87800  0.88500  0.93100  Biso   1.000  C
  H481     1.0000 0.87800  0.89270  0.87660  Biso   1.000  H
  H482     1.0000 0.91780  0.84830  0.94450  Biso   1.000  H
  H483     1.0000 0.82900  0.86470  0.94720  Biso   1.000  H
  H484     1.0000 0.87190  0.84440  0.96890  Biso   1.000  H
  H485     1.0000 0.83210  0.88880  0.90110  Biso   1.000  H
  H486     1.0000 0.92090  0.87240  0.89840  Biso   1.000  H
  C167     1.0000 0.88800  0.90900  0.11000  Biso   1.000  C
  H487     1.0000 0.87840  0.86040  0.08530  Biso   1.000  H
  H488     1.0000 0.93430  0.90570  0.14000  Biso   1.000  H
  H489     1.0000 0.84550  0.92200  0.14260  Biso   1.000  H
  H490     1.0000 0.89380  0.93170  0.16000  Biso   1.000  H
  H491     1.0000 0.83780  0.88640  0.10530  Biso   1.000  H
  H492     1.0000 0.92660  0.87010  0.10260  Biso   1.000  H
  C168     1.0000 0.92100  0.08400  0.14000  Biso   1.000  C
  H493     1.0000 0.91540  0.04560  0.17980  Biso   1.000  H
  H494     1.0000 0.97150  0.10660  0.14390  Biso   1.000  H
  H495     1.0000 0.88270  0.12300  0.14660  Biso   1.000  H
  H496     1.0000 0.93100  0.13780  0.13370  Biso   1.000  H
  H497     1.0000 0.87490  0.07680  0.16960  Biso   1.000  H
  H498     1.0000 0.96370  0.06040  0.16700  Biso   1.000  H
  C169     1.0000 0.93200  0.16710  0.98100  Biso   1.000  C
  H499     1.0000 0.93790  0.19220  0.02960  Biso   1.000  H
  H500     1.0000 0.97800  0.17340  0.95090  Biso   1.000  H
  H501     1.0000 0.88920  0.18970  0.95350  Biso   1.000  H
  H502     1.0000 0.93220  0.17800  0.92640  Biso   1.000  H
  H503     1.0000 0.89210  0.19680  0.00510  Biso   1.000  H
  H504     1.0000 0.98090  0.18050  0.00250  Biso   1.000  H
  C170     1.0000 0.90500  0.04400  0.85200  Biso   1.000  C
  H505     1.0000 0.89560  0.99670  0.82460  Biso   1.000  H
  H506     1.0000 0.86560  0.08060  0.83910  Biso   1.000  H
  H507     1.0000 0.95440  0.06430  0.83650  Biso   1.000  H
  H508     1.0000 0.91480  0.09770  0.84220  Biso   1.000  H
  H509     1.0000 0.94480  0.01370  0.82760  Biso   1.000  H
  H510     1.0000 0.85600  0.03010  0.83030  Biso   1.000  H
  C171     1.0000 0.89300  0.04100  0.02900  Biso   1.000  C
  C172     1.0000 0.89740  0.03100  0.95000  Biso   1.000  C
  C173     1.0000 0.91200  0.95300  0.93600  Biso   1.000  C
  C174     1.0000 0.91700  0.91590  0.00700  Biso   1.000  C
  C175     1.0000 0.90500  0.97100  0.06400  Biso   1.000  C
  C176     1.0000 0.87800  0.11500  0.06900  Biso   1.000  C
  H511     1.0000 0.87800  0.10730  0.12340  Biso   1.000  H
  H512     1.0000 0.91780  0.15170  0.05550  Biso   1.000  H
  H513     1.0000 0.82900  0.13530  0.05280  Biso   1.000  H
  H514     1.0000 0.87190  0.15560  0.03110  Biso   1.000  H
  H515     1.0000 0.83210  0.11120  0.09890  Biso   1.000  H
  H516     1.0000 0.92090  0.12760  0.10160  Biso   1.000  H
  C177     1.0000 0.88800  0.09100  0.89000  Biso   1.000  C
  H517     1.0000 0.87840  0.13960  0.91470  Biso   1.000  H
  H518     1.0000 0.93430  0.09430  0.86000  Biso   1.000  H
  H519     1.0000 0.84550  0.07800  0.85740  Biso   1.000  H
  H520     1.0000 0.89380  0.06830  0.84000  Biso   1.000  H
  H521     1.0000 0.83780  0.11360  0.89470  Biso   1.000  H
  H522     1.0000 0.92660  0.12990  0.89740  Biso   1.000  H
  C178     1.0000 0.92100  0.91600  0.86000  Biso   1.000  C
  H523     1.0000 0.91540  0.95440  0.82020  Biso   1.000  H
  H524     1.0000 0.97150  0.89340  0.85610  Biso   1.000  H
  H525     1.0000 0.88270  0.87700  0.85340  Biso   1.000  H
  H526     1.0000 0.93100  0.86220  0.86630  Biso   1.000  H
  H527     1.0000 0.87490  0.92320  0.83040  Biso   1.000  H
  H528     1.0000 0.96370  0.93960  0.83300  Biso   1.000  H
  C179     1.0000 0.93200  0.83290  0.01900  Biso   1.000  C
  H529     1.0000 0.93790  0.80780  0.97040  Biso   1.000  H
  H530     1.0000 0.97800  0.82660  0.04910  Biso   1.000  H
  H531     1.0000 0.88920  0.81030  0.04650  Biso   1.000  H
  H532     1.0000 0.93220  0.82200  0.07360  Biso   1.000  H
  H533     1.0000 0.89210  0.80320  0.99490  Biso   1.000  H
  H534     1.0000 0.98090  0.81950  0.99750  Biso   1.000  H
  C180     1.0000 0.90500  0.95600  0.14800  Biso   1.000  C
  H535     1.0000 0.89560  0.00330  0.17540  Biso   1.000  H
  H536     1.0000 0.86560  0.91940  0.16090  Biso   1.000  H
  H537     1.0000 0.95440  0.93570  0.16350  Biso   1.000  H
  H538     1.0000 0.91480  0.90230  0.15780  Biso   1.000  H
  H539     1.0000 0.94480  0.98630  0.17240  Biso   1.000  H
  H540     1.0000 0.85600  0.96990  0.16970  Biso   1.000  H
  C181     1.0000 0.10700  0.04100  0.97100  Biso   1.000  C
  C182     1.0000 0.10260  0.03100  0.05000  Biso   1.000  C
  C183     1.0000 0.08800  0.95300  0.06400  Biso   1.000  C
  C184     1.0000 0.08300  0.91590  0.99300  Biso   1.000  C
  C185     1.0000 0.09500  0.97100  0.93600  Biso   1.000  C
  C186     1.0000 0.12200  0.11500  0.93100  Biso   1.000  C
  H541     1.0000 0.12200  0.10730  0.87660  Biso   1.000  H
  H542     1.0000 0.08220  0.15170  0.94450  Biso   1.000  H
  H543     1.0000 0.17100  0.13530  0.94720  Biso   1.000  H
  H544     1.0000 0.12810  0.15560  0.96890  Biso   1.000  H
  H545     1.0000 0.16790  0.11120  0.90110  Biso   1.000  H
  H546     1.0000 0.07910  0.12760  0.89840  Biso   1.000  H
  C187     1.0000 0.11200  0.09100  0.11000  Biso   1.000  C
  H547     1.0000 0.12160  0.13960  0.08530  Biso   1.000  H
  H548     1.0000 0.06570  0.09430  0.14000  Biso   1.000  H
  H549     1.0000 0.15450  0.07800  0.14260  Biso   1.000  H
  H550     1.0000 0.10620  0.06830  0.16000  Biso   1.000  H
  H551     1.0000 0.16220  0.11360  0.10530  Biso   1.000  H
  H552     1.0000 0.07340  0.12990  0.10260  Biso   1.000  H
  C188     1.0000 0.07900  0.91600  0.14000  Biso   1.000  C
  H553     1.0000 0.08460  0.95440  0.17980  Biso   1.000  H
  H554     1.0000 0.02850  0.89340  0.14390  Biso   1.000  H
  H555     1.0000 0.11730  0.87700  0.14660  Biso   1.000  H
  H556     1.0000 0.06900  0.86220  0.13370  Biso   1.000  H
  H557     1.0000 0.12510  0.92320  0.16960  Biso   1.000  H
  H558     1.0000 0.03630  0.93960  0.16700  Biso   1.000  H
  C189     1.0000 0.06800  0.83290  0.98100  Biso   1.000  C
  H559     1.0000 0.06210  0.80780  0.02960  Biso   1.000  H
  H560     1.0000 0.02200  0.82660  0.95090  Biso   1.000  H
  H561     1.0000 0.11080  0.81030  0.95350  Biso   1.000  H
  H562     1.0000 0.06780  0.82200  0.92640  Biso   1.000  H
  H563     1.0000 0.10790  0.80320  0.00510  Biso   1.000  H
  H564     1.0000 0.01910  0.81950  0.00250  Biso   1.000  H
  C190     1.0000 0.09500  0.95600  0.85200  Biso   1.000  C
  H565     1.0000 0.10440  0.00330  0.82460  Biso   1.000  H
  H566     1.0000 0.13440  0.91940  0.83910  Biso   1.000  H
  H567     1.0000 0.04560  0.93570  0.83650  Biso   1.000  H
  H568     1.0000 0.08520  0.90230  0.84220  Biso   1.000  H
  H569     1.0000 0.05520  0.98630  0.82760  Biso   1.000  H
  H570     1.0000 0.14400  0.96990  0.83030  Biso   1.000  H
  C191     1.0000 0.10700  0.95900  0.02900  Biso   1.000  C
  C192     1.0000 0.10260  0.96900  0.95000  Biso   1.000  C
  C193     1.0000 0.08800  0.04700  0.93600  Biso   1.000  C
  C194     1.0000 0.08300  0.08410  0.00700  Biso   1.000  C
  C195     1.0000 0.09500  0.02900  0.06400  Biso   1.000  C
  C196     1.0000 0.12200  0.88500  0.06900  Biso   1.000  C
  H571     1.0000 0.12200  0.89270  0.12340  Biso   1.000  H
  H572     1.0000 0.08220  0.84830  0.05550  Biso   1.000  H
  H573     1.0000 0.17100  0.86470  0.05280  Biso   1.000  H
  H574     1.0000 0.12810  0.84440  0.03110  Biso   1.000  H
  H575     1.0000 0.16790  0.88880  0.09890  Biso   1.000  H
  H576     1.0000 0.07910  0.87240  0.10160  Biso   1.000  H
  C197     1.0000 0.11200  0.90900  0.89000  Biso   1.000  C
  H577     1.0000 0.12160  0.86040  0.91470  Biso   1.000  H
  H578     1.0000 0.06570  0.90570  0.86000  Biso   1.000  H
  H579     1.0000 0.15450  0.92200  0.85740  Biso   1.000  H
  H580     1.0000 0.10620  0.93170  0.84000  Biso   1.000  H
  H581     1.0000 0.16220  0.88640  0.89470  Biso   1.000  H
  H582     1.0000 0.07340  0.87010  0.89740  Biso   1.000  H
  C198     1.0000 0.07900  0.08400  0.86000  Biso   1.000  C
  H583     1.0000 0.08460  0.04560  0.82020  Biso   1.000  H
  H584     1.0000 0.02850  0.10660  0.85610  Biso   1.000  H
  H585     1.0000 0.11730  0.12300  0.85340  Biso   1.000  H
  H586     1.0000 0.06900  0.13780  0.86630  Biso   1.000  H
  H587     1.0000 0.12510  0.07680  0.83040  Biso   1.000  H
  H588     1.0000 0.03630  0.06040  0.83300  Biso   1.000  H
  C199     1.0000 0.06800  0.16710  0.01900  Biso   1.000  C
  H589     1.0000 0.06210  0.19220  0.97040  Biso   1.000  H
  H590     1.0000 0.02200  0.17340  0.04910  Biso   1.000  H
  H591     1.0000 0.11080  0.18970  0.04650  Biso   1.000  H
  H592     1.0000 0.06780  0.17800  0.07360  Biso   1.000  H
  H593     1.0000 0.10790  0.19680  0.99490  Biso   1.000  H
  H594     1.0000 0.01910  0.18050  0.99750  Biso   1.000  H
  C200     1.0000 0.09500  0.04400  0.14800  Biso   1.000  C
  H595     1.0000 0.10440  0.99670  0.17540  Biso   1.000  H
  H596     1.0000 0.13440  0.08060  0.16090  Biso   1.000  H
  H597     1.0000 0.04560  0.06430  0.16350  Biso   1.000  H
  H598     1.0000 0.08520  0.09770  0.15780  Biso   1.000  H
  H599     1.0000 0.05520  0.01370  0.17240  Biso   1.000  H
  H600     1.0000 0.14400  0.03010  0.16970  Biso   1.000  H
  C201     1.0000 0.97100  0.89300  0.95900  Biso   1.000  C
  C202     1.0000 0.05000  0.89740  0.96900  Biso   1.000  C
  C203     1.0000 0.06400  0.91200  0.04700  Biso   1.000  C
  C204     1.0000 0.99300  0.91700  0.08410  Biso   1.000  C
  C205     1.0000 0.93600  0.90500  0.02900  Biso   1.000  C
  C206     1.0000 0.93100  0.87800  0.88500  Biso   1.000  C
  H601     1.0000 0.87660  0.87800  0.89270  Biso   1.000  H
  H602     1.0000 0.94450  0.91780  0.84830  Biso   1.000  H
  H603     1.0000 0.94720  0.82900  0.86470  Biso   1.000  H
  H604     1.0000 0.96890  0.87190  0.84440  Biso   1.000  H
  H605     1.0000 0.90110  0.83210  0.88880  Biso   1.000  H
  H606     1.0000 0.89840  0.92090  0.87240  Biso   1.000  H
  C207     1.0000 0.11000  0.88800  0.90900  Biso   1.000  C
  H607     1.0000 0.08530  0.87840  0.86040  Biso   1.000  H
  H608     1.0000 0.14000  0.93430  0.90570  Biso   1.000  H
  H609     1.0000 0.14260  0.84550  0.92200  Biso   1.000  H
  H610     1.0000 0.16000  0.89380  0.93170  Biso   1.000  H
  H611     1.0000 0.10530  0.83780  0.88640  Biso   1.000  H
  H612     1.0000 0.10260  0.92660  0.87010  Biso   1.000  H
  C208     1.0000 0.14000  0.92100  0.08400  Biso   1.000  C
  H613     1.0000 0.17980  0.91540  0.04560  Biso   1.000  H
  H614     1.0000 0.14390  0.97150  0.10660  Biso   1.000  H
  H615     1.0000 0.14660  0.88270  0.12300  Biso   1.000  H
  H616     1.0000 0.13370  0.93100  0.13780  Biso   1.000  H
  H617     1.0000 0.16960  0.87490  0.07680  Biso   1.000  H
  H618     1.0000 0.16700  0.96370  0.06040  Biso   1.000  H
  C209     1.0000 0.98100  0.93200  0.16710  Biso   1.000  C
  H619     1.0000 0.02960  0.93790  0.19220  Biso   1.000  H
  H620     1.0000 0.95090  0.97800  0.17340  Biso   1.000  H
  H621     1.0000 0.95350  0.88920  0.18970  Biso   1.000  H
  H622     1.0000 0.92640  0.93220  0.17800  Biso   1.000  H
  H623     1.0000 0.00510  0.89210  0.19680  Biso   1.000  H
  H624     1.0000 0.00250  0.98090  0.18050  Biso   1.000  H
  C210     1.0000 0.85200  0.90500  0.04400  Biso   1.000  C
  H625     1.0000 0.82460  0.89560  0.99670  Biso   1.000  H
  H626     1.0000 0.83910  0.86560  0.08060  Biso   1.000  H
  H627     1.0000 0.83650  0.95440  0.06430  Biso   1.000  H
  H628     1.0000 0.84220  0.91480  0.09770  Biso   1.000  H
  H629     1.0000 0.82760  0.94480  0.01370  Biso   1.000  H
  H630     1.0000 0.83030  0.85600  0.03010  Biso   1.000  H
  C211     1.0000 0.02900  0.89300  0.04100  Biso   1.000  C
  C212     1.0000 0.95000  0.89740  0.03100  Biso   1.000  C
  C213     1.0000 0.93600  0.91200  0.95300  Biso   1.000  C
  C214     1.0000 0.00700  0.91700  0.91590  Biso   1.000  C
  C215     1.0000 0.06400  0.90500  0.97100  Biso   1.000  C
  C216     1.0000 0.06900  0.87800  0.11500  Biso   1.000  C
  H631     1.0000 0.12340  0.87800  0.10730  Biso   1.000  H
  H632     1.0000 0.05550  0.91780  0.15170  Biso   1.000  H
  H633     1.0000 0.05280  0.82900  0.13530  Biso   1.000  H
  H634     1.0000 0.03110  0.87190  0.15560  Biso   1.000  H
  H635     1.0000 0.09890  0.83210  0.11120  Biso   1.000  H
  H636     1.0000 0.10160  0.92090  0.12760  Biso   1.000  H
  C217     1.0000 0.89000  0.88800  0.09100  Biso   1.000  C
  H637     1.0000 0.91470  0.87840  0.13960  Biso   1.000  H
  H638     1.0000 0.86000  0.93430  0.09430  Biso   1.000  H
  H639     1.0000 0.85740  0.84550  0.07800  Biso   1.000  H
  H640     1.0000 0.84000  0.89380  0.06830  Biso   1.000  H
  H641     1.0000 0.89470  0.83780  0.11360  Biso   1.000  H
  H642     1.0000 0.89740  0.92660  0.12990  Biso   1.000  H
  C218     1.0000 0.86000  0.92100  0.91600  Biso   1.000  C
  H643     1.0000 0.82020  0.91540  0.95440  Biso   1.000  H
  H644     1.0000 0.85610  0.97150  0.89340  Biso   1.000  H
  H645     1.0000 0.85340  0.88270  0.87700  Biso   1.000  H
  H646     1.0000 0.86630  0.93100  0.86220  Biso   1.000  H
  H647     1.0000 0.83040  0.87490  0.92320  Biso   1.000  H
  H648     1.0000 0.83300  0.96370  0.93960  Biso   1.000  H
  C219     1.0000 0.01900  0.93200  0.83290  Biso   1.000  C
  H649     1.0000 0.97040  0.93790  0.80780  Biso   1.000  H
  H650     1.0000 0.04910  0.97800  0.82660  Biso   1.000  H
  H651     1.0000 0.04650  0.88920  0.81030  Biso   1.000  H
  H652     1.0000 0.07360  0.93220  0.82200  Biso   1.000  H
  H653     1.0000 0.99490  0.89210  0.80320  Biso   1.000  H
  H654     1.0000 0.99750  0.98090  0.81950  Biso   1.000  H
  C220     1.0000 0.14800  0.90500  0.95600  Biso   1.000  C
  H655     1.0000 0.17540  0.89560  0.00330  Biso   1.000  H
  H656     1.0000 0.16090  0.86560  0.91940  Biso   1.000  H
  H657     1.0000 0.16350  0.95440  0.93570  Biso   1.000  H
  H658     1.0000 0.15780  0.91480  0.90230  Biso   1.000  H
  H659     1.0000 0.17240  0.94480  0.98630  Biso   1.000  H
  H660     1.0000 0.16970  0.85600  0.96990  Biso   1.000  H
  C221     1.0000 0.97100  0.10700  0.04100  Biso   1.000  C
  C222     1.0000 0.05000  0.10260  0.03100  Biso   1.000  C
  C223     1.0000 0.06400  0.08800  0.95300  Biso   1.000  C
  C224     1.0000 0.99300  0.08300  0.91590  Biso   1.000  C
  C225     1.0000 0.93600  0.09500  0.97100  Biso   1.000  C
  C226     1.0000 0.93100  0.12200  0.11500  Biso   1.000  C
  H661     1.0000 0.87660  0.12200  0.10730  Biso   1.000  H
  H662     1.0000 0.94450  0.08220  0.15170  Biso   1.000  H
  H663     1.0000 0.94720  0.17100  0.13530  Biso   1.000  H
  H664     1.0000 0.96890  0.12810  0.15560  Biso   1.000  H
  H665     1.0000 0.90110  0.16790  0.11120  Biso   1.000  H
  H666     1.0000 0.89840  0.07910  0.12760  Biso   1.000  H
  C227     1.0000 0.11000  0.11200  0.09100  Biso   1.000  C
  H667     1.0000 0.08530  0.12160  0.13960  Biso   1.000  H
  H668     1.0000 0.14000  0.06570  0.09430  Biso   1.000  H
  H669     1.0000 0.14260  0.15450  0.07800  Biso   1.000  H
  H670     1.0000 0.16000  0.10620  0.06830  Biso   1.000  H
  H671     1.0000 0.10530  0.16220  0.11360  Biso   1.000  H
  H672     1.0000 0.10260  0.07340  0.12990  Biso   1.000  H
  C228     1.0000 0.14000  0.07900  0.91600  Biso   1.000  C
  H673     1.0000 0.17980  0.08460  0.95440  Biso   1.000  H
  H674     1.0000 0.14390  0.02850  0.89340  Biso   1.000  H
  H675     1.0000 0.14660  0.11730  0.87700  Biso   1.000  H
  H676     1.0000 0.13370  0.06900  0.86220  Biso   1.000  H
  H677     1.0000 0.16960  0.12510  0.92320  Biso   1.000  H
  H678     1.0000 0.16700  0.03630  0.93960  Biso   1.000  H
  C229     1.0000 0.98100  0.06800  0.83290  Biso   1.000  C
  H679     1.0000 0.02960  0.06210  0.80780  Biso   1.000  H
  H680     1.0000 0.95090  0.02200  0.82660  Biso   1.000  H
  H681     1.0000 0.95350  0.11080  0.81030  Biso   1.000  H
  H682     1.0000 0.92640  0.06780  0.82200  Biso   1.000  H
  H683     1.0000 0.00510  0.10790  0.80320  Biso   1.000  H
  H684     1.0000 0.00250  0.01910  0.81950  Biso   1.000  H
  C230     1.0000 0.85200  0.09500  0.95600  Biso   1.000  C
  H685     1.0000 0.82460  0.10440  0.00330  Biso   1.000  H
  H686     1.0000 0.83910  0.13440  0.91940  Biso   1.000  H
  H687     1.0000 0.83650  0.04560  0.93570  Biso   1.000  H
  H688     1.0000 0.84220  0.08520  0.90230  Biso   1.000  H
  H689     1.0000 0.82760  0.05520  0.98630  Biso   1.000  H
  H690     1.0000 0.83030  0.14400  0.96990  Biso   1.000  H
  C231     1.0000 0.02900  0.10700  0.95900  Biso   1.000  C
  C232     1.0000 0.95000  0.10260  0.96900  Biso   1.000  C
  C233     1.0000 0.93600  0.08800  0.04700  Biso   1.000  C
  C234     1.0000 0.00700  0.08300  0.08410  Biso   1.000  C
  C235     1.0000 0.06400  0.09500  0.02900  Biso   1.000  C
  C236     1.0000 0.06900  0.12200  0.88500  Biso   1.000  C
  H691     1.0000 0.12340  0.12200  0.89270  Biso   1.000  H
  H692     1.0000 0.05550  0.08220  0.84830  Biso   1.000  H
  H693     1.0000 0.05280  0.17100  0.86470  Biso   1.000  H
  H694     1.0000 0.03110  0.12810  0.84440  Biso   1.000  H
  H695     1.0000 0.09890  0.16790  0.88880  Biso   1.000  H
  H696     1.0000 0.10160  0.07910  0.87240  Biso   1.000  H
  C237     1.0000 0.89000  0.11200  0.90900  Biso   1.000  C
  H697     1.0000 0.91470  0.12160  0.86040  Biso   1.000  H
  H698     1.0000 0.86000  0.06570  0.90570  Biso   1.000  H
  H699     1.0000 0.85740  0.15450  0.92200  Biso   1.000  H
  H700     1.0000 0.84000  0.10620  0.93170  Biso   1.000  H
  H701     1.0000 0.89470  0.16220  0.88640  Biso   1.000  H
  H702     1.0000 0.89740  0.07340  0.87010  Biso   1.000  H
  C238     1.0000 0.86000  0.07900  0.08400  Biso   1.000  C
  H703     1.0000 0.82020  0.08460  0.04560  Biso   1.000  H
  H704     1.0000 0.85610  0.02850  0.10660  Biso   1.000  H
  H705     1.0000 0.85340  0.11730  0.12300  Biso   1.000  H
  H706     1.0000 0.86630  0.06900  0.13780  Biso   1.000  H
  H707     1.0000 0.83040  0.12510  0.07680  Biso   1.000  H
  H708     1.0000 0.83300  0.03630  0.06040  Biso   1.000  H
  C239     1.0000 0.01900  0.06800  0.16710  Biso   1.000  C
  H709     1.0000 0.97040  0.06210  0.19220  Biso   1.000  H
  H710     1.0000 0.04910  0.02200  0.17340  Biso   1.000  H
  H711     1.0000 0.04650  0.11080  0.18970  Biso   1.000  H
  H712     1.0000 0.07360  0.06780  0.17800  Biso   1.000  H
  H713     1.0000 0.99490  0.10790  0.19680  Biso   1.000  H
  H714     1.0000 0.99750  0.01910  0.18050  Biso   1.000  H
  C240     1.0000 0.14800  0.09500  0.04400  Biso   1.000  C
  H715     1.0000 0.17540  0.10440  0.99670  Biso   1.000  H
  H716     1.0000 0.16090  0.13440  0.08060  Biso   1.000  H
  H717     1.0000 0.16350  0.04560  0.06430  Biso   1.000  H
  H718     1.0000 0.15780  0.08520  0.09770  Biso   1.000  H
  H719     1.0000 0.17240  0.05520  0.01370  Biso   1.000  H
  H720     1.0000 0.16970  0.14400  0.03010  Biso   1.000  H
  Fe1      1.0000 0.00000  0.00000  0.00000  Biso   1.000  Fe
  C241     1.0000 0.54100  0.52900  0.60700  Biso   1.000  C
  C242     1.0000 0.53100  0.45000  0.60260  Biso   1.000  C
  C243     1.0000 0.45300  0.43600  0.58800  Biso   1.000  C
  C244     1.0000 0.41590  0.50700  0.58300  Biso   1.000  C
  C245     1.0000 0.47100  0.56400  0.59500  Biso   1.000  C
  C246     1.0000 0.61500  0.56900  0.62200  Biso   1.000  C
  H721     1.0000 0.60730  0.62340  0.62200  Biso   1.000  H
  H722     1.0000 0.65170  0.55550  0.58220  Biso   1.000  H
  H723     1.0000 0.63530  0.55280  0.67100  Biso   1.000  H
  H724     1.0000 0.65560  0.53110  0.62810  Biso   1.000  H
  H725     1.0000 0.61120  0.59890  0.66790  Biso   1.000  H
  H726     1.0000 0.62760  0.60160  0.57910  Biso   1.000  H
  C247     1.0000 0.59100  0.39000  0.61200  Biso   1.000  C
  H727     1.0000 0.63960  0.41470  0.62160  Biso   1.000  H
  H728     1.0000 0.59430  0.36000  0.56570  Biso   1.000  H
  H729     1.0000 0.57800  0.35740  0.65450  Biso   1.000  H
  H730     1.0000 0.56830  0.34000  0.60620  Biso   1.000  H
  H731     1.0000 0.61360  0.39470  0.66220  Biso   1.000  H
  H732     1.0000 0.62990  0.39740  0.57340  Biso   1.000  H
  C248     1.0000 0.41600  0.36000  0.57900  Biso   1.000  C
  H733     1.0000 0.45440  0.32020  0.58460  Biso   1.000  H
  H734     1.0000 0.39340  0.35610  0.52850  Biso   1.000  H
  H735     1.0000 0.37700  0.35340  0.61730  Biso   1.000  H
  H736     1.0000 0.36220  0.36630  0.56900  Biso   1.000  H
  H737     1.0000 0.42320  0.33040  0.62510  Biso   1.000  H
  H738     1.0000 0.43960  0.33300  0.53630  Biso   1.000  H
  C249     1.0000 0.33290  0.51900  0.56800  Biso   1.000  C
  H739     1.0000 0.30780  0.47040  0.56210  Biso   1.000  H
  H740     1.0000 0.32660  0.54910  0.52200  Biso   1.000  H
  H741     1.0000 0.31030  0.54650  0.61080  Biso   1.000  H
  H742     1.0000 0.32200  0.57360  0.56780  Biso   1.000  H
  H743     1.0000 0.30320  0.49490  0.60790  Biso   1.000  H
  H744     1.0000 0.31950  0.49750  0.51910  Biso   1.000  H
  C250     1.0000 0.45600  0.64800  0.59500  Biso   1.000  C
  H745     1.0000 0.50330  0.67540  0.60440  Biso   1.000  H
  H746     1.0000 0.41940  0.66090  0.63440  Biso   1.000  H
  H747     1.0000 0.43570  0.66350  0.54560  Biso   1.000  H
  H748     1.0000 0.40230  0.65780  0.58520  Biso   1.000  H
  H749     1.0000 0.48630  0.67240  0.55520  Biso   1.000  H
  H750     1.0000 0.46990  0.66970  0.64400  Biso   1.000  H
  C251     1.0000 0.45900  0.47100  0.60700  Biso   1.000  C
  C252     1.0000 0.46900  0.55000  0.60260  Biso   1.000  C
  C253     1.0000 0.54700  0.56400  0.58800  Biso   1.000  C
  C254     1.0000 0.58410  0.49300  0.58300  Biso   1.000  C
  C255     1.0000 0.52900  0.43600  0.59500  Biso   1.000  C
  C256     1.0000 0.38500  0.43100  0.62200  Biso   1.000  C
  H751     1.0000 0.39270  0.37660  0.62200  Biso   1.000  H
  H752     1.0000 0.34830  0.44450  0.58220  Biso   1.000  H
  H753     1.0000 0.36470  0.44720  0.67100  Biso   1.000  H
  H754     1.0000 0.34440  0.46890  0.62810  Biso   1.000  H
  H755     1.0000 0.38880  0.40110  0.66790  Biso   1.000  H
  H756     1.0000 0.37240  0.39840  0.57910  Biso   1.000  H
  C257     1.0000 0.40900  0.61000  0.61200  Biso   1.000  C
  H757     1.0000 0.36040  0.58530  0.62160  Biso   1.000  H
  H758     1.0000 0.40570  0.64000  0.56570  Biso   1.000  H
  H759     1.0000 0.42200  0.64260  0.65450  Biso   1.000  H
  H760     1.0000 0.43170  0.66000  0.60620  Biso   1.000  H
  H761     1.0000 0.38640  0.60530  0.66220  Biso   1.000  H
  H762     1.0000 0.37010  0.60260  0.57340  Biso   1.000  H
  C258     1.0000 0.58400  0.64000  0.57900  Biso   1.000  C
  H763     1.0000 0.54560  0.67980  0.58460  Biso   1.000  H
  H764     1.0000 0.60660  0.64390  0.52850  Biso   1.000  H
  H765     1.0000 0.62300  0.64660  0.61730  Biso   1.000  H
  H766     1.0000 0.63780  0.63370  0.56900  Biso   1.000  H
  H767     1.0000 0.57680  0.66960  0.62510  Biso   1.000  H
  H768     1.0000 0.56040  0.66700  0.53630  Biso   1.000  H
  C259     1.0000 0.66710  0.48100  0.56800  Biso   1.000  C
  H769     1.0000 0.69220  0.52960  0.56210  Biso   1.000  H
  H770     1.0000 0.67340  0.45090  0.52200  Biso   1.000  H
  H771     1.0000 0.68970  0.45350  0.61080  Biso   1.000  H
  H772     1.0000 0.67800  0.42640  0.56780  Biso   1.000  H
  H773     1.0000 0.69680  0.50510  0.60790  Biso   1.000  H
  H774     1.0000 0.68050  0.50250  0.51910  Biso   1.000  H
  C260     1.0000 0.54400  0.35200  0.59500  Biso   1.000  C
  H775     1.0000 0.49670  0.32460  0.60440  Biso   1.000  H
  H776     1.0000 0.58060  0.33910  0.63440  Biso   1.000  H
  H777     1.0000 0.56430  0.33650  0.54560  Biso   1.000  H
  H778     1.0000 0.59770  0.34220  0.58520  Biso   1.000  H
  H779     1.0000 0.51370  0.32760  0.55520  Biso   1.000  H
  H780     1.0000 0.53010  0.33030  0.64400  Biso   1.000  H
  C261     1.0000 0.45900  0.52900  0.39300  Biso   1.000  C
  C262     1.0000 0.46900  0.45000  0.39740  Biso   1.000  C
  C263     1.0000 0.54700  0.43600  0.41200  Biso   1.000  C
  C264     1.0000 0.58410  0.50700  0.41700  Biso   1.000  C
  C265     1.0000 0.52900  0.56400  0.40500  Biso   1.000  C
  C266     1.0000 0.38500  0.56900  0.37800  Biso   1.000  C
  H781     1.0000 0.39270  0.62340  0.37800  Biso   1.000  H
  H782     1.0000 0.34830  0.55550  0.41780  Biso   1.000  H
  H783     1.0000 0.36470  0.55280  0.32900  Biso   1.000  H
  H784     1.0000 0.34440  0.53110  0.37190  Biso   1.000  H
  H785     1.0000 0.38880  0.59890  0.33210  Biso   1.000  H
  H786     1.0000 0.37240  0.60160  0.42090  Biso   1.000  H
  C267     1.0000 0.40900  0.39000  0.38800  Biso   1.000  C
  H787     1.0000 0.36040  0.41470  0.37840  Biso   1.000  H
  H788     1.0000 0.40570  0.36000  0.43430  Biso   1.000  H
  H789     1.0000 0.42200  0.35740  0.34550  Biso   1.000  H
  H790     1.0000 0.43170  0.34000  0.39380  Biso   1.000  H
  H791     1.0000 0.38640  0.39470  0.33780  Biso   1.000  H
  H792     1.0000 0.37010  0.39740  0.42660  Biso   1.000  H
  C268     1.0000 0.58400  0.36000  0.42100  Biso   1.000  C
  H793     1.0000 0.54560  0.32020  0.41540  Biso   1.000  H
  H794     1.0000 0.60660  0.35610  0.47150  Biso   1.000  H
  H795     1.0000 0.62300  0.35340  0.38270  Biso   1.000  H
  H796     1.0000 0.63780  0.36630  0.43100  Biso   1.000  H
  H797     1.0000 0.57680  0.33040  0.37490  Biso   1.000  H
  H798     1.0000 0.56040  0.33300  0.46370  Biso   1.000  H
  C269     1.0000 0.66710  0.51900  0.43200  Biso   1.000  C
  H799     1.0000 0.69220  0.47040  0.43790  Biso   1.000  H
  H800     1.0000 0.67340  0.54910  0.47800  Biso   1.000  H
  H801     1.0000 0.68970  0.54650  0.38920  Biso   1.000  H
  H802     1.0000 0.67800  0.57360  0.43220  Biso   1.000  H
  H803     1.0000 0.69680  0.49490  0.39210  Biso   1.000  H
  H804     1.0000 0.68050  0.49750  0.48090  Biso   1.000  H
  C270     1.0000 0.54400  0.64800  0.40500  Biso   1.000  C
  H805     1.0000 0.49670  0.67540  0.39560  Biso   1.000  H
  H806     1.0000 0.58060  0.66090  0.36560  Biso   1.000  H
  H807     1.0000 0.56430  0.66350  0.45440  Biso   1.000  H
  H808     1.0000 0.59770  0.65780  0.41480  Biso   1.000  H
  H809     1.0000 0.51370  0.67240  0.44480  Biso   1.000  H
  H810     1.0000 0.53010  0.66970  0.35600  Biso   1.000  H
  C271     1.0000 0.54100  0.47100  0.39300  Biso   1.000  C
  C272     1.0000 0.53100  0.55000  0.39740  Biso   1.000  C
  C273     1.0000 0.45300  0.56400  0.41200  Biso   1.000  C
  C274     1.0000 0.41590  0.49300  0.41700  Biso   1.000  C
  C275     1.0000 0.47100  0.43600  0.40500  Biso   1.000  C
  C276     1.0000 0.61500  0.43100  0.37800  Biso   1.000  C
  H811     1.0000 0.60730  0.37660  0.37800  Biso   1.000  H
  H812     1.0000 0.65170  0.44450  0.41780  Biso   1.000  H
  H813     1.0000 0.63530  0.44720  0.32900  Biso   1.000  H
  H814     1.0000 0.65560  0.46890  0.37190  Biso   1.000  H
  H815     1.0000 0.61120  0.40110  0.33210  Biso   1.000  H
  H816     1.0000 0.62760  0.39840  0.42090  Biso   1.000  H
  C277     1.0000 0.59100  0.61000  0.38800  Biso   1.000  C
  H817     1.0000 0.63960  0.58530  0.37840  Biso   1.000  H
  H818     1.0000 0.59430  0.64000  0.43430  Biso   1.000  H
  H819     1.0000 0.57800  0.64260  0.34550  Biso   1.000  H
  H820     1.0000 0.56830  0.66000  0.39380  Biso   1.000  H
  H821     1.0000 0.61360  0.60530  0.33780  Biso   1.000  H
  H822     1.0000 0.62990  0.60260  0.42660  Biso   1.000  H
  C278     1.0000 0.41600  0.64000  0.42100  Biso   1.000  C
  H823     1.0000 0.45440  0.67980  0.41540  Biso   1.000  H
  H824     1.0000 0.39340  0.64390  0.47150  Biso   1.000  H
  H825     1.0000 0.37700  0.64660  0.38270  Biso   1.000  H
  H826     1.0000 0.36220  0.63370  0.43100  Biso   1.000  H
  H827     1.0000 0.42320  0.66960  0.37490  Biso   1.000  H
  H828     1.0000 0.43960  0.66700  0.46370  Biso   1.000  H
  C279     1.0000 0.33290  0.48100  0.43200  Biso   1.000  C
  H829     1.0000 0.30780  0.52960  0.43790  Biso   1.000  H
  H830     1.0000 0.32660  0.45090  0.47800  Biso   1.000  H
  H831     1.0000 0.31030  0.45350  0.38920  Biso   1.000  H
  H832     1.0000 0.32200  0.42640  0.43220  Biso   1.000  H
  H833     1.0000 0.30320  0.50510  0.39210  Biso   1.000  H
  H834     1.0000 0.31950  0.50250  0.48090  Biso   1.000  H
  C280     1.0000 0.45600  0.35200  0.40500  Biso   1.000  C
  H835     1.0000 0.50330  0.32460  0.39560  Biso   1.000  H
  H836     1.0000 0.41940  0.33910  0.36560  Biso   1.000  H
  H837     1.0000 0.43570  0.33650  0.45440  Biso   1.000  H
  H838     1.0000 0.40230  0.34220  0.41480  Biso   1.000  H
  H839     1.0000 0.48630  0.32760  0.44480  Biso   1.000  H
  H840     1.0000 0.46990  0.33030  0.35600  Biso   1.000  H
  C281     1.0000 0.60700  0.54100  0.52900  Biso   1.000  C
  C282     1.0000 0.60260  0.53100  0.45000  Biso   1.000  C
  C283     1.0000 0.58800  0.45300  0.43600  Biso   1.000  C
  C284     1.0000 0.58300  0.41590  0.50700  Biso   1.000  C
  C285     1.0000 0.59500  0.47100  0.56400  Biso   1.000  C
  C286     1.0000 0.62200  0.61500  0.56900  Biso   1.000  C
  H841     1.0000 0.62200  0.60730  0.62340  Biso   1.000  H
  H842     1.0000 0.58220  0.65170  0.55550  Biso   1.000  H
  H843     1.0000 0.67100  0.63530  0.55280  Biso   1.000  H
  H844     1.0000 0.62810  0.65560  0.53110  Biso   1.000  H
  H845     1.0000 0.66790  0.61120  0.59890  Biso   1.000  H
  H846     1.0000 0.57910  0.62760  0.60160  Biso   1.000  H
  C287     1.0000 0.61200  0.59100  0.39000  Biso   1.000  C
  H847     1.0000 0.62160  0.63960  0.41470  Biso   1.000  H
  H848     1.0000 0.56570  0.59430  0.36000  Biso   1.000  H
  H849     1.0000 0.65450  0.57800  0.35740  Biso   1.000  H
  H850     1.0000 0.60620  0.56830  0.34000  Biso   1.000  H
  H851     1.0000 0.66220  0.61360  0.39470  Biso   1.000  H
  H852     1.0000 0.57340  0.62990  0.39740  Biso   1.000  H
  C288     1.0000 0.57900  0.41600  0.36000  Biso   1.000  C
  H853     1.0000 0.58460  0.45440  0.32020  Biso   1.000  H
  H854     1.0000 0.52850  0.39340  0.35610  Biso   1.000  H
  H855     1.0000 0.61730  0.37700  0.35340  Biso   1.000  H
  H856     1.0000 0.56900  0.36220  0.36630  Biso   1.000  H
  H857     1.0000 0.62510  0.42320  0.33040  Biso   1.000  H
  H858     1.0000 0.53630  0.43960  0.33300  Biso   1.000  H
  C289     1.0000 0.56800  0.33290  0.51900  Biso   1.000  C
  H859     1.0000 0.56210  0.30780  0.47040  Biso   1.000  H
  H860     1.0000 0.52200  0.32660  0.54910  Biso   1.000  H
  H861     1.0000 0.61080  0.31030  0.54650  Biso   1.000  H
  H862     1.0000 0.56780  0.32200  0.57360  Biso   1.000  H
  H863     1.0000 0.60790  0.30320  0.49490  Biso   1.000  H
  H864     1.0000 0.51910  0.31950  0.49750  Biso   1.000  H
  C290     1.0000 0.59500  0.45600  0.64800  Biso   1.000  C
  H865     1.0000 0.60440  0.50330  0.67540  Biso   1.000  H
  H866     1.0000 0.63440  0.41940  0.66090  Biso   1.000  H
  H867     1.0000 0.54560  0.43570  0.66350  Biso   1.000  H
  H868     1.0000 0.58520  0.40230  0.65780  Biso   1.000  H
  H869     1.0000 0.55520  0.48630  0.67240  Biso   1.000  H
  H870     1.0000 0.64400  0.46990  0.66970  Biso   1.000  H
  C291     1.0000 0.60700  0.45900  0.47100  Biso   1.000  C
  C292     1.0000 0.60260  0.46900  0.55000  Biso   1.000  C
  C293     1.0000 0.58800  0.54700  0.56400  Biso   1.000  C
  C294     1.0000 0.58300  0.58410  0.49300  Biso   1.000  C
  C295     1.0000 0.59500  0.52900  0.43600  Biso   1.000  C
  C296     1.0000 0.62200  0.38500  0.43100  Biso   1.000  C
  H871     1.0000 0.62200  0.39270  0.37660  Biso   1.000  H
  H872     1.0000 0.58220  0.34830  0.44450  Biso   1.000  H
  H873     1.0000 0.67100  0.36470  0.44720  Biso   1.000  H
  H874     1.0000 0.62810  0.34440  0.46890  Biso   1.000  H
  H875     1.0000 0.66790  0.38880  0.40110  Biso   1.000  H
  H876     1.0000 0.57910  0.37240  0.39840  Biso   1.000  H
  C297     1.0000 0.61200  0.40900  0.61000  Biso   1.000  C
  H877     1.0000 0.62160  0.36040  0.58530  Biso   1.000  H
  H878     1.0000 0.56570  0.40570  0.64000  Biso   1.000  H
  H879     1.0000 0.65450  0.42200  0.64260  Biso   1.000  H
  H880     1.0000 0.60620  0.43170  0.66000  Biso   1.000  H
  H881     1.0000 0.66220  0.38640  0.60530  Biso   1.000  H
  H882     1.0000 0.57340  0.37010  0.60260  Biso   1.000  H
  C298     1.0000 0.57900  0.58400  0.64000  Biso   1.000  C
  H883     1.0000 0.58460  0.54560  0.67980  Biso   1.000  H
  H884     1.0000 0.52850  0.60660  0.64390  Biso   1.000  H
  H885     1.0000 0.61730  0.62300  0.64660  Biso   1.000  H
  H886     1.0000 0.56900  0.63780  0.63370  Biso   1.000  H
  H887     1.0000 0.62510  0.57680  0.66960  Biso   1.000  H
  H888     1.0000 0.53630  0.56040  0.66700  Biso   1.000  H
  C299     1.0000 0.56800  0.66710  0.48100  Biso   1.000  C
  H889     1.0000 0.56210  0.69220  0.52960  Biso   1.000  H
  H890     1.0000 0.52200  0.67340  0.45090  Biso   1.000  H
  H891     1.0000 0.61080  0.68970  0.45350  Biso   1.000  H
  H892     1.0000 0.56780  0.67800  0.42640  Biso   1.000  H
  H893     1.0000 0.60790  0.69680  0.50510  Biso   1.000  H
  H894     1.0000 0.51910  0.68050  0.50250  Biso   1.000  H
  C300     1.0000 0.59500  0.54400  0.35200  Biso   1.000  C
  H895     1.0000 0.60440  0.49670  0.32460  Biso   1.000  H
  H896     1.0000 0.63440  0.58060  0.33910  Biso   1.000  H
  H897     1.0000 0.54560  0.56430  0.33650  Biso   1.000  H
  H898     1.0000 0.58520  0.59770  0.34220  Biso   1.000  H
  H899     1.0000 0.55520  0.51370  0.32760  Biso   1.000  H
  H900     1.0000 0.64400  0.53010  0.33030  Biso   1.000  H
  C301     1.0000 0.39300  0.45900  0.52900  Biso   1.000  C
  C302     1.0000 0.39740  0.46900  0.45000  Biso   1.000  C
  C303     1.0000 0.41200  0.54700  0.43600  Biso   1.000  C
  C304     1.0000 0.41700  0.58410  0.50700  Biso   1.000  C
  C305     1.0000 0.40500  0.52900  0.56400  Biso   1.000  C
  C306     1.0000 0.37800  0.38500  0.56900  Biso   1.000  C
  H901     1.0000 0.37800  0.39270  0.62340  Biso   1.000  H
  H902     1.0000 0.41780  0.34830  0.55550  Biso   1.000  H
  H903     1.0000 0.32900  0.36470  0.55280  Biso   1.000  H
  H904     1.0000 0.37190  0.34440  0.53110  Biso   1.000  H
  H905     1.0000 0.33210  0.38880  0.59890  Biso   1.000  H
  H906     1.0000 0.42090  0.37240  0.60160  Biso   1.000  H
  C307     1.0000 0.38800  0.40900  0.39000  Biso   1.000  C
  H907     1.0000 0.37840  0.36040  0.41470  Biso   1.000  H
  H908     1.0000 0.43430  0.40570  0.36000  Biso   1.000  H
  H909     1.0000 0.34550  0.42200  0.35740  Biso   1.000  H
  H910     1.0000 0.39380  0.43170  0.34000  Biso   1.000  H
  H911     1.0000 0.33780  0.38640  0.39470  Biso   1.000  H
  H912     1.0000 0.42660  0.37010  0.39740  Biso   1.000  H
  C308     1.0000 0.42100  0.58400  0.36000  Biso   1.000  C
  H913     1.0000 0.41540  0.54560  0.32020  Biso   1.000  H
  H914     1.0000 0.47150  0.60660  0.35610  Biso   1.000  H
  H915     1.0000 0.38270  0.62300  0.35340  Biso   1.000  H
  H916     1.0000 0.43100  0.63780  0.36630  Biso   1.000  H
  H917     1.0000 0.37490  0.57680  0.33040  Biso   1.000  H
  H918     1.0000 0.46370  0.56040  0.33300  Biso   1.000  H
  C309     1.0000 0.43200  0.66710  0.51900  Biso   1.000  C
  H919     1.0000 0.43790  0.69220  0.47040  Biso   1.000  H
  H920     1.0000 0.47800  0.67340  0.54910  Biso   1.000  H
  H921     1.0000 0.38920  0.68970  0.54650  Biso   1.000  H
  H922     1.0000 0.43220  0.67800  0.57360  Biso   1.000  H
  H923     1.0000 0.39210  0.69680  0.49490  Biso   1.000  H
  H924     1.0000 0.48090  0.68050  0.49750  Biso   1.000  H
  C310     1.0000 0.40500  0.54400  0.64800  Biso   1.000  C
  H925     1.0000 0.39560  0.49670  0.67540  Biso   1.000  H
  H926     1.0000 0.36560  0.58060  0.66090  Biso   1.000  H
  H927     1.0000 0.45440  0.56430  0.66350  Biso   1.000  H
  H928     1.0000 0.41480  0.59770  0.65780  Biso   1.000  H
  H929     1.0000 0.44480  0.51370  0.67240  Biso   1.000  H
  H930     1.0000 0.35600  0.53010  0.66970  Biso   1.000  H
  C311     1.0000 0.39300  0.54100  0.47100  Biso   1.000  C
  C312     1.0000 0.39740  0.53100  0.55000  Biso   1.000  C
  C313     1.0000 0.41200  0.45300  0.56400  Biso   1.000  C
  C314     1.0000 0.41700  0.41590  0.49300  Biso   1.000  C
  C315     1.0000 0.40500  0.47100  0.43600  Biso   1.000  C
  C316     1.0000 0.37800  0.61500  0.43100  Biso   1.000  C
  H931     1.0000 0.37800  0.60730  0.37660  Biso   1.000  H
  H932     1.0000 0.41780  0.65170  0.44450  Biso   1.000  H
  H933     1.0000 0.32900  0.63530  0.44720  Biso   1.000  H
  H934     1.0000 0.37190  0.65560  0.46890  Biso   1.000  H
  H935     1.0000 0.33210  0.61120  0.40110  Biso   1.000  H
  H936     1.0000 0.42090  0.62760  0.39840  Biso   1.000  H
  C317     1.0000 0.38800  0.59100  0.61000  Biso   1.000  C
  H937     1.0000 0.37840  0.63960  0.58530  Biso   1.000  H
  H938     1.0000 0.43430  0.59430  0.64000  Biso   1.000  H
  H939     1.0000 0.34550  0.57800  0.64260  Biso   1.000  H
  H940     1.0000 0.39380  0.56830  0.66000  Biso   1.000  H
  H941     1.0000 0.33780  0.61360  0.60530  Biso   1.000  H
  H942     1.0000 0.42660  0.62990  0.60260  Biso   1.000  H
  C318     1.0000 0.42100  0.41600  0.64000  Biso   1.000  C
  H943     1.0000 0.41540  0.45440  0.67980  Biso   1.000  H
  H944     1.0000 0.47150  0.39340  0.64390  Biso   1.000  H
  H945     1.0000 0.38270  0.37700  0.64660  Biso   1.000  H
  H946     1.0000 0.43100  0.36220  0.63370  Biso   1.000  H
  H947     1.0000 0.37490  0.42320  0.66960  Biso   1.000  H
  H948     1.0000 0.46370  0.43960  0.66700  Biso   1.000  H
  C319     1.0000 0.43200  0.33290  0.48100  Biso   1.000  C
  H949     1.0000 0.43790  0.30780  0.52960  Biso   1.000  H
  H950     1.0000 0.47800  0.32660  0.45090  Biso   1.000  H
  H951     1.0000 0.38920  0.31030  0.45350  Biso   1.000  H
  H952     1.0000 0.43220  0.32200  0.42640  Biso   1.000  H
  H953     1.0000 0.39210  0.30320  0.50510  Biso   1.000  H
  H954     1.0000 0.48090  0.31950  0.50250  Biso   1.000  H
  C320     1.0000 0.40500  0.45600  0.35200  Biso   1.000  C
  H955     1.0000 0.39560  0.50330  0.32460  Biso   1.000  H
  H956     1.0000 0.36560  0.41940  0.33910  Biso   1.000  H
  H957     1.0000 0.45440  0.43570  0.33650  Biso   1.000  H
  H958     1.0000 0.41480  0.40230  0.34220  Biso   1.000  H
  H959     1.0000 0.44480  0.48630  0.32760  Biso   1.000  H
  H960     1.0000 0.35600  0.46990  0.33030  Biso   1.000  H
  C321     1.0000 0.52900  0.60700  0.54100  Biso   1.000  C
  C322     1.0000 0.45000  0.60260  0.53100  Biso   1.000  C
  C323     1.0000 0.43600  0.58800  0.45300  Biso   1.000  C
  C324     1.0000 0.50700  0.58300  0.41590  Biso   1.000  C
  C325     1.0000 0.56400  0.59500  0.47100  Biso   1.000  C
  C326     1.0000 0.56900  0.62200  0.61500  Biso   1.000  C
  H961     1.0000 0.62340  0.62200  0.60730  Biso   1.000  H
  H962     1.0000 0.55550  0.58220  0.65170  Biso   1.000  H
  H963     1.0000 0.55280  0.67100  0.63530  Biso   1.000  H
  H964     1.0000 0.53110  0.62810  0.65560  Biso   1.000  H
  H965     1.0000 0.59890  0.66790  0.61120  Biso   1.000  H
  H966     1.0000 0.60160  0.57910  0.62760  Biso   1.000  H
  C327     1.0000 0.39000  0.61200  0.59100  Biso   1.000  C
  H967     1.0000 0.41470  0.62160  0.63960  Biso   1.000  H
  H968     1.0000 0.36000  0.56570  0.59430  Biso   1.000  H
  H969     1.0000 0.35740  0.65450  0.57800  Biso   1.000  H
  H970     1.0000 0.34000  0.60620  0.56830  Biso   1.000  H
  H971     1.0000 0.39470  0.66220  0.61360  Biso   1.000  H
  H972     1.0000 0.39740  0.57340  0.62990  Biso   1.000  H
  C328     1.0000 0.36000  0.57900  0.41600  Biso   1.000  C
  H973     1.0000 0.32020  0.58460  0.45440  Biso   1.000  H
  H974     1.0000 0.35610  0.52850  0.39340  Biso   1.000  H
  H975     1.0000 0.35340  0.61730  0.37700  Biso   1.000  H
  H976     1.0000 0.36630  0.56900  0.36220  Biso   1.000  H
  H977     1.0000 0.33040  0.62510  0.42320  Biso   1.000  H
  H978     1.0000 0.33300  0.53630  0.43960  Biso   1.000  H
  C329     1.0000 0.51900  0.56800  0.33290  Biso   1.000  C
  H979     1.0000 0.47040  0.56210  0.30780  Biso   1.000  H
  H980     1.0000 0.54910  0.52200  0.32660  Biso   1.000  H
  H981     1.0000 0.54650  0.61080  0.31030  Biso   1.000  H
  H982     1.0000 0.57360  0.56780  0.32200  Biso   1.000  H
  H983     1.0000 0.49490  0.60790  0.30320  Biso   1.000  H
  H984     1.0000 0.49750  0.51910  0.31950  Biso   1.000  H
  C330     1.0000 0.64800  0.59500  0.45600  Biso   1.000  C
  H985     1.0000 0.67540  0.60440  0.50330  Biso   1.000  H
  H986     1.0000 0.66090  0.63440  0.41940  Biso   1.000  H
  H987     1.0000 0.66350  0.54560  0.43570  Biso   1.000  H
  H988     1.0000 0.65780  0.58520  0.40230  Biso   1.000  H
  H989     1.0000 0.67240  0.55520  0.48630  Biso   1.000  H
  H990     1.0000 0.66970  0.64400  0.46990  Biso   1.000  H
  C331     1.0000 0.47100  0.60700  0.45900  Biso   1.000  C
  C332     1.0000 0.55000  0.60260  0.46900  Biso   1.000  C
  C333     1.0000 0.56400  0.58800  0.54700  Biso   1.000  C
  C334     1.0000 0.49300  0.58300  0.58410  Biso   1.000  C
  C335     1.0000 0.43600  0.59500  0.52900  Biso   1.000  C
  C336     1.0000 0.43100  0.62200  0.38500  Biso   1.000  C
  H991     1.0000 0.37660  0.62200  0.39270  Biso   1.000  H
  H992     1.0000 0.44450  0.58220  0.34830  Biso   1.000  H
  H993     1.0000 0.44720  0.67100  0.36470  Biso   1.000  H
  H994     1.0000 0.46890  0.62810  0.34440  Biso   1.000  H
  H995     1.0000 0.40110  0.66790  0.38880  Biso   1.000  H
  H996     1.0000 0.39840  0.57910  0.37240  Biso   1.000  H
  C337     1.0000 0.61000  0.61200  0.40900  Biso   1.000  C
  H997     1.0000 0.58530  0.62160  0.36040  Biso   1.000  H
  H998     1.0000 0.64000  0.56570  0.40570  Biso   1.000  H
  H999     1.0000 0.64260  0.65450  0.42200  Biso   1.000  H
  H1000    1.0000 0.66000  0.60620  0.43170  Biso   1.000  H
  H1001    1.0000 0.60530  0.66220  0.38640  Biso   1.000  H
  H1002    1.0000 0.60260  0.57340  0.37010  Biso   1.000  H
  C338     1.0000 0.64000  0.57900  0.58400  Biso   1.000  C
  H1003    1.0000 0.67980  0.58460  0.54560  Biso   1.000  H
  H1004    1.0000 0.64390  0.52850  0.60660  Biso   1.000  H
  H1005    1.0000 0.64660  0.61730  0.62300  Biso   1.000  H
  H1006    1.0000 0.63370  0.56900  0.63780  Biso   1.000  H
  H1007    1.0000 0.66960  0.62510  0.57680  Biso   1.000  H
  H1008    1.0000 0.66700  0.53630  0.56040  Biso   1.000  H
  C339     1.0000 0.48100  0.56800  0.66710  Biso   1.000  C
  H1009    1.0000 0.52960  0.56210  0.69220  Biso   1.000  H
  H1010    1.0000 0.45090  0.52200  0.67340  Biso   1.000  H
  H1011    1.0000 0.45350  0.61080  0.68970  Biso   1.000  H
  H1012    1.0000 0.42640  0.56780  0.67800  Biso   1.000  H
  H1013    1.0000 0.50510  0.60790  0.69680  Biso   1.000  H
  H1014    1.0000 0.50250  0.51910  0.68050  Biso   1.000  H
  C340     1.0000 0.35200  0.59500  0.54400  Biso   1.000  C
  H1015    1.0000 0.32460  0.60440  0.49670  Biso   1.000  H
  H1016    1.0000 0.33910  0.63440  0.58060  Biso   1.000  H
  H1017    1.0000 0.33650  0.54560  0.56430  Biso   1.000  H
  H1018    1.0000 0.34220  0.58520  0.59770  Biso   1.000  H
  H1019    1.0000 0.32760  0.55520  0.51370  Biso   1.000  H
  H1020    1.0000 0.33030  0.64400  0.53010  Biso   1.000  H
  C341     1.0000 0.52900  0.39300  0.45900  Biso   1.000  C
  C342     1.0000 0.45000  0.39740  0.46900  Biso   1.000  C
  C343     1.0000 0.43600  0.41200  0.54700  Biso   1.000  C
  C344     1.0000 0.50700  0.41700  0.58410  Biso   1.000  C
  C345     1.0000 0.56400  0.40500  0.52900  Biso   1.000  C
  C346     1.0000 0.56900  0.37800  0.38500  Biso   1.000  C
  H1021    1.0000 0.62340  0.37800  0.39270  Biso   1.000  H
  H1022    1.0000 0.55550  0.41780  0.34830  Biso   1.000  H
  H1023    1.0000 0.55280  0.32900  0.36470  Biso   1.000  H
  H1024    1.0000 0.53110  0.37190  0.34440  Biso   1.000  H
  H1025    1.0000 0.59890  0.33210  0.38880  Biso   1.000  H
  H1026    1.0000 0.60160  0.42090  0.37240  Biso   1.000  H
  C347     1.0000 0.39000  0.38800  0.40900  Biso   1.000  C
  H1027    1.0000 0.41470  0.37840  0.36040  Biso   1.000  H
  H1028    1.0000 0.36000  0.43430  0.40570  Biso   1.000  H
  H1029    1.0000 0.35740  0.34550  0.42200  Biso   1.000  H
  H1030    1.0000 0.34000  0.39380  0.43170  Biso   1.000  H
  H1031    1.0000 0.39470  0.33780  0.38640  Biso   1.000  H
  H1032    1.0000 0.39740  0.42660  0.37010  Biso   1.000  H
  C348     1.0000 0.36000  0.42100  0.58400  Biso   1.000  C
  H1033    1.0000 0.32020  0.41540  0.54560  Biso   1.000  H
  H1034    1.0000 0.35610  0.47150  0.60660  Biso   1.000  H
  H1035    1.0000 0.35340  0.38270  0.62300  Biso   1.000  H
  H1036    1.0000 0.36630  0.43100  0.63780  Biso   1.000  H
  H1037    1.0000 0.33040  0.37490  0.57680  Biso   1.000  H
  H1038    1.0000 0.33300  0.46370  0.56040  Biso   1.000  H
  C349     1.0000 0.51900  0.43200  0.66710  Biso   1.000  C
  H1039    1.0000 0.47040  0.43790  0.69220  Biso   1.000  H
  H1040    1.0000 0.54910  0.47800  0.67340  Biso   1.000  H
  H1041    1.0000 0.54650  0.38920  0.68970  Biso   1.000  H
  H1042    1.0000 0.57360  0.43220  0.67800  Biso   1.000  H
  H1043    1.0000 0.49490  0.39210  0.69680  Biso   1.000  H
  H1044    1.0000 0.49750  0.48090  0.68050  Biso   1.000  H
  C350     1.0000 0.64800  0.40500  0.54400  Biso   1.000  C
  H1045    1.0000 0.67540  0.39560  0.49670  Biso   1.000  H
  H1046    1.0000 0.66090  0.36560  0.58060  Biso   1.000  H
  H1047    1.0000 0.66350  0.45440  0.56430  Biso   1.000  H
  H1048    1.0000 0.65780  0.41480  0.59770  Biso   1.000  H
  H1049    1.0000 0.67240  0.44480  0.51370  Biso   1.000  H
  H1050    1.0000 0.66970  0.35600  0.53010  Biso   1.000  H
  C351     1.0000 0.47100  0.39300  0.54100  Biso   1.000  C
  C352     1.0000 0.55000  0.39740  0.53100  Biso   1.000  C
  C353     1.0000 0.56400  0.41200  0.45300  Biso   1.000  C
  C354     1.0000 0.49300  0.41700  0.41590  Biso   1.000  C
  C355     1.0000 0.43600  0.40500  0.47100  Biso   1.000  C
  C356     1.0000 0.43100  0.37800  0.61500  Biso   1.000  C
  H1051    1.0000 0.37660  0.37800  0.60730  Biso   1.000  H
  H1052    1.0000 0.44450  0.41780  0.65170  Biso   1.000  H
  H1053    1.0000 0.44720  0.32900  0.63530  Biso   1.000  H
  H1054    1.0000 0.46890  0.37190  0.65560  Biso   1.000  H
  H1055    1.0000 0.40110  0.33210  0.61120  Biso   1.000  H
  H1056    1.0000 0.39840  0.42090  0.62760  Biso   1.000  H
  C357     1.0000 0.61000  0.38800  0.59100  Biso   1.000  C
  H1057    1.0000 0.58530  0.37840  0.63960  Biso   1.000  H
  H1058    1.0000 0.64000  0.43430  0.59430  Biso   1.000  H
  H1059    1.0000 0.64260  0.34550  0.57800  Biso   1.000  H
  H1060    1.0000 0.66000  0.39380  0.56830  Biso   1.000  H
  H1061    1.0000 0.60530  0.33780  0.61360  Biso   1.000  H
  H1062    1.0000 0.60260  0.42660  0.62990  Biso   1.000  H
  C358     1.0000 0.64000  0.42100  0.41600  Biso   1.000  C
  H1063    1.0000 0.67980  0.41540  0.45440  Biso   1.000  H
  H1064    1.0000 0.64390  0.47150  0.39340  Biso   1.000  H
  H1065    1.0000 0.64660  0.38270  0.37700  Biso   1.000  H
  H1066    1.0000 0.63370  0.43100  0.36220  Biso   1.000  H
  H1067    1.0000 0.66960  0.37490  0.42320  Biso   1.000  H
  H1068    1.0000 0.66700  0.46370  0.43960  Biso   1.000  H
  C359     1.0000 0.48100  0.43200  0.33290  Biso   1.000  C
  H1069    1.0000 0.52960  0.43790  0.30780  Biso   1.000  H
  H1070    1.0000 0.45090  0.47800  0.32660  Biso   1.000  H
  H1071    1.0000 0.45350  0.38920  0.31030  Biso   1.000  H
  H1072    1.0000 0.42640  0.43220  0.32200  Biso   1.000  H
  H1073    1.0000 0.50510  0.39210  0.30320  Biso   1.000  H
  H1074    1.0000 0.50250  0.48090  0.31950  Biso   1.000  H
  C360     1.0000 0.35200  0.40500  0.45600  Biso   1.000  C
  H1075    1.0000 0.32460  0.39560  0.50330  Biso   1.000  H
  H1076    1.0000 0.33910  0.36560  0.41940  Biso   1.000  H
  H1077    1.0000 0.33650  0.45440  0.43570  Biso   1.000  H
  H1078    1.0000 0.34220  0.41480  0.40230  Biso   1.000  H
  H1079    1.0000 0.32760  0.44480  0.48630  Biso   1.000  H
  H1080    1.0000 0.33030  0.35600  0.46990  Biso   1.000  H
  C361     1.0000 0.45900  0.47100  0.39300  Biso   1.000  C
  C362     1.0000 0.46900  0.55000  0.39740  Biso   1.000  C
  C363     1.0000 0.54700  0.56400  0.41200  Biso   1.000  C
  C364     1.0000 0.58410  0.49300  0.41700  Biso   1.000  C
  C365     1.0000 0.52900  0.43600  0.40500  Biso   1.000  C
  C366     1.0000 0.38500  0.43100  0.37800  Biso   1.000  C
  H1081    1.0000 0.39270  0.37660  0.37800  Biso   1.000  H
  H1082    1.0000 0.34830  0.44450  0.41780  Biso   1.000  H
  H1083    1.0000 0.36470  0.44720  0.32900  Biso   1.000  H
  H1084    1.0000 0.34440  0.46890  0.37190  Biso   1.000  H
  H1085    1.0000 0.38880  0.40110  0.33210  Biso   1.000  H
  H1086    1.0000 0.37240  0.39840  0.42090  Biso   1.000  H
  C367     1.0000 0.40900  0.61000  0.38800  Biso   1.000  C
  H1087    1.0000 0.36040  0.58530  0.37840  Biso   1.000  H
  H1088    1.0000 0.40570  0.64000  0.43430  Biso   1.000  H
  H1089    1.0000 0.42200  0.64260  0.34550  Biso   1.000  H
  H1090    1.0000 0.43170  0.66000  0.39380  Biso   1.000  H
  H1091    1.0000 0.38640  0.60530  0.33780  Biso   1.000  H
  H1092    1.0000 0.37010  0.60260  0.42660  Biso   1.000  H
  C368     1.0000 0.58400  0.64000  0.42100  Biso   1.000  C
  H1093    1.0000 0.54560  0.67980  0.41540  Biso   1.000  H
  H1094    1.0000 0.60660  0.64390  0.47150  Biso   1.000  H
  H1095    1.0000 0.62300  0.64660  0.38270  Biso   1.000  H
  H1096    1.0000 0.63780  0.63370  0.43100  Biso   1.000  H
  H1097    1.0000 0.57680  0.66960  0.37490  Biso   1.000  H
  H1098    1.0000 0.56040  0.66700  0.46370  Biso   1.000  H
  C369     1.0000 0.66710  0.48100  0.43200  Biso   1.000  C
  H1099    1.0000 0.69220  0.52960  0.43790  Biso   1.000  H
  H1100    1.0000 0.67340  0.45090  0.47800  Biso   1.000  H
  H1101    1.0000 0.68970  0.45350  0.38920  Biso   1.000  H
  H1102    1.0000 0.67800  0.42640  0.43220  Biso   1.000  H
  H1103    1.0000 0.69680  0.50510  0.39210  Biso   1.000  H
  H1104    1.0000 0.68050  0.50250  0.48090  Biso   1.000  H
  C370     1.0000 0.54400  0.35200  0.40500  Biso   1.000  C
  H1105    1.0000 0.49670  0.32460  0.39560  Biso   1.000  H
  H1106    1.0000 0.58060  0.33910  0.36560  Biso   1.000  H
  H1107    1.0000 0.56430  0.33650  0.45440  Biso   1.000  H
  H1108    1.0000 0.59770  0.34220  0.41480  Biso   1.000  H
  H1109    1.0000 0.51370  0.32760  0.44480  Biso   1.000  H
  H1110    1.0000 0.53010  0.33030  0.35600  Biso   1.000  H
  C371     1.0000 0.54100  0.52900  0.39300  Biso   1.000  C
  C372     1.0000 0.53100  0.45000  0.39740  Biso   1.000  C
  C373     1.0000 0.45300  0.43600  0.41200  Biso   1.000  C
  C374     1.0000 0.41590  0.50700  0.41700  Biso   1.000  C
  C375     1.0000 0.47100  0.56400  0.40500  Biso   1.000  C
  C376     1.0000 0.61500  0.56900  0.37800  Biso   1.000  C
  H1111    1.0000 0.60730  0.62340  0.37800  Biso   1.000  H
  H1112    1.0000 0.65170  0.55550  0.41780  Biso   1.000  H
  H1113    1.0000 0.63530  0.55280  0.32900  Biso   1.000  H
  H1114    1.0000 0.65560  0.53110  0.37190  Biso   1.000  H
  H1115    1.0000 0.61120  0.59890  0.33210  Biso   1.000  H
  H1116    1.0000 0.62760  0.60160  0.42090  Biso   1.000  H
  C377     1.0000 0.59100  0.39000  0.38800  Biso   1.000  C
  H1117    1.0000 0.63960  0.41470  0.37840  Biso   1.000  H
  H1118    1.0000 0.59430  0.36000  0.43430  Biso   1.000  H
  H1119    1.0000 0.57800  0.35740  0.34550  Biso   1.000  H
  H1120    1.0000 0.56830  0.34000  0.39380  Biso   1.000  H
  H1121    1.0000 0.61360  0.39470  0.33780  Biso   1.000  H
  H1122    1.0000 0.62990  0.39740  0.42660  Biso   1.000  H
  C378     1.0000 0.41600  0.36000  0.42100  Biso   1.000  C
  H1123    1.0000 0.45440  0.32020  0.41540  Biso   1.000  H
  H1124    1.0000 0.39340  0.35610  0.47150  Biso   1.000  H
  H1125    1.0000 0.37700  0.35340  0.38270  Biso   1.000  H
  H1126    1.0000 0.36220  0.36630  0.43100  Biso   1.000  H
  H1127    1.0000 0.42320  0.33040  0.37490  Biso   1.000  H
  H1128    1.0000 0.43960  0.33300  0.46370  Biso   1.000  H
  C379     1.0000 0.33290  0.51900  0.43200  Biso   1.000  C
  H1129    1.0000 0.30780  0.47040  0.43790  Biso   1.000  H
  H1130    1.0000 0.32660  0.54910  0.47800  Biso   1.000  H
  H1131    1.0000 0.31030  0.54650  0.38920  Biso   1.000  H
  H1132    1.0000 0.32200  0.57360  0.43220  Biso   1.000  H
  H1133    1.0000 0.30320  0.49490  0.39210  Biso   1.000  H
  H1134    1.0000 0.31950  0.49750  0.48090  Biso   1.000  H
  C380     1.0000 0.45600  0.64800  0.40500  Biso   1.000  C
  H1135    1.0000 0.50330  0.67540  0.39560  Biso   1.000  H
  H1136    1.0000 0.41940  0.66090  0.36560  Biso   1.000  H
  H1137    1.0000 0.43570  0.66350  0.45440  Biso   1.000  H
  H1138    1.0000 0.40230  0.65780  0.41480  Biso   1.000  H
  H1139    1.0000 0.48630  0.67240  0.44480  Biso   1.000  H
  H1140    1.0000 0.46990  0.66970  0.35600  Biso   1.000  H
  C381     1.0000 0.54100  0.47100  0.60700  Biso   1.000  C
  C382     1.0000 0.53100  0.55000  0.60260  Biso   1.000  C
  C383     1.0000 0.45300  0.56400  0.58800  Biso   1.000  C
  C384     1.0000 0.41590  0.49300  0.58300  Biso   1.000  C
  C385     1.0000 0.47100  0.43600  0.59500  Biso   1.000  C
  C386     1.0000 0.61500  0.43100  0.62200  Biso   1.000  C
  H1141    1.0000 0.60730  0.37660  0.62200  Biso   1.000  H
  H1142    1.0000 0.65170  0.44450  0.58220  Biso   1.000  H
  H1143    1.0000 0.63530  0.44720  0.67100  Biso   1.000  H
  H1144    1.0000 0.65560  0.46890  0.62810  Biso   1.000  H
  H1145    1.0000 0.61120  0.40110  0.66790  Biso   1.000  H
  H1146    1.0000 0.62760  0.39840  0.57910  Biso   1.000  H
  C387     1.0000 0.59100  0.61000  0.61200  Biso   1.000  C
  H1147    1.0000 0.63960  0.58530  0.62160  Biso   1.000  H
  H1148    1.0000 0.59430  0.64000  0.56570  Biso   1.000  H
  H1149    1.0000 0.57800  0.64260  0.65450  Biso   1.000  H
  H1150    1.0000 0.56830  0.66000  0.60620  Biso   1.000  H
  H1151    1.0000 0.61360  0.60530  0.66220  Biso   1.000  H
  H1152    1.0000 0.62990  0.60260  0.57340  Biso   1.000  H
  C388     1.0000 0.41600  0.64000  0.57900  Biso   1.000  C
  H1153    1.0000 0.45440  0.67980  0.58460  Biso   1.000  H
  H1154    1.0000 0.39340  0.64390  0.52850  Biso   1.000  H
  H1155    1.0000 0.37700  0.64660  0.61730  Biso   1.000  H
  H1156    1.0000 0.36220  0.63370  0.56900  Biso   1.000  H
  H1157    1.0000 0.42320  0.66960  0.62510  Biso   1.000  H
  H1158    1.0000 0.43960  0.66700  0.53630  Biso   1.000  H
  C389     1.0000 0.33290  0.48100  0.56800  Biso   1.000  C
  H1159    1.0000 0.30780  0.52960  0.56210  Biso   1.000  H
  H1160    1.0000 0.32660  0.45090  0.52200  Biso   1.000  H
  H1161    1.0000 0.31030  0.45350  0.61080  Biso   1.000  H
  H1162    1.0000 0.32200  0.42640  0.56780  Biso   1.000  H
  H1163    1.0000 0.30320  0.50510  0.60790  Biso   1.000  H
  H1164    1.0000 0.31950  0.50250  0.51910  Biso   1.000  H
  C390     1.0000 0.45600  0.35200  0.59500  Biso   1.000  C
  H1165    1.0000 0.50330  0.32460  0.60440  Biso   1.000  H
  H1166    1.0000 0.41940  0.33910  0.63440  Biso   1.000  H
  H1167    1.0000 0.43570  0.33650  0.54560  Biso   1.000  H
  H1168    1.0000 0.40230  0.34220  0.58520  Biso   1.000  H
  H1169    1.0000 0.48630  0.32760  0.55520  Biso   1.000  H
  H1170    1.0000 0.46990  0.33030  0.64400  Biso   1.000  H
  C391     1.0000 0.45900  0.52900  0.60700  Biso   1.000  C
  C392     1.0000 0.46900  0.45000  0.60260  Biso   1.000  C
  C393     1.0000 0.54700  0.43600  0.58800  Biso   1.000  C
  C394     1.0000 0.58410  0.50700  0.58300  Biso   1.000  C
  C395     1.0000 0.52900  0.56400  0.59500  Biso   1.000  C
  C396     1.0000 0.38500  0.56900  0.62200  Biso   1.000  C
  H1171    1.0000 0.39270  0.62340  0.62200  Biso   1.000  H
  H1172    1.0000 0.34830  0.55550  0.58220  Biso   1.000  H
  H1173    1.0000 0.36470  0.55280  0.67100  Biso   1.000  H
  H1174    1.0000 0.34440  0.53110  0.62810  Biso   1.000  H
  H1175    1.0000 0.38880  0.59890  0.66790  Biso   1.000  H
  H1176    1.0000 0.37240  0.60160  0.57910  Biso   1.000  H
  C397     1.0000 0.40900  0.39000  0.61200  Biso   1.000  C
  H1177    1.0000 0.36040  0.41470  0.62160  Biso   1.000  H
  H1178    1.0000 0.40570  0.36000  0.56570  Biso   1.000  H
  H1179    1.0000 0.42200  0.35740  0.65450  Biso   1.000  H
  H1180    1.0000 0.43170  0.34000  0.60620  Biso   1.000  H
  H1181    1.0000 0.38640  0.39470  0.66220  Biso   1.000  H
  H1182    1.0000 0.37010  0.39740  0.57340  Biso   1.000  H
  C398     1.0000 0.58400  0.36000  0.57900  Biso   1.000  C
  H1183    1.0000 0.54560  0.32020  0.58460  Biso   1.000  H
  H1184    1.0000 0.60660  0.35610  0.52850  Biso   1.000  H
  H1185    1.0000 0.62300  0.35340  0.61730  Biso   1.000  H
  H1186    1.0000 0.63780  0.36630  0.56900  Biso   1.000  H
  H1187    1.0000 0.57680  0.33040  0.62510  Biso   1.000  H
  H1188    1.0000 0.56040  0.33300  0.53630  Biso   1.000  H
  C399     1.0000 0.66710  0.51900  0.56800  Biso   1.000  C
  H1189    1.0000 0.69220  0.47040  0.56210  Biso   1.000  H
  H1190    1.0000 0.67340  0.54910  0.52200  Biso   1.000  H
  H1191    1.0000 0.68970  0.54650  0.61080  Biso   1.000  H
  H1192    1.0000 0.67800  0.57360  0.56780  Biso   1.000  H
  H1193    1.0000 0.69680  0.49490  0.60790  Biso   1.000  H
  H1194    1.0000 0.68050  0.49750  0.51910  Biso   1.000  H
  C400     1.0000 0.54400  0.64800  0.59500  Biso   1.000  C
  H1195    1.0000 0.49670  0.67540  0.60440  Biso   1.000  H
  H1196    1.0000 0.58060  0.66090  0.63440  Biso   1.000  H
  H1197    1.0000 0.56430  0.66350  0.54560  Biso   1.000  H
  H1198    1.0000 0.59770  0.65780  0.58520  Biso   1.000  H
  H1199    1.0000 0.51370  0.67240  0.55520  Biso   1.000  H
  H1200    1.0000 0.53010  0.66970  0.64400  Biso   1.000  H
  C401     1.0000 0.39300  0.45900  0.47100  Biso   1.000  C
  C402     1.0000 0.39740  0.46900  0.55000  Biso   1.000  C
  C403     1.0000 0.41200  0.54700  0.56400  Biso   1.000  C
  C404     1.0000 0.41700  0.58410  0.49300  Biso   1.000  C
  C405     1.0000 0.40500  0.52900  0.43600  Biso   1.000  C
  C406     1.0000 0.37800  0.38500  0.43100  Biso   1.000  C
  H1201    1.0000 0.37800  0.39270  0.37660  Biso   1.000  H
  H1202    1.0000 0.41780  0.34830  0.44450  Biso   1.000  H
  H1203    1.0000 0.32900  0.36470  0.44720  Biso   1.000  H
  H1204    1.0000 0.37190  0.34440  0.46890  Biso   1.000  H
  H1205    1.0000 0.33210  0.38880  0.40110  Biso   1.000  H
  H1206    1.0000 0.42090  0.37240  0.39840  Biso   1.000  H
  C407     1.0000 0.38800  0.40900  0.61000  Biso   1.000  C
  H1207    1.0000 0.37840  0.36040  0.58530  Biso   1.000  H
  H1208    1.0000 0.43430  0.40570  0.64000  Biso   1.000  H
  H1209    1.0000 0.34550  0.42200  0.64260  Biso   1.000  H
  H1210    1.0000 0.39380  0.43170  0.66000  Biso   1.000  H
  H1211    1.0000 0.33780  0.38640  0.60530  Biso   1.000  H
  H1212    1.0000 0.42660  0.37010  0.60260  Biso   1.000  H
  C408     1.0000 0.42100  0.58400  0.64000  Biso   1.000  C
  H1213    1.0000 0.41540  0.54560  0.67980  Biso   1.000  H
  H1214    1.0000 0.47150  0.60660  0.64390  Biso   1.000  H
  H1215    1.0000 0.38270  0.62300  0.64660  Biso   1.000  H
  H1216    1.0000 0.43100  0.63780  0.63370  Biso   1.000  H
  H1217    1.0000 0.37490  0.57680  0.66960  Biso   1.000  H
  H1218    1.0000 0.46370  0.56040  0.66700  Biso   1.000  H
  C409     1.0000 0.43200  0.66710  0.48100  Biso   1.000  C
  H1219    1.0000 0.43790  0.69220  0.52960  Biso   1.000  H
  H1220    1.0000 0.47800  0.67340  0.45090  Biso   1.000  H
  H1221    1.0000 0.38920  0.68970  0.45350  Biso   1.000  H
  H1222    1.0000 0.43220  0.67800  0.42640  Biso   1.000  H
  H1223    1.0000 0.39210  0.69680  0.50510  Biso   1.000  H
  H1224    1.0000 0.48090  0.68050  0.50250  Biso   1.000  H
  C410     1.0000 0.40500  0.54400  0.35200  Biso   1.000  C
  H1225    1.0000 0.39560  0.49670  0.32460  Biso   1.000  H
  H1226    1.0000 0.36560  0.58060  0.33910  Biso   1.000  H
  H1227    1.0000 0.45440  0.56430  0.33650  Biso   1.000  H
  H1228    1.0000 0.41480  0.59770  0.34220  Biso   1.000  H
  H1229    1.0000 0.44480  0.51370  0.32760  Biso   1.000  H
  H1230    1.0000 0.35600  0.53010  0.33030  Biso   1.000  H
  C411     1.0000 0.39300  0.54100  0.52900  Biso   1.000  C
  C412     1.0000 0.39740  0.53100  0.45000  Biso   1.000  C
  C413     1.0000 0.41200  0.45300  0.43600  Biso   1.000  C
  C414     1.0000 0.41700  0.41590  0.50700  Biso   1.000  C
  C415     1.0000 0.40500  0.47100  0.56400  Biso   1.000  C
  C416     1.0000 0.37800  0.61500  0.56900  Biso   1.000  C
  H1231    1.0000 0.37800  0.60730  0.62340  Biso   1.000  H
  H1232    1.0000 0.41780  0.65170  0.55550  Biso   1.000  H
  H1233    1.0000 0.32900  0.63530  0.55280  Biso   1.000  H
  H1234    1.0000 0.37190  0.65560  0.53110  Biso   1.000  H
  H1235    1.0000 0.33210  0.61120  0.59890  Biso   1.000  H
  H1236    1.0000 0.42090  0.62760  0.60160  Biso   1.000  H
  C417     1.0000 0.38800  0.59100  0.39000  Biso   1.000  C
  H1237    1.0000 0.37840  0.63960  0.41470  Biso   1.000  H
  H1238    1.0000 0.43430  0.59430  0.36000  Biso   1.000  H
  H1239    1.0000 0.34550  0.57800  0.35740  Biso   1.000  H
  H1240    1.0000 0.39380  0.56830  0.34000  Biso   1.000  H
  H1241    1.0000 0.33780  0.61360  0.39470  Biso   1.000  H
  H1242    1.0000 0.42660  0.62990  0.39740  Biso   1.000  H
  C418     1.0000 0.42100  0.41600  0.36000  Biso   1.000  C
  H1243    1.0000 0.41540  0.45440  0.32020  Biso   1.000  H
  H1244    1.0000 0.47150  0.39340  0.35610  Biso   1.000  H
  H1245    1.0000 0.38270  0.37700  0.35340  Biso   1.000  H
  H1246    1.0000 0.43100  0.36220  0.36630  Biso   1.000  H
  H1247    1.0000 0.37490  0.42320  0.33040  Biso   1.000  H
  H1248    1.0000 0.46370  0.43960  0.33300  Biso   1.000  H
  C419     1.0000 0.43200  0.33290  0.51900  Biso   1.000  C
  H1249    1.0000 0.43790  0.30780  0.47040  Biso   1.000  H
  H1250    1.0000 0.47800  0.32660  0.54910  Biso   1.000  H
  H1251    1.0000 0.38920  0.31030  0.54650  Biso   1.000  H
  H1252    1.0000 0.43220  0.32200  0.57360  Biso   1.000  H
  H1253    1.0000 0.39210  0.30320  0.49490  Biso   1.000  H
  H1254    1.0000 0.48090  0.31950  0.49750  Biso   1.000  H
  C420     1.0000 0.40500  0.45600  0.64800  Biso   1.000  C
  H1255    1.0000 0.39560  0.50330  0.67540  Biso   1.000  H
  H1256    1.0000 0.36560  0.41940  0.66090  Biso   1.000  H
  H1257    1.0000 0.45440  0.43570  0.66350  Biso   1.000  H
  H1258    1.0000 0.41480  0.40230  0.65780  Biso   1.000  H
  H1259    1.0000 0.44480  0.48630  0.67240  Biso   1.000  H
  H1260    1.0000 0.35600  0.46990  0.66970  Biso   1.000  H
  C421     1.0000 0.60700  0.54100  0.47100  Biso   1.000  C
  C422     1.0000 0.60260  0.53100  0.55000  Biso   1.000  C
  C423     1.0000 0.58800  0.45300  0.56400  Biso   1.000  C
  C424     1.0000 0.58300  0.41590  0.49300  Biso   1.000  C
  C425     1.0000 0.59500  0.47100  0.43600  Biso   1.000  C
  C426     1.0000 0.62200  0.61500  0.43100  Biso   1.000  C
  H1261    1.0000 0.62200  0.60730  0.37660  Biso   1.000  H
  H1262    1.0000 0.58220  0.65170  0.44450  Biso   1.000  H
  H1263    1.0000 0.67100  0.63530  0.44720  Biso   1.000  H
  H1264    1.0000 0.62810  0.65560  0.46890  Biso   1.000  H
  H1265    1.0000 0.66790  0.61120  0.40110  Biso   1.000  H
  H1266    1.0000 0.57910  0.62760  0.39840  Biso   1.000  H
  C427     1.0000 0.61200  0.59100  0.61000  Biso   1.000  C
  H1267    1.0000 0.62160  0.63960  0.58530  Biso   1.000  H
  H1268    1.0000 0.56570  0.59430  0.64000  Biso   1.000  H
  H1269    1.0000 0.65450  0.57800  0.64260  Biso   1.000  H
  H1270    1.0000 0.60620  0.56830  0.66000  Biso   1.000  H
  H1271    1.0000 0.66220  0.61360  0.60530  Biso   1.000  H
  H1272    1.0000 0.57340  0.62990  0.60260  Biso   1.000  H
  C428     1.0000 0.57900  0.41600  0.64000  Biso   1.000  C
  H1273    1.0000 0.58460  0.45440  0.67980  Biso   1.000  H
  H1274    1.0000 0.52850  0.39340  0.64390  Biso   1.000  H
  H1275    1.0000 0.61730  0.37700  0.64660  Biso   1.000  H
  H1276    1.0000 0.56900  0.36220  0.63370  Biso   1.000  H
  H1277    1.0000 0.62510  0.42320  0.66960  Biso   1.000  H
  H1278    1.0000 0.53630  0.43960  0.66700  Biso   1.000  H
  C429     1.0000 0.56800  0.33290  0.48100  Biso   1.000  C
  H1279    1.0000 0.56210  0.30780  0.52960  Biso   1.000  H
  H1280    1.0000 0.52200  0.32660  0.45090  Biso   1.000  H
  H1281    1.0000 0.61080  0.31030  0.45350  Biso   1.000  H
  H1282    1.0000 0.56780  0.32200  0.42640  Biso   1.000  H
  H1283    1.0000 0.60790  0.30320  0.50510  Biso   1.000  H
  H1284    1.0000 0.51910  0.31950  0.50250  Biso   1.000  H
  C430     1.0000 0.59500  0.45600  0.35200  Biso   1.000  C
  H1285    1.0000 0.60440  0.50330  0.32460  Biso   1.000  H
  H1286    1.0000 0.63440  0.41940  0.33910  Biso   1.000  H
  H1287    1.0000 0.54560  0.43570  0.33650  Biso   1.000  H
  H1288    1.0000 0.58520  0.40230  0.34220  Biso   1.000  H
  H1289    1.0000 0.55520  0.48630  0.32760  Biso   1.000  H
  H1290    1.0000 0.64400  0.46990  0.33030  Biso   1.000  H
  C431     1.0000 0.60700  0.45900  0.52900  Biso   1.000  C
  C432     1.0000 0.60260  0.46900  0.45000  Biso   1.000  C
  C433     1.0000 0.58800  0.54700  0.43600  Biso   1.000  C
  C434     1.0000 0.58300  0.58410  0.50700  Biso   1.000  C
  C435     1.0000 0.59500  0.52900  0.56400  Biso   1.000  C
  C436     1.0000 0.62200  0.38500  0.56900  Biso   1.000  C
  H1291    1.0000 0.62200  0.39270  0.62340  Biso   1.000  H
  H1292    1.0000 0.58220  0.34830  0.55550  Biso   1.000  H
  H1293    1.0000 0.67100  0.36470  0.55280  Biso   1.000  H
  H1294    1.0000 0.62810  0.34440  0.53110  Biso   1.000  H
  H1295    1.0000 0.66790  0.38880  0.59890  Biso   1.000  H
  H1296    1.0000 0.57910  0.37240  0.60160  Biso   1.000  H
  C437     1.0000 0.61200  0.40900  0.39000  Biso   1.000  C
  H1297    1.0000 0.62160  0.36040  0.41470  Biso   1.000  H
  H1298    1.0000 0.56570  0.40570  0.36000  Biso   1.000  H
  H1299    1.0000 0.65450  0.42200  0.35740  Biso   1.000  H
  H1300    1.0000 0.60620  0.43170  0.34000  Biso   1.000  H
  H1301    1.0000 0.66220  0.38640  0.39470  Biso   1.000  H
  H1302    1.0000 0.57340  0.37010  0.39740  Biso   1.000  H
  C438     1.0000 0.57900  0.58400  0.36000  Biso   1.000  C
  H1303    1.0000 0.58460  0.54560  0.32020  Biso   1.000  H
  H1304    1.0000 0.52850  0.60660  0.35610  Biso   1.000  H
  H1305    1.0000 0.61730  0.62300  0.35340  Biso   1.000  H
  H1306    1.0000 0.56900  0.63780  0.36630  Biso   1.000  H
  H1307    1.0000 0.62510  0.57680  0.33040  Biso   1.000  H
  H1308    1.0000 0.53630  0.56040  0.33300  Biso   1.000  H
  C439     1.0000 0.56800  0.66710  0.51900  Biso   1.000  C
  H1309    1.0000 0.56210  0.69220  0.47040  Biso   1.000  H
  H1310    1.0000 0.52200  0.67340  0.54910  Biso   1.000  H
  H1311    1.0000 0.61080  0.68970  0.54650  Biso   1.000  H
  H1312    1.0000 0.56780  0.67800  0.57360  Biso   1.000  H
  H1313    1.0000 0.60790  0.69680  0.49490  Biso   1.000  H
  H1314    1.0000 0.51910  0.68050  0.49750  Biso   1.000  H
  C440     1.0000 0.59500  0.54400  0.64800  Biso   1.000  C
  H1315    1.0000 0.60440  0.49670  0.67540  Biso   1.000  H
  H1316    1.0000 0.63440  0.58060  0.66090  Biso   1.000  H
  H1317    1.0000 0.54560  0.56430  0.66350  Biso   1.000  H
  H1318    1.0000 0.58520  0.59770  0.65780  Biso   1.000  H
  H1319    1.0000 0.55520  0.51370  0.67240  Biso   1.000  H
  H1320    1.0000 0.64400  0.53010  0.66970  Biso   1.000  H
  C441     1.0000 0.47100  0.39300  0.45900  Biso   1.000  C
  C442     1.0000 0.55000  0.39740  0.46900  Biso   1.000  C
  C443     1.0000 0.56400  0.41200  0.54700  Biso   1.000  C
  C444     1.0000 0.49300  0.41700  0.58410  Biso   1.000  C
  C445     1.0000 0.43600  0.40500  0.52900  Biso   1.000  C
  C446     1.0000 0.43100  0.37800  0.38500  Biso   1.000  C
  H1321    1.0000 0.37660  0.37800  0.39270  Biso   1.000  H
  H1322    1.0000 0.44450  0.41780  0.34830  Biso   1.000  H
  H1323    1.0000 0.44720  0.32900  0.36470  Biso   1.000  H
  H1324    1.0000 0.46890  0.37190  0.34440  Biso   1.000  H
  H1325    1.0000 0.40110  0.33210  0.38880  Biso   1.000  H
  H1326    1.0000 0.39840  0.42090  0.37240  Biso   1.000  H
  C447     1.0000 0.61000  0.38800  0.40900  Biso   1.000  C
  H1327    1.0000 0.58530  0.37840  0.36040  Biso   1.000  H
  H1328    1.0000 0.64000  0.43430  0.40570  Biso   1.000  H
  H1329    1.0000 0.64260  0.34550  0.42200  Biso   1.000  H
  H1330    1.0000 0.66000  0.39380  0.43170  Biso   1.000  H
  H1331    1.0000 0.60530  0.33780  0.38640  Biso   1.000  H
  H1332    1.0000 0.60260  0.42660  0.37010  Biso   1.000  H
  C448     1.0000 0.64000  0.42100  0.58400  Biso   1.000  C
  H1333    1.0000 0.67980  0.41540  0.54560  Biso   1.000  H
  H1334    1.0000 0.64390  0.47150  0.60660  Biso   1.000  H
  H1335    1.0000 0.64660  0.38270  0.62300  Biso   1.000  H
  H1336    1.0000 0.63370  0.43100  0.63780  Biso   1.000  H
  H1337    1.0000 0.66960  0.37490  0.57680  Biso   1.000  H
  H1338    1.0000 0.66700  0.46370  0.56040  Biso   1.000  H
  C449     1.0000 0.48100  0.43200  0.66710  Biso   1.000  C
  H1339    1.0000 0.52960  0.43790  0.69220  Biso   1.000  H
  H1340    1.0000 0.45090  0.47800  0.67340  Biso   1.000  H
  H1341    1.0000 0.45350  0.38920  0.68970  Biso   1.000  H
  H1342    1.0000 0.42640  0.43220  0.67800  Biso   1.000  H
  H1343    1.0000 0.50510  0.39210  0.69680  Biso   1.000  H
  H1344    1.0000 0.50250  0.48090  0.68050  Biso   1.000  H
  C450     1.0000 0.35200  0.40500  0.54400  Biso   1.000  C
  H1345    1.0000 0.32460  0.39560  0.49670  Biso   1.000  H
  H1346    1.0000 0.33910  0.36560  0.58060  Biso   1.000  H
  H1347    1.0000 0.33650  0.45440  0.56430  Biso   1.000  H
  H1348    1.0000 0.34220  0.41480  0.59770  Biso   1.000  H
  H1349    1.0000 0.32760  0.44480  0.51370  Biso   1.000  H
  H1350    1.0000 0.33030  0.35600  0.53010  Biso   1.000  H
  C451     1.0000 0.52900  0.39300  0.54100  Biso   1.000  C
  C452     1.0000 0.45000  0.39740  0.53100  Biso   1.000  C
  C453     1.0000 0.43600  0.41200  0.45300  Biso   1.000  C
  C454     1.0000 0.50700  0.41700  0.41590  Biso   1.000  C
  C455     1.0000 0.56400  0.40500  0.47100  Biso   1.000  C
  C456     1.0000 0.56900  0.37800  0.61500  Biso   1.000  C
  H1351    1.0000 0.62340  0.37800  0.60730  Biso   1.000  H
  H1352    1.0000 0.55550  0.41780  0.65170  Biso   1.000  H
  H1353    1.0000 0.55280  0.32900  0.63530  Biso   1.000  H
  H1354    1.0000 0.53110  0.37190  0.65560  Biso   1.000  H
  H1355    1.0000 0.59890  0.33210  0.61120  Biso   1.000  H
  H1356    1.0000 0.60160  0.42090  0.62760  Biso   1.000  H
  C457     1.0000 0.39000  0.38800  0.59100  Biso   1.000  C
  H1357    1.0000 0.41470  0.37840  0.63960  Biso   1.000  H
  H1358    1.0000 0.36000  0.43430  0.59430  Biso   1.000  H
  H1359    1.0000 0.35740  0.34550  0.57800  Biso   1.000  H
  H1360    1.0000 0.34000  0.39380  0.56830  Biso   1.000  H
  H1361    1.0000 0.39470  0.33780  0.61360  Biso   1.000  H
  H1362    1.0000 0.39740  0.42660  0.62990  Biso   1.000  H
  C458     1.0000 0.36000  0.42100  0.41600  Biso   1.000  C
  H1363    1.0000 0.32020  0.41540  0.45440  Biso   1.000  H
  H1364    1.0000 0.35610  0.47150  0.39340  Biso   1.000  H
  H1365    1.0000 0.35340  0.38270  0.37700  Biso   1.000  H
  H1366    1.0000 0.36630  0.43100  0.36220  Biso   1.000  H
  H1367    1.0000 0.33040  0.37490  0.42320  Biso   1.000  H
  H1368    1.0000 0.33300  0.46370  0.43960  Biso   1.000  H
  C459     1.0000 0.51900  0.43200  0.33290  Biso   1.000  C
  H1369    1.0000 0.47040  0.43790  0.30780  Biso   1.000  H
  H1370    1.0000 0.54910  0.47800  0.32660  Biso   1.000  H
  H1371    1.0000 0.54650  0.38920  0.31030  Biso   1.000  H
  H1372    1.0000 0.57360  0.43220  0.32200  Biso   1.000  H
  H1373    1.0000 0.49490  0.39210  0.30320  Biso   1.000  H
  H1374    1.0000 0.49750  0.48090  0.31950  Biso   1.000  H
  C460     1.0000 0.64800  0.40500  0.45600  Biso   1.000  C
  H1375    1.0000 0.67540  0.39560  0.50330  Biso   1.000  H
  H1376    1.0000 0.66090  0.36560  0.41940  Biso   1.000  H
  H1377    1.0000 0.66350  0.45440  0.43570  Biso   1.000  H
  H1378    1.0000 0.65780  0.41480  0.40230  Biso   1.000  H
  H1379    1.0000 0.67240  0.44480  0.48630  Biso   1.000  H
  H1380    1.0000 0.66970  0.35600  0.46990  Biso   1.000  H
  C461     1.0000 0.47100  0.60700  0.54100  Biso   1.000  C
  C462     1.0000 0.55000  0.60260  0.53100  Biso   1.000  C
  C463     1.0000 0.56400  0.58800  0.45300  Biso   1.000  C
  C464     1.0000 0.49300  0.58300  0.41590  Biso   1.000  C
  C465     1.0000 0.43600  0.59500  0.47100  Biso   1.000  C
  C466     1.0000 0.43100  0.62200  0.61500  Biso   1.000  C
  H1381    1.0000 0.37660  0.62200  0.60730  Biso   1.000  H
  H1382    1.0000 0.44450  0.58220  0.65170  Biso   1.000  H
  H1383    1.0000 0.44720  0.67100  0.63530  Biso   1.000  H
  H1384    1.0000 0.46890  0.62810  0.65560  Biso   1.000  H
  H1385    1.0000 0.40110  0.66790  0.61120  Biso   1.000  H
  H1386    1.0000 0.39840  0.57910  0.62760  Biso   1.000  H
  C467     1.0000 0.61000  0.61200  0.59100  Biso   1.000  C
  H1387    1.0000 0.58530  0.62160  0.63960  Biso   1.000  H
  H1388    1.0000 0.64000  0.56570  0.59430  Biso   1.000  H
  H1389    1.0000 0.64260  0.65450  0.57800  Biso   1.000  H
  H1390    1.0000 0.66000  0.60620  0.56830  Biso   1.000  H
  H1391    1.0000 0.60530  0.66220  0.61360  Biso   1.000  H
  H1392    1.0000 0.60260  0.57340  0.62990  Biso   1.000  H
  C468     1.0000 0.64000  0.57900  0.41600  Biso   1.000  C
  H1393    1.0000 0.67980  0.58460  0.45440  Biso   1.000  H
  H1394    1.0000 0.64390  0.52850  0.39340  Biso   1.000  H
  H1395    1.0000 0.64660  0.61730  0.37700  Biso   1.000  H
  H1396    1.0000 0.63370  0.56900  0.36220  Biso   1.000  H
  H1397    1.0000 0.66960  0.62510  0.42320  Biso   1.000  H
  H1398    1.0000 0.66700  0.53630  0.43960  Biso   1.000  H
  C469     1.0000 0.48100  0.56800  0.33290  Biso   1.000  C
  H1399    1.0000 0.52960  0.56210  0.30780  Biso   1.000  H
  H1400    1.0000 0.45090  0.52200  0.32660  Biso   1.000  H
  H1401    1.0000 0.45350  0.61080  0.31030  Biso   1.000  H
  H1402    1.0000 0.42640  0.56780  0.32200  Biso   1.000  H
  H1403    1.0000 0.50510  0.60790  0.30320  Biso   1.000  H
  H1404    1.0000 0.50250  0.51910  0.31950  Biso   1.000  H
  C470     1.0000 0.35200  0.59500  0.45600  Biso   1.000  C
  H1405    1.0000 0.32460  0.60440  0.50330  Biso   1.000  H
  H1406    1.0000 0.33910  0.63440  0.41940  Biso   1.000  H
  H1407    1.0000 0.33650  0.54560  0.43570  Biso   1.000  H
  H1408    1.0000 0.34220  0.58520  0.40230  Biso   1.000  H
  H1409    1.0000 0.32760  0.55520  0.48630  Biso   1.000  H
  H1410    1.0000 0.33030  0.64400  0.46990  Biso   1.000  H
  C471     1.0000 0.52900  0.60700  0.45900  Biso   1.000  C
  C472     1.0000 0.45000  0.60260  0.46900  Biso   1.000  C
  C473     1.0000 0.43600  0.58800  0.54700  Biso   1.000  C
  C474     1.0000 0.50700  0.58300  0.58410  Biso   1.000  C
  C475     1.0000 0.56400  0.59500  0.52900  Biso   1.000  C
  C476     1.0000 0.56900  0.62200  0.38500  Biso   1.000  C
  H1411    1.0000 0.62340  0.62200  0.39270  Biso   1.000  H
  H1412    1.0000 0.55550  0.58220  0.34830  Biso   1.000  H
  H1413    1.0000 0.55280  0.67100  0.36470  Biso   1.000  H
  H1414    1.0000 0.53110  0.62810  0.34440  Biso   1.000  H
  H1415    1.0000 0.59890  0.66790  0.38880  Biso   1.000  H
  H1416    1.0000 0.60160  0.57910  0.37240  Biso   1.000  H
  C477     1.0000 0.39000  0.61200  0.40900  Biso   1.000  C
  H1417    1.0000 0.41470  0.62160  0.36040  Biso   1.000  H
  H1418    1.0000 0.36000  0.56570  0.40570  Biso   1.000  H
  H1419    1.0000 0.35740  0.65450  0.42200  Biso   1.000  H
  H1420    1.0000 0.34000  0.60620  0.43170  Biso   1.000  H
  H1421    1.0000 0.39470  0.66220  0.38640  Biso   1.000  H
  H1422    1.0000 0.39740  0.57340  0.37010  Biso   1.000  H
  C478     1.0000 0.36000  0.57900  0.58400  Biso   1.000  C
  H1423    1.0000 0.32020  0.58460  0.54560  Biso   1.000  H
  H1424    1.0000 0.35610  0.52850  0.60660  Biso   1.000  H
  H1425    1.0000 0.35340  0.61730  0.62300  Biso   1.000  H
  H1426    1.0000 0.36630  0.56900  0.63780  Biso   1.000  H
  H1427    1.0000 0.33040  0.62510  0.57680  Biso   1.000  H
  H1428    1.0000 0.33300  0.53630  0.56040  Biso   1.000  H
  C479     1.0000 0.51900  0.56800  0.66710  Biso   1.000  C
  H1429    1.0000 0.47040  0.56210  0.69220  Biso   1.000  H
  H1430    1.0000 0.54910  0.52200  0.67340  Biso   1.000  H
  H1431    1.0000 0.54650  0.61080  0.68970  Biso   1.000  H
  H1432    1.0000 0.57360  0.56780  0.67800  Biso   1.000  H
  H1433    1.0000 0.49490  0.60790  0.69680  Biso   1.000  H
  H1434    1.0000 0.49750  0.51910  0.68050  Biso   1.000  H
  C480     1.0000 0.64800  0.59500  0.54400  Biso   1.000  C
  H1435    1.0000 0.67540  0.60440  0.49670  Biso   1.000  H
  H1436    1.0000 0.66090  0.63440  0.58060  Biso   1.000  H
  H1437    1.0000 0.66350  0.54560  0.56430  Biso   1.000  H
  H1438    1.0000 0.65780  0.58520  0.59770  Biso   1.000  H
  H1439    1.0000 0.67240  0.55520  0.51370  Biso   1.000  H
  H1440    1.0000 0.66970  0.64400  0.53010  Biso   1.000  H
  Fe2      1.0000 0.50000  0.50000  0.50000  Biso   1.000  Fe
