data_image0
_cell_length_a       12.611
_cell_length_b       46.104
_cell_length_c       22.386
_cell_angle_alpha    90
_cell_angle_beta     90.333
_cell_angle_gamma    90

_symmetry_space_group_name_H-M    "P 1"
_symmetry_int_tables_number       1

loop_
  _symmetry_equiv_pos_as_xyz
  'x, y, z'

loop_
  _atom_site_label
  _atom_site_occupancy
  _atom_site_fract_x
  _atom_site_fract_y
  _atom_site_fract_z
  _atom_site_thermal_displace_type
  _atom_site_B_iso_or_equiv
  _atom_site_type_symbol
  Fe1      1.0000 0.50777  0.99942  0.24948  Biso   1.000  Fe
  Fe2      1.0000 0.85124  0.24497  0.51041  Biso   1.000  Fe
  S1       1.0000 0.14290  0.17615  0.52080  Biso   1.000  S
  N1       1.0000 0.97700  0.21816  0.50880  Biso   1.000  N
  C1       1.0000 0.04750  0.20000  0.51330  Biso   1.000  C
  N2       1.0000 0.71920  0.27085  0.51590  Biso   1.000  N
  S2       1.0000 0.56010  0.31209  0.52990  Biso   1.000  S
  C2       1.0000 0.64730  0.28610  0.51800  Biso   1.000  C
  C3       1.0000 0.65440  0.17320  0.29830  Biso   1.000  C
  N3       1.0000 0.60480  0.19197  0.25550  Biso   1.000  N
  C4       1.0000 0.56680  0.17850  0.20800  Biso   1.000  C
  N4       1.0000 0.54860  0.14802  0.20790  Biso   1.000  N
  C5       1.0000 0.58410  0.13420  0.25040  Biso   1.000  C
  N5       1.0000 0.62950  0.14741  0.30100  Biso   1.000  N
  N6       1.0000 0.77900  0.21727  0.44030  Biso   1.000  N
  C6       1.0000 0.71160  0.23100  0.40490  Biso   1.000  C
  H1       1.0000 0.69310  0.25060  0.41210  Biso   1.000  H
  C7       1.0000 0.67330  0.21760  0.36220  Biso   1.000  C
  H2       1.0000 0.63010  0.22860  0.33580  Biso   1.000  H
  C8       1.0000 0.68510  0.18897  0.34820  Biso   1.000  C
  C9       1.0000 0.74760  0.17617  0.38930  Biso   1.000  C
  H3       1.0000 0.75720  0.15570  0.38790  Biso   1.000  H
  C10      1.0000 0.79590  0.19122  0.43130  Biso   1.000  C
  H4       1.0000 0.84620  0.18160  0.45600  Biso   1.000  H
  N7       1.0000 0.42510  0.22763  0.07390  Biso   1.000  N
  C11      1.0000 0.51270  0.23910  0.11250  Biso   1.000  C
  H5       1.0000 0.54240  0.25760  0.10420  Biso   1.000  H
  C12      1.0000 0.54800  0.22430  0.15630  Biso   1.000  C
  H6       1.0000 0.59650  0.23290  0.18360  Biso   1.000  H
  C13      1.0000 0.51510  0.19448  0.16500  Biso   1.000  C
  C14      1.0000 0.45050  0.18381  0.12370  Biso   1.000  C
  H7       1.0000 0.43890  0.16350  0.12330  Biso   1.000  H
  C15      1.0000 0.40130  0.19963  0.08300  Biso   1.000  C
  H8       1.0000 0.34730  0.19090  0.05930  Biso   1.000  H
  N8       1.0000 0.54160  0.04623  0.24980  Biso   1.000  N
  C16      1.0000 0.53080  0.05970  0.20450  Biso   1.000  C
  H9       1.0000 0.50800  0.05020  0.16900  Biso   1.000  H
  C17      1.0000 0.55110  0.08885  0.20400  Biso   1.000  C
  H10      1.0000 0.54190  0.09860  0.16700  Biso   1.000  H
  C18      1.0000 0.58140  0.10427  0.24850  Biso   1.000  C
  C19      1.0000 0.59370  0.08653  0.30190  Biso   1.000  C
  H11      1.0000 0.61300  0.09550  0.33860  Biso   1.000  H
  C20      1.0000 0.57870  0.05830  0.30030  Biso   1.000  C
  H12      1.0000 0.59390  0.04670  0.33430  Biso   1.000  H
  N9       1.0000 0.62720  0.14620  0.71280  Biso   1.000  N
  C21      1.0000 0.63140  0.17709  0.71690  Biso   1.000  C
  N10      1.0000 0.59860  0.19165  0.76640  Biso   1.000  N
  C22      1.0000 0.54620  0.17814  0.80410  Biso   1.000  C
  N11      1.0000 0.52050  0.15104  0.80320  Biso   1.000  N
  C23      1.0000 0.57030  0.13486  0.75850  Biso   1.000  C
  N12      1.0000 0.79800  0.22004  0.58410  Biso   1.000  N
  C24      1.0000 0.75650  0.23290  0.62520  Biso   1.000  C
  H13      1.0000 0.76380  0.25340  0.62530  Biso   1.000  H
  C25      1.0000 0.69390  0.21980  0.67680  Biso   1.000  C
  H14      1.0000 0.65640  0.23090  0.70540  Biso   1.000  H
  C26      1.0000 0.69790  0.18992  0.67710  Biso   1.000  C
  C27      1.0000 0.74950  0.17682  0.63450  Biso   1.000  C
  H15      1.0000 0.75320  0.15620  0.63420  Biso   1.000  H
  C28      1.0000 0.79930  0.19260  0.58950  Biso   1.000  C
  H16      1.0000 0.83750  0.18190  0.56040  Biso   1.000  H
  N13      1.0000 0.40480  0.22778  0.93970  Biso   1.000  N
  C29      1.0000 0.48320  0.23791  0.89920  Biso   1.000  C
  H17      1.0000 0.51120  0.25680  0.90500  Biso   1.000  H
  C30      1.0000 0.51610  0.22357  0.85760  Biso   1.000  C
  H18      1.0000 0.55650  0.23350  0.82830  Biso   1.000  H
  C31      1.0000 0.50040  0.19490  0.84930  Biso   1.000  C
  C32      1.0000 0.42040  0.18370  0.88920  Biso   1.000  C
  H19      1.0000 0.39600  0.16430  0.88570  Biso   1.000  H
  C33      1.0000 0.38140  0.20133  0.93120  Biso   1.000  C
  H20      1.0000 0.33070  0.19320  0.95740  Biso   1.000  H
  N14      1.0000 0.51270  0.04510  0.75200  Biso   1.000  N
  C34      1.0000 0.56080  0.06099  0.70760  Biso   1.000  C
  H21      1.0000 0.58330  0.05090  0.67290  Biso   1.000  H
  C35      1.0000 0.57780  0.08916  0.70990  Biso   1.000  C
  H22      1.0000 0.61010  0.09820  0.67650  Biso   1.000  H
  C36      1.0000 0.55280  0.10515  0.75510  Biso   1.000  C
  C37      1.0000 0.49960  0.09280  0.80510  Biso   1.000  C
  H23      1.0000 0.47590  0.10390  0.83820  Biso   1.000  H
  C38      1.0000 0.48590  0.06290  0.80060  Biso   1.000  C
  H24      1.0000 0.45510  0.05350  0.83400  Biso   1.000  H
  Cl1      1.0000 0.45330  0.11604  0.99050  Biso   1.000  Cl
  S3       1.0000 0.13280  0.18164  0.47500  Biso   1.000  S
  S4       1.0000 0.38040  0.02074  0.43950  Biso   1.000  S
  C39      1.0000 0.37470  0.00970  0.36840  Biso   1.000  C
  N15      1.0000 0.41770  0.00390  0.33070  Biso   1.000  N
  N16      1.0000 0.62670  0.99190  0.31980  Biso   1.000  N
  C40      1.0000 0.63200  0.98010  0.36050  Biso   1.000  C
  S5       1.0000 0.65490  0.96445  0.42830  Biso   1.000  S
  C41      1.0000 0.92890  0.00160  0.09670  Biso   1.000  C
  N17      1.0000 0.00390  0.00530  0.12360  Biso   1.000  N
  C42      1.0000 0.08270  0.02300  0.10700  Biso   1.000  C
  N18      1.0000 0.09850  0.00710  0.02840  Biso   1.000  N
  C43      1.0000 0.01010  0.00840  0.99500  Biso   1.000  C
  N19      1.0000 0.91850  0.00020  0.02680  Biso   1.000  N
  N20      1.0000 0.63850  0.99350  0.19160  Biso   1.000  N
  C44      1.0000 0.73490  0.00150  0.21700  Biso   1.000  C
  H25      1.0000 0.73900  0.00610  0.25830  Biso   1.000  H
  C45      1.0000 0.82540  0.00280  0.18200  Biso   1.000  C
  H26      1.0000 0.89130  0.00830  0.19940  Biso   1.000  H
  C46      1.0000 0.81960  0.99610  0.12150  Biso   1.000  C
  C47      1.0000 0.72310  0.98810  0.09610  Biso   1.000  C
  H27      1.0000 0.71910  0.98350  0.05480  Biso   1.000  H
  C48      1.0000 0.63260  0.98670  0.13110  Biso   1.000  C
  H28      1.0000 0.56670  0.98130  0.11370  Biso   1.000  H
  N21      1.0000 0.36590  0.00350  0.19420  Biso   1.000  N
  C49      1.0000 0.26960  0.01190  0.21840  Biso   1.000  C
  H29      1.0000 0.26400  0.01520  0.26020  Biso   1.000  H
  C50      1.0000 0.18150  0.01560  0.18160  Biso   1.000  C
  H30      1.0000 0.11570  0.02140  0.19820  Biso   1.000  H
  C51      1.0000 0.18970  0.01090  0.12050  Biso   1.000  C
  C52      1.0000 0.28610  0.00240  0.09620  Biso   1.000  C
  H31      1.0000 0.29170  0.99910  0.05450  Biso   1.000  H
  C53      1.0000 0.37420  0.99870  0.13310  Biso   1.000  C
  H32      1.0000 0.44000  0.99290  0.11650  Biso   1.000  H
  N22      1.0000 0.01960  0.99478  0.81950  Biso   1.000  N
  C54      1.0000 0.10770  0.00543  0.85000  Biso   1.000  C
  H33      1.0000 0.17270  0.00810  0.82950  Biso   1.000  H
  C55      1.0000 0.10070  0.01212  0.91040  Biso   1.000  C
  H34      1.0000 0.16090  0.01940  0.93120  Biso   1.000  H
  C56      1.0000 0.00560  0.00816  0.94030  Biso   1.000  C
  C57      1.0000 0.91740  0.99750  0.90990  Biso   1.000  C
  H35      1.0000 0.85240  0.99480  0.93040  Biso   1.000  H
  C58      1.0000 0.92440  0.99081  0.84950  Biso   1.000  C
  H36      1.0000 0.86420  0.98350  0.82870  Biso   1.000  H
  N23      1.0000 0.40640  0.00509  0.17750  Biso   1.000  N
  C59      1.0000 0.37490  0.00815  0.12870  Biso   1.000  C
  S6       1.0000 0.34520  0.02063  0.06040  Biso   1.000  S
  N24      1.0000 0.60160  0.00098  0.17529  Biso   1.000  N
  C60      1.0000 0.63210  0.00282  0.12780  Biso   1.000  C
  S7       1.0000 0.63250  0.01512  0.05697  Biso   1.000  S
  C61      1.0000 0.10130  0.00070  0.41000  Biso   1.000  C
  N25      1.0000 0.10000  0.99890  0.47190  Biso   1.000  N
  C62      1.0000 0.00410  0.99660  0.50180  Biso   1.000  C
  N26      1.0000 0.90940  0.99610  0.46970  Biso   1.000  N
  C63      1.0000 0.91070  0.99790  0.40770  Biso   1.000  C
  N27      1.0000 0.00660  0.00010  0.37790  Biso   1.000  N
  N28      1.0000 0.37550  0.00540  0.30940  Biso   1.000  N
  C64      1.0000 0.38200  0.01190  0.36990  Biso   1.000  C
  H37      1.0000 0.44760  0.01790  0.38690  Biso   1.000  H
  C65      1.0000 0.29250  0.00970  0.40560  Biso   1.000  C
  H38      1.0000 0.29690  0.01420  0.44690  Biso   1.000  H
  C66      1.0000 0.19650  0.00090  0.38070  Biso   1.000  C
  C67      1.0000 0.19000  0.99430  0.32020  Biso   1.000  C
  H39      1.0000 0.12430  0.98830  0.30320  Biso   1.000  H
  C68      1.0000 0.27940  0.99660  0.28450  Biso   1.000  C
  H40      1.0000 0.27500  0.99210  0.24320  Biso   1.000  H
  N29      1.0000 0.99800  0.00850  0.68240  Biso   1.000  N
  C69      1.0000 0.09070  0.01140  0.64970  Biso   1.000  C
  H41      1.0000 0.15680  0.01370  0.66980  Biso   1.000  H
  C70      1.0000 0.08680  0.01090  0.58770  Biso   1.000  C
  H42      1.0000 0.15020  0.01290  0.56530  Biso   1.000  H
  C71      1.0000 0.99020  0.00750  0.55830  Biso   1.000  C
  C72      1.0000 0.89750  0.00460  0.59100  Biso   1.000  C
  H43      1.0000 0.83140  0.00230  0.57100  Biso   1.000  H
  C73      1.0000 0.90130  0.00510  0.65310  Biso   1.000  C
  H44      1.0000 0.83800  0.00310  0.67540  Biso   1.000  H
  N30      1.0000 0.65240  0.99770  0.30280  Biso   1.000  N
  C74      1.0000 0.62100  0.98750  0.36610  Biso   1.000  C
  H45      1.0000 0.55360  0.98220  0.38080  Biso   1.000  H
  C75      1.0000 0.73410  0.98850  0.40060  Biso   1.000  C
  H46      1.0000 0.73850  0.98220  0.44100  Biso   1.000  H
  C76      1.0000 0.82710  0.99860  0.37140  Biso   1.000  C
  C77      1.0000 0.82510  0.00760  0.31740  Biso   1.000  C
  H47      1.0000 0.88900  0.01500  0.30110  Biso   1.000  H
  C78      1.0000 0.74370  0.00740  0.28440  Biso   1.000  C
  H48      1.0000 0.74910  0.01450  0.24470  Biso   1.000  H
  Cl2      1.0000 0.35410  0.07530  0.93440  Biso   1.000  Cl
  C79      1.0000 0.41890  0.07651  0.00270  Biso   1.000  C
  H49      1.0000 0.37200  0.07290  0.03780  Biso   1.000  H
  Cl3      1.0000 0.32950  0.07060  0.05170  Biso   1.000  Cl
  H50      1.0000 0.38370  0.07070  0.96440  Biso   1.000  H
  Cl4      1.0000 0.57510  0.06707  0.07802  Biso   1.000  Cl
  Cl5      1.0000 0.60930  0.06863  0.95070  Biso   1.000  Cl
  C80      1.0000 0.51440  0.05995  0.00300  Biso   1.000  C
  H51      1.0000 0.49650  0.03890  0.99960  Biso   1.000  H
  Fe3      1.0000 0.99223  0.49942  0.25052  Biso   1.000  Fe
  Fe4      1.0000 0.64876  0.74497  0.98959  Biso   1.000  Fe
  S8       1.0000 0.35710  0.67615  0.97920  Biso   1.000  S
  N31      1.0000 0.52300  0.71816  0.99120  Biso   1.000  N
  C81      1.0000 0.45250  0.70000  0.98670  Biso   1.000  C
  N32      1.0000 0.78080  0.77085  0.98410  Biso   1.000  N
  S9       1.0000 0.93990  0.81209  0.97010  Biso   1.000  S
  C82      1.0000 0.85270  0.78610  0.98200  Biso   1.000  C
  C83      1.0000 0.84560  0.67320  0.20170  Biso   1.000  C
  N33      1.0000 0.89520  0.69197  0.24450  Biso   1.000  N
  C84      1.0000 0.93320  0.67850  0.29200  Biso   1.000  C
  N34      1.0000 0.95140  0.64802  0.29210  Biso   1.000  N
  C85      1.0000 0.91590  0.63420  0.24960  Biso   1.000  C
  N35      1.0000 0.87050  0.64741  0.19900  Biso   1.000  N
  N36      1.0000 0.72100  0.71727  0.05970  Biso   1.000  N
  C86      1.0000 0.78840  0.73100  0.09510  Biso   1.000  C
  H52      1.0000 0.80690  0.75060  0.08790  Biso   1.000  H
  C87      1.0000 0.82670  0.71760  0.13780  Biso   1.000  C
  H53      1.0000 0.86990  0.72860  0.16420  Biso   1.000  H
  C88      1.0000 0.81490  0.68897  0.15180  Biso   1.000  C
  C89      1.0000 0.75240  0.67617  0.11070  Biso   1.000  C
  H54      1.0000 0.74280  0.65570  0.11210  Biso   1.000  H
  C90      1.0000 0.70410  0.69122  0.06870  Biso   1.000  C
  H55      1.0000 0.65380  0.68160  0.04400  Biso   1.000  H
  N37      1.0000 0.07490  0.72763  0.42610  Biso   1.000  N
  C91      1.0000 0.98730  0.73910  0.38750  Biso   1.000  C
  H56      1.0000 0.95760  0.75760  0.39580  Biso   1.000  H
  C92      1.0000 0.95200  0.72430  0.34370  Biso   1.000  C
  H57      1.0000 0.90350  0.73290  0.31640  Biso   1.000  H
  C93      1.0000 0.98490  0.69448  0.33500  Biso   1.000  C
  C94      1.0000 0.04950  0.68381  0.37630  Biso   1.000  C
  H58      1.0000 0.06110  0.66350  0.37670  Biso   1.000  H
  C95      1.0000 0.09870  0.69963  0.41700  Biso   1.000  C
  H59      1.0000 0.15270  0.69090  0.44070  Biso   1.000  H
  N38      1.0000 0.95840  0.54623  0.25020  Biso   1.000  N
  C96      1.0000 0.96920  0.55970  0.29550  Biso   1.000  C
  H60      1.0000 0.99200  0.55020  0.33100  Biso   1.000  H
  C97      1.0000 0.94890  0.58885  0.29600  Biso   1.000  C
  H61      1.0000 0.95810  0.59860  0.33300  Biso   1.000  H
  C98      1.0000 0.91860  0.60427  0.25150  Biso   1.000  C
  C99      1.0000 0.90630  0.58653  0.19810  Biso   1.000  C
  H62      1.0000 0.88700  0.59550  0.16140  Biso   1.000  H
  C100     1.0000 0.92130  0.55830  0.19970  Biso   1.000  C
  H63      1.0000 0.90610  0.54670  0.16570  Biso   1.000  H
  N39      1.0000 0.87280  0.64620  0.78720  Biso   1.000  N
  C101     1.0000 0.86860  0.67709  0.78310  Biso   1.000  C
  N40      1.0000 0.90140  0.69165  0.73360  Biso   1.000  N
  C102     1.0000 0.95380  0.67814  0.69590  Biso   1.000  C
  N41      1.0000 0.97950  0.65104  0.69680  Biso   1.000  N
  C103     1.0000 0.92970  0.63486  0.74150  Biso   1.000  C
  N42      1.0000 0.70200  0.72004  0.91590  Biso   1.000  N
  C104     1.0000 0.74350  0.73290  0.87480  Biso   1.000  C
  H64      1.0000 0.73620  0.75340  0.87470  Biso   1.000  H
  C105     1.0000 0.80610  0.71980  0.82320  Biso   1.000  C
  H65      1.0000 0.84360  0.73090  0.79460  Biso   1.000  H
  C106     1.0000 0.80210  0.68992  0.82290  Biso   1.000  C
  C107     1.0000 0.75050  0.67682  0.86550  Biso   1.000  C
  H66      1.0000 0.74680  0.65620  0.86580  Biso   1.000  H
  C108     1.0000 0.70070  0.69260  0.91050  Biso   1.000  C
  H67      1.0000 0.66250  0.68190  0.93960  Biso   1.000  H
  N43      1.0000 0.09520  0.72778  0.56030  Biso   1.000  N
  C109     1.0000 0.01680  0.73791  0.60080  Biso   1.000  C
  H68      1.0000 0.98880  0.75680  0.59500  Biso   1.000  H
  C110     1.0000 0.98390  0.72357  0.64240  Biso   1.000  C
  H69      1.0000 0.94350  0.73350  0.67170  Biso   1.000  H
  C111     1.0000 0.99960  0.69490  0.65070  Biso   1.000  C
  C112     1.0000 0.07960  0.68370  0.61080  Biso   1.000  C
  H70      1.0000 0.10400  0.66430  0.61430  Biso   1.000  H
  C113     1.0000 0.11860  0.70133  0.56880  Biso   1.000  C
  H71      1.0000 0.16930  0.69320  0.54260  Biso   1.000  H
  N44      1.0000 0.98730  0.54510  0.74800  Biso   1.000  N
  C114     1.0000 0.93920  0.56099  0.79240  Biso   1.000  C
  H72      1.0000 0.91670  0.55090  0.82710  Biso   1.000  H
  C115     1.0000 0.92220  0.58916  0.79010  Biso   1.000  C
  H73      1.0000 0.88990  0.59820  0.82350  Biso   1.000  H
  C116     1.0000 0.94720  0.60515  0.74490  Biso   1.000  C
  C117     1.0000 0.00040  0.59280  0.69490  Biso   1.000  C
  H74      1.0000 0.02410  0.60390  0.66180  Biso   1.000  H
  C118     1.0000 0.01410  0.56290  0.69940  Biso   1.000  C
  H75      1.0000 0.04490  0.55350  0.66600  Biso   1.000  H
  Cl6      1.0000 0.04670  0.61604  0.50950  Biso   1.000  Cl
  S10      1.0000 0.36720  0.68164  0.02500  Biso   1.000  S
  S11      1.0000 0.11960  0.52074  0.06050  Biso   1.000  S
  C119     1.0000 0.12530  0.50970  0.13160  Biso   1.000  C
  N45      1.0000 0.08230  0.50390  0.16930  Biso   1.000  N
  N46      1.0000 0.87330  0.49190  0.18020  Biso   1.000  N
  C120     1.0000 0.86800  0.48010  0.13950  Biso   1.000  C
  S12      1.0000 0.84510  0.46445  0.07170  Biso   1.000  S
  C121     1.0000 0.57110  0.50160  0.40330  Biso   1.000  C
  N47      1.0000 0.49610  0.50530  0.37640  Biso   1.000  N
  C122     1.0000 0.41730  0.52300  0.39300  Biso   1.000  C
  N48      1.0000 0.40150  0.50710  0.47160  Biso   1.000  N
  C123     1.0000 0.48990  0.50840  0.50500  Biso   1.000  C
  N49      1.0000 0.58150  0.50020  0.47320  Biso   1.000  N
  N50      1.0000 0.86150  0.49350  0.30840  Biso   1.000  N
  C124     1.0000 0.76510  0.50150  0.28300  Biso   1.000  C
  H76      1.0000 0.76100  0.50610  0.24170  Biso   1.000  H
  C125     1.0000 0.67460  0.50280  0.31800  Biso   1.000  C
  H77      1.0000 0.60870  0.50830  0.30060  Biso   1.000  H
  C126     1.0000 0.68040  0.49610  0.37850  Biso   1.000  C
  C127     1.0000 0.77690  0.48810  0.40390  Biso   1.000  C
  H78      1.0000 0.78090  0.48350  0.44520  Biso   1.000  H
  C128     1.0000 0.86740  0.48670  0.36890  Biso   1.000  C
  H79      1.0000 0.93330  0.48130  0.38630  Biso   1.000  H
  N51      1.0000 0.13410  0.50350  0.30580  Biso   1.000  N
  C129     1.0000 0.23040  0.51190  0.28160  Biso   1.000  C
  H80      1.0000 0.23600  0.51520  0.23980  Biso   1.000  H
  C130     1.0000 0.31850  0.51560  0.31840  Biso   1.000  C
  H81      1.0000 0.38430  0.52140  0.30180  Biso   1.000  H
  C131     1.0000 0.31030  0.51090  0.37950  Biso   1.000  C
  C132     1.0000 0.21390  0.50240  0.40380  Biso   1.000  C
  H82      1.0000 0.20830  0.49910  0.44550  Biso   1.000  H
  C133     1.0000 0.12580  0.49870  0.36690  Biso   1.000  C
  H83      1.0000 0.06000  0.49290  0.38350  Biso   1.000  H
  N52      1.0000 0.48040  0.49478  0.68050  Biso   1.000  N
  C134     1.0000 0.39230  0.50543  0.65000  Biso   1.000  C
  H84      1.0000 0.32730  0.50810  0.67050  Biso   1.000  H
  C135     1.0000 0.39930  0.51212  0.58960  Biso   1.000  C
  H85      1.0000 0.33910  0.51940  0.56880  Biso   1.000  H
  C136     1.0000 0.49440  0.50816  0.55970  Biso   1.000  C
  C137     1.0000 0.58260  0.49750  0.59010  Biso   1.000  C
  H86      1.0000 0.64760  0.49480  0.56960  Biso   1.000  H
  C138     1.0000 0.57560  0.49081  0.65050  Biso   1.000  C
  H87      1.0000 0.63580  0.48350  0.67130  Biso   1.000  H
  N53      1.0000 0.09360  0.50509  0.32250  Biso   1.000  N
  C139     1.0000 0.12510  0.50815  0.37130  Biso   1.000  C
  S13      1.0000 0.15480  0.52063  0.43960  Biso   1.000  S
  N54      1.0000 0.89840  0.50098  0.32471  Biso   1.000  N
  C140     1.0000 0.86790  0.50282  0.37220  Biso   1.000  C
  S14      1.0000 0.86750  0.51512  0.44303  Biso   1.000  S
  C141     1.0000 0.39870  0.50070  0.09000  Biso   1.000  C
  N55      1.0000 0.40000  0.49890  0.02810  Biso   1.000  N
  C142     1.0000 0.49590  0.49660  0.99820  Biso   1.000  C
  N56      1.0000 0.59060  0.49610  0.03030  Biso   1.000  N
  C143     1.0000 0.58930  0.49790  0.09230  Biso   1.000  C
  N57      1.0000 0.49340  0.50010  0.12210  Biso   1.000  N
  N58      1.0000 0.12450  0.50540  0.19060  Biso   1.000  N
  C144     1.0000 0.11800  0.51190  0.13010  Biso   1.000  C
  H88      1.0000 0.05240  0.51790  0.11310  Biso   1.000  H
  C145     1.0000 0.20750  0.50970  0.09440  Biso   1.000  C
  H89      1.0000 0.20310  0.51420  0.05310  Biso   1.000  H
  C146     1.0000 0.30350  0.50090  0.11930  Biso   1.000  C
  C147     1.0000 0.31000  0.49430  0.17980  Biso   1.000  C
  H90      1.0000 0.37570  0.48830  0.19680  Biso   1.000  H
  C148     1.0000 0.22060  0.49660  0.21550  Biso   1.000  C
  H91      1.0000 0.22500  0.49210  0.25680  Biso   1.000  H
  N59      1.0000 0.50200  0.50850  0.81760  Biso   1.000  N
  C149     1.0000 0.40930  0.51140  0.85030  Biso   1.000  C
  H92      1.0000 0.34320  0.51370  0.83020  Biso   1.000  H
  C150     1.0000 0.41320  0.51090  0.91230  Biso   1.000  C
  H93      1.0000 0.34980  0.51290  0.93470  Biso   1.000  H
  C151     1.0000 0.50980  0.50750  0.94170  Biso   1.000  C
  C152     1.0000 0.60250  0.50460  0.90900  Biso   1.000  C
  H94      1.0000 0.66860  0.50230  0.92900  Biso   1.000  H
  C153     1.0000 0.59870  0.50510  0.84690  Biso   1.000  C
  H95      1.0000 0.66200  0.50310  0.82460  Biso   1.000  H
  N60      1.0000 0.84760  0.49770  0.19720  Biso   1.000  N
  C154     1.0000 0.87900  0.48750  0.13390  Biso   1.000  C
  H96      1.0000 0.94640  0.48220  0.11920  Biso   1.000  H
  C155     1.0000 0.76590  0.48850  0.09940  Biso   1.000  C
  H97      1.0000 0.76150  0.48220  0.05900  Biso   1.000  H
  C156     1.0000 0.67290  0.49860  0.12860  Biso   1.000  C
  C157     1.0000 0.67490  0.50760  0.18260  Biso   1.000  C
  H98      1.0000 0.61100  0.51500  0.19890  Biso   1.000  H
  C158     1.0000 0.75630  0.50740  0.21560  Biso   1.000  C
  H99      1.0000 0.75090  0.51450  0.25530  Biso   1.000  H
  Cl7      1.0000 0.14590  0.57530  0.56560  Biso   1.000  Cl
  C159     1.0000 0.08110  0.57651  0.49730  Biso   1.000  C
  H100     1.0000 0.12800  0.57290  0.46220  Biso   1.000  H
  Cl8      1.0000 0.17050  0.57060  0.44830  Biso   1.000  Cl
  H101     1.0000 0.11630  0.57070  0.53560  Biso   1.000  H
  Cl9      1.0000 0.92490  0.56707  0.42198  Biso   1.000  Cl
  Cl10     1.0000 0.89070  0.56863  0.54930  Biso   1.000  Cl
  C160     1.0000 0.98560  0.55995  0.49700  Biso   1.000  C
  H102     1.0000 0.00350  0.53890  0.50040  Biso   1.000  H
  Fe5      1.0000 0.49223  0.00058  0.75052  Biso   1.000  Fe
  Fe6      1.0000 0.14876  0.75503  0.48959  Biso   1.000  Fe
  S15      1.0000 0.85710  0.82385  0.47920  Biso   1.000  S
  N61      1.0000 0.02300  0.78184  0.49120  Biso   1.000  N
  C161     1.0000 0.95250  0.80000  0.48670  Biso   1.000  C
  N62      1.0000 0.28080  0.72915  0.48410  Biso   1.000  N
  S16      1.0000 0.43990  0.68791  0.47010  Biso   1.000  S
  C162     1.0000 0.35270  0.71390  0.48200  Biso   1.000  C
  C163     1.0000 0.34560  0.82680  0.70170  Biso   1.000  C
  N63      1.0000 0.39520  0.80803  0.74450  Biso   1.000  N
  C164     1.0000 0.43320  0.82150  0.79200  Biso   1.000  C
  N64      1.0000 0.45140  0.85198  0.79210  Biso   1.000  N
  C165     1.0000 0.41590  0.86580  0.74960  Biso   1.000  C
  N65      1.0000 0.37050  0.85259  0.69900  Biso   1.000  N
  N66      1.0000 0.22100  0.78273  0.55970  Biso   1.000  N
  C166     1.0000 0.28840  0.76900  0.59510  Biso   1.000  C
  H103     1.0000 0.30690  0.74940  0.58790  Biso   1.000  H
  C167     1.0000 0.32670  0.78240  0.63780  Biso   1.000  C
  H104     1.0000 0.36990  0.77140  0.66420  Biso   1.000  H
  C168     1.0000 0.31490  0.81103  0.65180  Biso   1.000  C
  C169     1.0000 0.25240  0.82383  0.61070  Biso   1.000  C
  H105     1.0000 0.24280  0.84430  0.61210  Biso   1.000  H
  C170     1.0000 0.20410  0.80878  0.56870  Biso   1.000  C
  H106     1.0000 0.15380  0.81840  0.54400  Biso   1.000  H
  N67      1.0000 0.57490  0.77237  0.92610  Biso   1.000  N
  C171     1.0000 0.48730  0.76090  0.88750  Biso   1.000  C
  H107     1.0000 0.45760  0.74240  0.89580  Biso   1.000  H
  C172     1.0000 0.45200  0.77570  0.84370  Biso   1.000  C
  H108     1.0000 0.40350  0.76710  0.81640  Biso   1.000  H
  C173     1.0000 0.48490  0.80552  0.83500  Biso   1.000  C
  C174     1.0000 0.54950  0.81619  0.87630  Biso   1.000  C
  H109     1.0000 0.56110  0.83650  0.87670  Biso   1.000  H
  C175     1.0000 0.59870  0.80037  0.91700  Biso   1.000  C
  H110     1.0000 0.65270  0.80910  0.94070  Biso   1.000  H
  N68      1.0000 0.45840  0.95377  0.75020  Biso   1.000  N
  C176     1.0000 0.46920  0.94030  0.79550  Biso   1.000  C
  H111     1.0000 0.49200  0.94980  0.83100  Biso   1.000  H
  C177     1.0000 0.44890  0.91115  0.79600  Biso   1.000  C
  H112     1.0000 0.45810  0.90140  0.83300  Biso   1.000  H
  C178     1.0000 0.41860  0.89573  0.75150  Biso   1.000  C
  C179     1.0000 0.40630  0.91347  0.69810  Biso   1.000  C
  H113     1.0000 0.38700  0.90450  0.66140  Biso   1.000  H
  C180     1.0000 0.42130  0.94170  0.69970  Biso   1.000  C
  H114     1.0000 0.40610  0.95330  0.66570  Biso   1.000  H
  N69      1.0000 0.37280  0.85380  0.28720  Biso   1.000  N
  C181     1.0000 0.36860  0.82291  0.28310  Biso   1.000  C
  N70      1.0000 0.40140  0.80835  0.23360  Biso   1.000  N
  C182     1.0000 0.45380  0.82186  0.19590  Biso   1.000  C
  N71      1.0000 0.47950  0.84896  0.19680  Biso   1.000  N
  C183     1.0000 0.42970  0.86514  0.24150  Biso   1.000  C
  N72      1.0000 0.20200  0.77996  0.41590  Biso   1.000  N
  C184     1.0000 0.24350  0.76710  0.37480  Biso   1.000  C
  H115     1.0000 0.23620  0.74660  0.37470  Biso   1.000  H
  C185     1.0000 0.30610  0.78020  0.32320  Biso   1.000  C
  H116     1.0000 0.34360  0.76910  0.29460  Biso   1.000  H
  C186     1.0000 0.30210  0.81008  0.32290  Biso   1.000  C
  C187     1.0000 0.25050  0.82318  0.36550  Biso   1.000  C
  H117     1.0000 0.24680  0.84380  0.36580  Biso   1.000  H
  C188     1.0000 0.20070  0.80740  0.41050  Biso   1.000  C
  H118     1.0000 0.16250  0.81810  0.43960  Biso   1.000  H
  N73      1.0000 0.59520  0.77222  0.06030  Biso   1.000  N
  C189     1.0000 0.51680  0.76209  0.10080  Biso   1.000  C
  H119     1.0000 0.48880  0.74320  0.09500  Biso   1.000  H
  C190     1.0000 0.48390  0.77643  0.14240  Biso   1.000  C
  H120     1.0000 0.44350  0.76650  0.17170  Biso   1.000  H
  C191     1.0000 0.49960  0.80510  0.15070  Biso   1.000  C
  C192     1.0000 0.57960  0.81630  0.11080  Biso   1.000  C
  H121     1.0000 0.60400  0.83570  0.11430  Biso   1.000  H
  C193     1.0000 0.61860  0.79867  0.06880  Biso   1.000  C
  H122     1.0000 0.66930  0.80680  0.04260  Biso   1.000  H
  N74      1.0000 0.48730  0.95490  0.24800  Biso   1.000  N
  C194     1.0000 0.43920  0.93901  0.29240  Biso   1.000  C
  H123     1.0000 0.41670  0.94910  0.32710  Biso   1.000  H
  C195     1.0000 0.42220  0.91084  0.29010  Biso   1.000  C
  H124     1.0000 0.38990  0.90180  0.32350  Biso   1.000  H
  C196     1.0000 0.44720  0.89485  0.24490  Biso   1.000  C
  C197     1.0000 0.50040  0.90720  0.19490  Biso   1.000  C
  H125     1.0000 0.52410  0.89610  0.16180  Biso   1.000  H
  C198     1.0000 0.51410  0.93710  0.19940  Biso   1.000  C
  H126     1.0000 0.54490  0.94650  0.16600  Biso   1.000  H
  Cl11     1.0000 0.54670  0.88396  0.00950  Biso   1.000  Cl
  S17      1.0000 0.86720  0.81836  0.52500  Biso   1.000  S
  S18      1.0000 0.61960  0.97926  0.56050  Biso   1.000  S
  C199     1.0000 0.62530  0.99030  0.63160  Biso   1.000  C
  N75      1.0000 0.58230  0.99610  0.66930  Biso   1.000  N
  N76      1.0000 0.37330  0.00810  0.68020  Biso   1.000  N
  C200     1.0000 0.36800  0.01990  0.63950  Biso   1.000  C
  S19      1.0000 0.34510  0.03555  0.57170  Biso   1.000  S
  C201     1.0000 0.07110  0.99840  0.90330  Biso   1.000  C
  N77      1.0000 0.99610  0.99470  0.87640  Biso   1.000  N
  C202     1.0000 0.91730  0.97700  0.89300  Biso   1.000  C
  N78      1.0000 0.90150  0.99290  0.97160  Biso   1.000  N
  C203     1.0000 0.98990  0.99160  0.00500  Biso   1.000  C
  N79      1.0000 0.08150  0.99980  0.97320  Biso   1.000  N
  N80      1.0000 0.36150  0.00650  0.80840  Biso   1.000  N
  C204     1.0000 0.26510  0.99850  0.78300  Biso   1.000  C
  H127     1.0000 0.26100  0.99390  0.74170  Biso   1.000  H
  C205     1.0000 0.17460  0.99720  0.81800  Biso   1.000  C
  H128     1.0000 0.10870  0.99170  0.80060  Biso   1.000  H
  C206     1.0000 0.18040  0.00390  0.87850  Biso   1.000  C
  C207     1.0000 0.27690  0.01190  0.90390  Biso   1.000  C
  H129     1.0000 0.28090  0.01650  0.94520  Biso   1.000  H
  C208     1.0000 0.36740  0.01330  0.86890  Biso   1.000  C
  H130     1.0000 0.43330  0.01870  0.88630  Biso   1.000  H
  N81      1.0000 0.63410  0.99650  0.80580  Biso   1.000  N
  C209     1.0000 0.73040  0.98810  0.78160  Biso   1.000  C
  H131     1.0000 0.73600  0.98480  0.73980  Biso   1.000  H
  C210     1.0000 0.81850  0.98440  0.81840  Biso   1.000  C
  H132     1.0000 0.88430  0.97860  0.80180  Biso   1.000  H
  C211     1.0000 0.81030  0.98910  0.87950  Biso   1.000  C
  C212     1.0000 0.71390  0.99760  0.90380  Biso   1.000  C
  H133     1.0000 0.70830  0.00090  0.94550  Biso   1.000  H
  C213     1.0000 0.62580  0.00130  0.86690  Biso   1.000  C
  H134     1.0000 0.56000  0.00710  0.88350  Biso   1.000  H
  N82      1.0000 0.98040  0.00522  0.18050  Biso   1.000  N
  C214     1.0000 0.89230  0.99457  0.15000  Biso   1.000  C
  H135     1.0000 0.82730  0.99190  0.17050  Biso   1.000  H
  C215     1.0000 0.89930  0.98788  0.08960  Biso   1.000  C
  H136     1.0000 0.83910  0.98060  0.06880  Biso   1.000  H
  C216     1.0000 0.99440  0.99184  0.05970  Biso   1.000  C
  C217     1.0000 0.08260  0.00250  0.09010  Biso   1.000  C
  H137     1.0000 0.14760  0.00520  0.06960  Biso   1.000  H
  C218     1.0000 0.07560  0.00919  0.15050  Biso   1.000  C
  H138     1.0000 0.13580  0.01650  0.17130  Biso   1.000  H
  N83      1.0000 0.59360  0.99491  0.82250  Biso   1.000  N
  C219     1.0000 0.62510  0.99185  0.87130  Biso   1.000  C
  S20      1.0000 0.65480  0.97937  0.93960  Biso   1.000  S
  N84      1.0000 0.39840  0.99902  0.82471  Biso   1.000  N
  C220     1.0000 0.36790  0.99718  0.87220  Biso   1.000  C
  S21      1.0000 0.36750  0.98488  0.94303  Biso   1.000  S
  C221     1.0000 0.89870  0.99930  0.59000  Biso   1.000  C
  N85      1.0000 0.90000  0.00110  0.52810  Biso   1.000  N
  C222     1.0000 0.99590  0.00340  0.49820  Biso   1.000  C
  N86      1.0000 0.09060  0.00390  0.53030  Biso   1.000  N
  C223     1.0000 0.08930  0.00210  0.59230  Biso   1.000  C
  N87      1.0000 0.99340  0.99990  0.62210  Biso   1.000  N
  N88      1.0000 0.62450  0.99460  0.69060  Biso   1.000  N
  C224     1.0000 0.61800  0.98810  0.63010  Biso   1.000  C
  H139     1.0000 0.55240  0.98210  0.61310  Biso   1.000  H
  C225     1.0000 0.70750  0.99030  0.59440  Biso   1.000  C
  H140     1.0000 0.70310  0.98580  0.55310  Biso   1.000  H
  C226     1.0000 0.80350  0.99910  0.61930  Biso   1.000  C
  C227     1.0000 0.81000  0.00570  0.67980  Biso   1.000  C
  H141     1.0000 0.87570  0.01170  0.69680  Biso   1.000  H
  C228     1.0000 0.72060  0.00340  0.71550  Biso   1.000  C
  H142     1.0000 0.72500  0.00790  0.75680  Biso   1.000  H
  N89      1.0000 0.00200  0.99150  0.31760  Biso   1.000  N
  C229     1.0000 0.90930  0.98860  0.35030  Biso   1.000  C
  H143     1.0000 0.84320  0.98630  0.33020  Biso   1.000  H
  C230     1.0000 0.91320  0.98910  0.41230  Biso   1.000  C
  H144     1.0000 0.84980  0.98710  0.43470  Biso   1.000  H
  C231     1.0000 0.00980  0.99250  0.44170  Biso   1.000  C
  C232     1.0000 0.10250  0.99540  0.40900  Biso   1.000  C
  H145     1.0000 0.16860  0.99770  0.42900  Biso   1.000  H
  C233     1.0000 0.09870  0.99490  0.34690  Biso   1.000  C
  H146     1.0000 0.16200  0.99690  0.32460  Biso   1.000  H
  N90      1.0000 0.34760  0.00230  0.69720  Biso   1.000  N
  C234     1.0000 0.37900  0.01250  0.63390  Biso   1.000  C
  H147     1.0000 0.44640  0.01780  0.61920  Biso   1.000  H
  C235     1.0000 0.26590  0.01150  0.59940  Biso   1.000  C
  H148     1.0000 0.26150  0.01780  0.55900  Biso   1.000  H
  C236     1.0000 0.17290  0.00140  0.62860  Biso   1.000  C
  C237     1.0000 0.17490  0.99240  0.68260  Biso   1.000  C
  H149     1.0000 0.11100  0.98500  0.69890  Biso   1.000  H
  C238     1.0000 0.25630  0.99260  0.71560  Biso   1.000  C
  H150     1.0000 0.25090  0.98550  0.75530  Biso   1.000  H
  Cl12     1.0000 0.64590  0.92470  0.06560  Biso   1.000  Cl
  C239     1.0000 0.58110  0.92349  0.99730  Biso   1.000  C
  H151     1.0000 0.62800  0.92710  0.96220  Biso   1.000  H
  Cl13     1.0000 0.67050  0.92940  0.94830  Biso   1.000  Cl
  H152     1.0000 0.61630  0.92930  0.03560  Biso   1.000  H
  Cl14     1.0000 0.42490  0.93293  0.92198  Biso   1.000  Cl
  Cl15     1.0000 0.39070  0.93137  0.04930  Biso   1.000  Cl
  C240     1.0000 0.48560  0.94005  0.99700  Biso   1.000  C
  H153     1.0000 0.50350  0.96110  0.00040  Biso   1.000  H
  Fe7      1.0000 0.00777  0.50058  0.74948  Biso   1.000  Fe
  Fe8      1.0000 0.35124  0.25503  0.01041  Biso   1.000  Fe
  S22      1.0000 0.64290  0.32385  0.02080  Biso   1.000  S
  N91      1.0000 0.47700  0.28184  0.00880  Biso   1.000  N
  C241     1.0000 0.54750  0.30000  0.01330  Biso   1.000  C
  N92      1.0000 0.21920  0.22915  0.01590  Biso   1.000  N
  S23      1.0000 0.06010  0.18791  0.02990  Biso   1.000  S
  C242     1.0000 0.14730  0.21390  0.01800  Biso   1.000  C
  C243     1.0000 0.15440  0.32680  0.79830  Biso   1.000  C
  N93      1.0000 0.10480  0.30803  0.75550  Biso   1.000  N
  C244     1.0000 0.06680  0.32150  0.70800  Biso   1.000  C
  N94      1.0000 0.04860  0.35198  0.70790  Biso   1.000  N
  C245     1.0000 0.08410  0.36580  0.75040  Biso   1.000  C
  N95      1.0000 0.12950  0.35259  0.80100  Biso   1.000  N
  N96      1.0000 0.27900  0.28273  0.94030  Biso   1.000  N
  C246     1.0000 0.21160  0.26900  0.90490  Biso   1.000  C
  H154     1.0000 0.19310  0.24940  0.91210  Biso   1.000  H
  C247     1.0000 0.17330  0.28240  0.86220  Biso   1.000  C
  H155     1.0000 0.13010  0.27140  0.83580  Biso   1.000  H
  C248     1.0000 0.18510  0.31103  0.84820  Biso   1.000  C
  C249     1.0000 0.24760  0.32383  0.88930  Biso   1.000  C
  H156     1.0000 0.25720  0.34430  0.88790  Biso   1.000  H
  C250     1.0000 0.29590  0.30878  0.93130  Biso   1.000  C
  H157     1.0000 0.34620  0.31840  0.95600  Biso   1.000  H
  N97      1.0000 0.92510  0.27237  0.57390  Biso   1.000  N
  C251     1.0000 0.01270  0.26090  0.61250  Biso   1.000  C
  H158     1.0000 0.04240  0.24240  0.60420  Biso   1.000  H
  C252     1.0000 0.04800  0.27570  0.65630  Biso   1.000  C
  H159     1.0000 0.09650  0.26710  0.68360  Biso   1.000  H
  C253     1.0000 0.01510  0.30552  0.66500  Biso   1.000  C
  C254     1.0000 0.95050  0.31619  0.62370  Biso   1.000  C
  H160     1.0000 0.93890  0.33650  0.62330  Biso   1.000  H
  C255     1.0000 0.90130  0.30037  0.58300  Biso   1.000  C
  H161     1.0000 0.84730  0.30910  0.55930  Biso   1.000  H
  N98      1.0000 0.04160  0.45377  0.74980  Biso   1.000  N
  C256     1.0000 0.03080  0.44030  0.70450  Biso   1.000  C
  H162     1.0000 0.00800  0.44980  0.66900  Biso   1.000  H
  C257     1.0000 0.05110  0.41115  0.70400  Biso   1.000  C
  H163     1.0000 0.04190  0.40140  0.66700  Biso   1.000  H
  C258     1.0000 0.08140  0.39573  0.74850  Biso   1.000  C
  C259     1.0000 0.09370  0.41347  0.80190  Biso   1.000  C
  H164     1.0000 0.11300  0.40450  0.83860  Biso   1.000  H
  C260     1.0000 0.07870  0.44170  0.80030  Biso   1.000  C
  H165     1.0000 0.09390  0.45330  0.83430  Biso   1.000  H
  N99      1.0000 0.12720  0.35380  0.21280  Biso   1.000  N
  C261     1.0000 0.13140  0.32291  0.21690  Biso   1.000  C
  N100     1.0000 0.09860  0.30835  0.26640  Biso   1.000  N
  C262     1.0000 0.04620  0.32186  0.30410  Biso   1.000  C
  N101     1.0000 0.02050  0.34896  0.30320  Biso   1.000  N
  C263     1.0000 0.07030  0.36514  0.25850  Biso   1.000  C
  N102     1.0000 0.29800  0.27996  0.08410  Biso   1.000  N
  C264     1.0000 0.25650  0.26710  0.12520  Biso   1.000  C
  H166     1.0000 0.26380  0.24660  0.12530  Biso   1.000  H
  C265     1.0000 0.19390  0.28020  0.17680  Biso   1.000  C
  H167     1.0000 0.15640  0.26910  0.20540  Biso   1.000  H
  C266     1.0000 0.19790  0.31008  0.17710  Biso   1.000  C
  C267     1.0000 0.24950  0.32318  0.13450  Biso   1.000  C
  H168     1.0000 0.25320  0.34380  0.13420  Biso   1.000  H
  C268     1.0000 0.29930  0.30740  0.08950  Biso   1.000  C
  H169     1.0000 0.33750  0.31810  0.06040  Biso   1.000  H
  N103     1.0000 0.90480  0.27222  0.43970  Biso   1.000  N
  C269     1.0000 0.98320  0.26209  0.39920  Biso   1.000  C
  H170     1.0000 0.01120  0.24320  0.40500  Biso   1.000  H
  C270     1.0000 0.01610  0.27643  0.35760  Biso   1.000  C
  H171     1.0000 0.05650  0.26650  0.32830  Biso   1.000  H
  C271     1.0000 0.00040  0.30510  0.34930  Biso   1.000  C
  C272     1.0000 0.92040  0.31630  0.38920  Biso   1.000  C
  H172     1.0000 0.89600  0.33570  0.38570  Biso   1.000  H
  C273     1.0000 0.88140  0.29867  0.43120  Biso   1.000  C
  H173     1.0000 0.83070  0.30680  0.45740  Biso   1.000  H
  N104     1.0000 0.01270  0.45490  0.25200  Biso   1.000  N
  C274     1.0000 0.06080  0.43901  0.20760  Biso   1.000  C
  H174     1.0000 0.08330  0.44910  0.17290  Biso   1.000  H
  C275     1.0000 0.07780  0.41084  0.20990  Biso   1.000  C
  H175     1.0000 0.11010  0.40180  0.17650  Biso   1.000  H
  C276     1.0000 0.05280  0.39485  0.25510  Biso   1.000  C
  C277     1.0000 0.99960  0.40720  0.30510  Biso   1.000  C
  H176     1.0000 0.97590  0.39610  0.33820  Biso   1.000  H
  C278     1.0000 0.98590  0.43710  0.30060  Biso   1.000  C
  H177     1.0000 0.95510  0.44650  0.33400  Biso   1.000  H
  Cl16     1.0000 0.95330  0.38396  0.49050  Biso   1.000  Cl
  S24      1.0000 0.63280  0.31836  0.97500  Biso   1.000  S
  S25      1.0000 0.88040  0.47926  0.93950  Biso   1.000  S
  C279     1.0000 0.87470  0.49030  0.86840  Biso   1.000  C
  N105     1.0000 0.91770  0.49610  0.83070  Biso   1.000  N
  N106     1.0000 0.12670  0.50810  0.81980  Biso   1.000  N
  C280     1.0000 0.13200  0.51990  0.86050  Biso   1.000  C
  S26      1.0000 0.15490  0.53555  0.92830  Biso   1.000  S
  C281     1.0000 0.42890  0.49840  0.59670  Biso   1.000  C
  N107     1.0000 0.50390  0.49470  0.62360  Biso   1.000  N
  C282     1.0000 0.58270  0.47700  0.60700  Biso   1.000  C
  N108     1.0000 0.59850  0.49290  0.52840  Biso   1.000  N
  C283     1.0000 0.51010  0.49160  0.49500  Biso   1.000  C
  N109     1.0000 0.41850  0.49980  0.52680  Biso   1.000  N
  N110     1.0000 0.13850  0.50650  0.69160  Biso   1.000  N
  C284     1.0000 0.23490  0.49850  0.71700  Biso   1.000  C
  H178     1.0000 0.23900  0.49390  0.75830  Biso   1.000  H
  C285     1.0000 0.32540  0.49720  0.68200  Biso   1.000  C
  H179     1.0000 0.39130  0.49170  0.69940  Biso   1.000  H
  C286     1.0000 0.31960  0.50390  0.62150  Biso   1.000  C
  C287     1.0000 0.22310  0.51190  0.59610  Biso   1.000  C
  H180     1.0000 0.21910  0.51650  0.55480  Biso   1.000  H
  C288     1.0000 0.13260  0.51330  0.63110  Biso   1.000  C
  H181     1.0000 0.06670  0.51870  0.61370  Biso   1.000  H
  N111     1.0000 0.86590  0.49650  0.69420  Biso   1.000  N
  C289     1.0000 0.76960  0.48810  0.71840  Biso   1.000  C
  H182     1.0000 0.76400  0.48480  0.76020  Biso   1.000  H
  C290     1.0000 0.68150  0.48440  0.68160  Biso   1.000  C
  H183     1.0000 0.61570  0.47860  0.69820  Biso   1.000  H
  C291     1.0000 0.68970  0.48910  0.62050  Biso   1.000  C
  C292     1.0000 0.78610  0.49760  0.59620  Biso   1.000  C
  H184     1.0000 0.79170  0.50090  0.55450  Biso   1.000  H
  C293     1.0000 0.87420  0.50130  0.63310  Biso   1.000  C
  H185     1.0000 0.94000  0.50710  0.61650  Biso   1.000  H
  N112     1.0000 0.51960  0.50522  0.31950  Biso   1.000  N
  C294     1.0000 0.60770  0.49457  0.35000  Biso   1.000  C
  H186     1.0000 0.67270  0.49190  0.32950  Biso   1.000  H
  C295     1.0000 0.60070  0.48788  0.41040  Biso   1.000  C
  H187     1.0000 0.66090  0.48060  0.43120  Biso   1.000  H
  C296     1.0000 0.50560  0.49184  0.44030  Biso   1.000  C
  C297     1.0000 0.41740  0.50250  0.40990  Biso   1.000  C
  H188     1.0000 0.35240  0.50520  0.43040  Biso   1.000  H
  C298     1.0000 0.42440  0.50919  0.34950  Biso   1.000  C
  H189     1.0000 0.36420  0.51650  0.32870  Biso   1.000  H
  N113     1.0000 0.90640  0.49491  0.67750  Biso   1.000  N
  C299     1.0000 0.87490  0.49185  0.62870  Biso   1.000  C
  S27      1.0000 0.84520  0.47937  0.56040  Biso   1.000  S
  N114     1.0000 0.10160  0.49902  0.67529  Biso   1.000  N
  C300     1.0000 0.13210  0.49718  0.62780  Biso   1.000  C
  S28      1.0000 0.13250  0.48488  0.55697  Biso   1.000  S
  C301     1.0000 0.60130  0.49930  0.91000  Biso   1.000  C
  N115     1.0000 0.60000  0.50110  0.97190  Biso   1.000  N
  C302     1.0000 0.50410  0.50340  0.00180  Biso   1.000  C
  N116     1.0000 0.40940  0.50390  0.96970  Biso   1.000  N
  C303     1.0000 0.41070  0.50210  0.90770  Biso   1.000  C
  N117     1.0000 0.50660  0.49990  0.87790  Biso   1.000  N
  N118     1.0000 0.87550  0.49460  0.80940  Biso   1.000  N
  C304     1.0000 0.88200  0.48810  0.86990  Biso   1.000  C
  H190     1.0000 0.94760  0.48210  0.88690  Biso   1.000  H
  C305     1.0000 0.79250  0.49030  0.90560  Biso   1.000  C
  H191     1.0000 0.79690  0.48580  0.94690  Biso   1.000  H
  C306     1.0000 0.69650  0.49910  0.88070  Biso   1.000  C
  C307     1.0000 0.69000  0.50570  0.82020  Biso   1.000  C
  H192     1.0000 0.62430  0.51170  0.80320  Biso   1.000  H
  C308     1.0000 0.77940  0.50340  0.78450  Biso   1.000  C
  H193     1.0000 0.77500  0.50790  0.74320  Biso   1.000  H
  N119     1.0000 0.49800  0.49150  0.18240  Biso   1.000  N
  C309     1.0000 0.59070  0.48860  0.14970  Biso   1.000  C
  H194     1.0000 0.65680  0.48630  0.16980  Biso   1.000  H
  C310     1.0000 0.58680  0.48910  0.08770  Biso   1.000  C
  H195     1.0000 0.65020  0.48710  0.06530  Biso   1.000  H
  C311     1.0000 0.49020  0.49250  0.05830  Biso   1.000  C
  C312     1.0000 0.39750  0.49540  0.09100  Biso   1.000  C
  H196     1.0000 0.33140  0.49770  0.07100  Biso   1.000  H
  C313     1.0000 0.40130  0.49490  0.15310  Biso   1.000  C
  H197     1.0000 0.33800  0.49690  0.17540  Biso   1.000  H
  N120     1.0000 0.15240  0.50230  0.80280  Biso   1.000  N
  C314     1.0000 0.12100  0.51250  0.86610  Biso   1.000  C
  H198     1.0000 0.05360  0.51780  0.88080  Biso   1.000  H
  C315     1.0000 0.23410  0.51150  0.90060  Biso   1.000  C
  H199     1.0000 0.23850  0.51780  0.94100  Biso   1.000  H
  C316     1.0000 0.32710  0.50140  0.87140  Biso   1.000  C
  C317     1.0000 0.32510  0.49240  0.81740  Biso   1.000  C
  H200     1.0000 0.38900  0.48500  0.80110  Biso   1.000  H
  C318     1.0000 0.24370  0.49260  0.78440  Biso   1.000  C
  H201     1.0000 0.24910  0.48550  0.74470  Biso   1.000  H
  Cl17     1.0000 0.85410  0.42470  0.43440  Biso   1.000  Cl
  C319     1.0000 0.91890  0.42349  0.50270  Biso   1.000  C
  H202     1.0000 0.87200  0.42710  0.53780  Biso   1.000  H
  Cl18     1.0000 0.82950  0.42940  0.55170  Biso   1.000  Cl
  H203     1.0000 0.88370  0.42930  0.46440  Biso   1.000  H
  Cl19     1.0000 0.07510  0.43293  0.57802  Biso   1.000  Cl
  Cl20     1.0000 0.10930  0.43137  0.45070  Biso   1.000  Cl
  C320     1.0000 0.01440  0.44005  0.50300  Biso   1.000  C
  H204     1.0000 0.99650  0.46110  0.49960  Biso   1.000  H
