data_image0
_cell_length_a       12.8701
_cell_length_b       46.966
_cell_length_c       22.725
_cell_angle_alpha    90
_cell_angle_beta     90.352
_cell_angle_gamma    90

_symmetry_space_group_name_H-M    "P 1"
_symmetry_int_tables_number       1

loop_
  _symmetry_equiv_pos_as_xyz
  'x, y, z'

loop_
  _atom_site_label
  _atom_site_occupancy
  _atom_site_fract_x
  _atom_site_fract_y
  _atom_site_fract_z
  _atom_site_thermal_displace_type
  _atom_site_B_iso_or_equiv
  _atom_site_type_symbol
  Co1      1.0000 0.50257  0.99982  0.24915  Biso   1.000  Co
  Co2      1.0000 0.84686  0.24522  0.50749  Biso   1.000  Co
  S1       1.0000 0.13600  0.17682  0.51660  Biso   1.000  S
  N1       1.0000 0.97270  0.21880  0.50760  Biso   1.000  N
  C1       1.0000 0.03050  0.20380  0.51120  Biso   1.000  C
  N2       1.0000 0.71690  0.27020  0.51270  Biso   1.000  N
  S2       1.0000 0.56020  0.31020  0.52360  Biso   1.000  S
  C2       1.0000 0.64590  0.28320  0.51530  Biso   1.000  C
  N3       1.0000 0.40690  0.00320  0.17680  Biso   1.000  N
  C3       1.0000 0.37790  0.00940  0.12960  Biso   1.000  C
  S3       1.0000 0.35260  0.02440  0.06320  Biso   1.000  S
  N4       1.0000 0.60040  0.99770  0.17480  Biso   1.000  N
  C4       1.0000 0.71510  0.01490  0.18320  Biso   1.000  C
  C5       1.0000 0.64450  0.17440  0.29930  Biso   1.000  C
  N5       1.0000 0.60170  0.19150  0.25190  Biso   1.000  N
  C6       1.0000 0.54660  0.17880  0.21280  Biso   1.000  C
  N6       1.0000 0.54590  0.14950  0.20570  Biso   1.000  N
  C7       1.0000 0.57650  0.13530  0.25520  Biso   1.000  C
  N7       1.0000 0.63430  0.14690  0.29740  Biso   1.000  N
  N8       1.0000 0.77990  0.21810  0.43760  Biso   1.000  N
  C8       1.0000 0.71100  0.23190  0.40330  Biso   1.000  C
  H1       1.0000 0.69350  0.25110  0.41120  Biso   1.000  H
  C9       1.0000 0.66560  0.21750  0.35590  Biso   1.000  C
  H2       1.0000 0.61940  0.22740  0.33040  Biso   1.000  H
  C10      1.0000 0.68620  0.18960  0.34570  Biso   1.000  C
  C11      1.0000 0.75920  0.17550  0.38470  Biso   1.000  C
  H3       1.0000 0.78130  0.15640  0.37860  Biso   1.000  H
  C12      1.0000 0.79510  0.19220  0.43250  Biso   1.000  C
  H4       1.0000 0.83360  0.18290  0.46270  Biso   1.000  H
  N9       1.0000 0.42380  0.22820  0.07350  Biso   1.000  N
  C13      1.0000 0.49870  0.23760  0.11290  Biso   1.000  C
  H5       1.0000 0.52210  0.25670  0.10800  Biso   1.000  H
  C14      1.0000 0.54100  0.22310  0.15620  Biso   1.000  C
  H6       1.0000 0.59250  0.23140  0.18100  Biso   1.000  H
  C15      1.0000 0.50770  0.19530  0.16460  Biso   1.000  C
  C16      1.0000 0.43380  0.18480  0.12750  Biso   1.000  C
  H7       1.0000 0.40590  0.16630  0.13410  Biso   1.000  H
  C17      1.0000 0.39860  0.20080  0.07980  Biso   1.000  C
  H8       1.0000 0.35560  0.19200  0.05100  Biso   1.000  H
  N10      1.0000 0.52330  0.04625  0.25290  Biso   1.000  N
  C18      1.0000 0.53540  0.06120  0.19940  Biso   1.000  C
  H9       1.0000 0.53620  0.05130  0.16290  Biso   1.000  H
  C19      1.0000 0.54540  0.08910  0.20120  Biso   1.000  C
  H10      1.0000 0.53570  0.09940  0.16560  Biso   1.000  H
  C20      1.0000 0.56960  0.10470  0.25230  Biso   1.000  C
  C21      1.0000 0.59870  0.08650  0.29940  Biso   1.000  C
  H11      1.0000 0.62960  0.09440  0.33370  Biso   1.000  H
  C22      1.0000 0.58410  0.05920  0.29660  Biso   1.000  C
  H12      1.0000 0.61600  0.04750  0.32560  Biso   1.000  H
  N11      1.0000 0.62070  0.14730  0.71310  Biso   1.000  N
  C23      1.0000 0.63240  0.17640  0.71840  Biso   1.000  C
  N12      1.0000 0.60200  0.19190  0.76280  Biso   1.000  N
  C24      1.0000 0.53620  0.17750  0.80210  Biso   1.000  C
  N13      1.0000 0.51090  0.15060  0.79820  Biso   1.000  N
  C25      1.0000 0.56700  0.13550  0.75720  Biso   1.000  C
  N14      1.0000 0.78300  0.22090  0.58070  Biso   1.000  N
  C26      1.0000 0.73740  0.23450  0.62370  Biso   1.000  C
  H13      1.0000 0.73420  0.25470  0.62340  Biso   1.000  H
  C27      1.0000 0.69480  0.21970  0.66870  Biso   1.000  C
  H14      1.0000 0.66900  0.23050  0.70080  Biso   1.000  H
  C28      1.0000 0.68500  0.19050  0.67250  Biso   1.000  C
  C29      1.0000 0.73530  0.17740  0.62770  Biso   1.000  C
  H15      1.0000 0.73270  0.15720  0.62510  Biso   1.000  H
  C30      1.0000 0.78980  0.19220  0.58590  Biso   1.000  C
  H16      1.0000 0.83350  0.18200  0.55980  Biso   1.000  H
  N15      1.0000 0.40360  0.22690  0.93730  Biso   1.000  N
  C31      1.0000 0.47920  0.23970  0.90200  Biso   1.000  C
  H17      1.0000 0.50700  0.25800  0.91050  Biso   1.000  H
  C32      1.0000 0.51130  0.22370  0.85300  Biso   1.000  C
  H18      1.0000 0.55140  0.23210  0.82260  Biso   1.000  H
  C33      1.0000 0.48330  0.19580  0.85040  Biso   1.000  C
  C34      1.0000 0.42430  0.18230  0.88970  Biso   1.000  C
  H19      1.0000 0.42090  0.16210  0.89200  Biso   1.000  H
  C35      1.0000 0.36340  0.20160  0.93010  Biso   1.000  C
  N16      1.0000 0.52280  0.04584  0.75380  Biso   1.000  N
  C36      1.0000 0.55180  0.06030  0.70540  Biso   1.000  C
  H20      1.0000 0.56310  0.05020  0.66980  Biso   1.000  H
  C37      1.0000 0.56550  0.08960  0.70620  Biso   1.000  C
  H21      1.0000 0.58740  0.09910  0.67140  Biso   1.000  H
  C38      1.0000 0.54910  0.10410  0.75300  Biso   1.000  C
  C39      1.0000 0.49110  0.09130  0.80150  Biso   1.000  C
  H22      1.0000 0.45310  0.10190  0.82980  Biso   1.000  H
  C40      1.0000 0.49860  0.06180  0.80070  Biso   1.000  C
  H23      1.0000 0.48550  0.05210  0.83660  Biso   1.000  H
  Cl1      1.0000 0.59780  0.06669  0.05260  Biso   1.000  Cl
  Cl2      1.0000 0.58990  0.07098  0.92400  Biso   1.000  Cl
  Cl3      1.0000 0.33470  0.07904  0.93530  Biso   1.000  Cl
  Cl4      1.0000 0.34840  0.07180  0.05280  Biso   1.000  Cl
  C41      1.0000 0.42070  0.07845  0.99580  Biso   1.000  C
  C42      1.0000 0.51310  0.06152  0.98460  Biso   1.000  C
  S4       1.0000 0.38670  0.01800  0.44310  Biso   1.000  S
  C43      1.0000 0.39700  0.01040  0.36820  Biso   1.000  C
  N17      1.0000 0.41400  0.00400  0.32670  Biso   1.000  N
  N18      1.0000 0.60420  0.99250  0.32230  Biso   1.000  N
  C44      1.0000 0.62500  0.98230  0.36030  Biso   1.000  C
  S5       1.0000 0.64140  0.96640  0.43150  Biso   1.000  S
  C45      1.0000 0.08500  0.99260  0.40990  Biso   1.000  C
  N19      1.0000 0.09490  0.00180  0.46870  Biso   1.000  N
  C46      1.0000 0.99800  0.99750  0.50200  Biso   1.000  C
  N20      1.0000 0.91240  0.99460  0.46930  Biso   1.000  N
  C47      1.0000 0.91600  0.99910  0.40890  Biso   1.000  C
  N21      1.0000 0.00260  0.99630  0.37850  Biso   1.000  N
  N22      1.0000 0.36740  0.00410  0.30820  Biso   1.000  N
  C48      1.0000 0.37410  0.00980  0.36810  Biso   1.000  C
  H24      1.0000 0.43940  0.01420  0.38560  Biso   1.000  H
  C49      1.0000 0.28520  0.00920  0.40250  Biso   1.000  C
  H25      1.0000 0.28970  0.01310  0.44340  Biso   1.000  H
  C50      1.0000 0.18960  0.00280  0.37700  Biso   1.000  C
  C51      1.0000 0.18290  0.99700  0.31710  Biso   1.000  C
  H26      1.0000 0.11750  0.99270  0.29960  Biso   1.000  H
  C52      1.0000 0.27180  0.99770  0.28270  Biso   1.000  C
  H27      1.0000 0.26730  0.99380  0.24170  Biso   1.000  H
  N23      1.0000 0.99140  0.00920  0.68300  Biso   1.000  N
  C53      1.0000 0.08500  0.01270  0.65360  Biso   1.000  C
  H28      1.0000 0.14630  0.01720  0.67500  Biso   1.000  H
  C54      1.0000 0.08870  0.00940  0.59280  Biso   1.000  C
  H29      1.0000 0.15260  0.01180  0.57270  Biso   1.000  H
  C55      1.0000 0.99890  0.00270  0.56150  Biso   1.000  C
  C56      1.0000 0.90530  0.99920  0.59090  Biso   1.000  C
  H30      1.0000 0.84400  0.99470  0.56950  Biso   1.000  H
  C57      1.0000 0.90160  0.00250  0.65160  Biso   1.000  C
  H31      1.0000 0.83770  0.00010  0.67170  Biso   1.000  H
  N24      1.0000 0.64510  0.99580  0.30920  Biso   1.000  N
  C58      1.0000 0.63000  0.98900  0.36580  Biso   1.000  C
  H32      1.0000 0.56450  0.98500  0.38330  Biso   1.000  H
  C59      1.0000 0.72610  0.98870  0.39470  Biso   1.000  C
  H33      1.0000 0.72910  0.98090  0.43330  Biso   1.000  H
  C60      1.0000 0.81580  0.99900  0.37140  Biso   1.000  C
  C61      1.0000 0.82100  0.00490  0.31960  Biso   1.000  C
  H34      1.0000 0.88640  0.00750  0.30090  Biso   1.000  H
  C62      1.0000 0.72650  0.00770  0.28820  Biso   1.000  C
  H35      1.0000 0.72320  0.01820  0.25250  Biso   1.000  H
  C63      1.0000 0.91430  0.00210  0.09080  Biso   1.000  C
  N25      1.0000 0.00710  0.00540  0.12170  Biso   1.000  N
  C64      1.0000 0.10020  0.00790  0.09150  Biso   1.000  C
  N26      1.0000 0.10060  0.00710  0.03030  Biso   1.000  N
  C65      1.0000 0.00790  0.00390  0.99940  Biso   1.000  C
  N27      1.0000 0.91470  0.00140  0.02960  Biso   1.000  N
  N28      1.0000 0.63810  0.99800  0.18890  Biso   1.000  N
  C66      1.0000 0.73420  0.99640  0.21700  Biso   1.000  C
  H36      1.0000 0.73780  0.99530  0.25870  Biso   1.000  H
  C67      1.0000 0.82490  0.99640  0.18420  Biso   1.000  C
  H37      1.0000 0.89050  0.99530  0.20340  Biso   1.000  H
  C68      1.0000 0.81960  0.99810  0.12320  Biso   1.000  C
  C69      1.0000 0.72360  0.99970  0.09500  Biso   1.000  C
  H38      1.0000 0.72000  0.00090  0.05330  Biso   1.000  H
  C70      1.0000 0.63290  0.99970  0.12790  Biso   1.000  C
  H39      1.0000 0.56730  0.00080  0.10860  Biso   1.000  H
  N29      1.0000 0.36340  0.00340  0.19340  Biso   1.000  N
  C71      1.0000 0.27110  0.01350  0.21710  Biso   1.000  C
  H40      1.0000 0.26920  0.01970  0.25690  Biso   1.000  H
  C72      1.0000 0.18160  0.01450  0.18260  Biso   1.000  C
  H41      1.0000 0.11860  0.02140  0.19880  Biso   1.000  H
  C73      1.0000 0.18440  0.00550  0.12440  Biso   1.000  C
  C74      1.0000 0.27670  0.99540  0.10070  Biso   1.000  C
  H42      1.0000 0.27860  0.98920  0.06090  Biso   1.000  H
  C75      1.0000 0.36610  0.99440  0.13520  Biso   1.000  C
  H43      1.0000 0.42920  0.98750  0.11900  Biso   1.000  H
  N30      1.0000 0.02220  0.99910  0.82250  Biso   1.000  N
  C76      1.0000 0.10990  0.00710  0.85450  Biso   1.000  C
  H44      1.0000 0.17440  0.00960  0.83500  Biso   1.000  H
  C77      1.0000 0.10320  0.01150  0.91480  Biso   1.000  C
  H45      1.0000 0.16310  0.01690  0.93660  Biso   1.000  H
  C78      1.0000 0.00880  0.00782  0.94320  Biso   1.000  C
  C79      1.0000 0.92110  0.99979  0.91130  Biso   1.000  C
  H46      1.0000 0.85660  0.99730  0.93070  Biso   1.000  H
  C80      1.0000 0.92780  0.99540  0.85090  Biso   1.000  C
  H47      1.0000 0.86790  0.98990  0.82910  Biso   1.000  H
  S6       1.0000 0.63740  0.01549  0.05920  Biso   1.000  S
  Cl5      1.0000 0.45380  0.11807  0.98360  Biso   1.000  Cl
  Co3      1.0000 0.99743  0.49982  0.25085  Biso   1.000  Co
  Co4      1.0000 0.65314  0.74522  0.99251  Biso   1.000  Co
  S7       1.0000 0.36400  0.67682  0.98340  Biso   1.000  S
  N31      1.0000 0.52730  0.71880  0.99240  Biso   1.000  N
  C81      1.0000 0.46950  0.70380  0.98880  Biso   1.000  C
  N32      1.0000 0.78310  0.77020  0.98730  Biso   1.000  N
  S8       1.0000 0.93980  0.81020  0.97640  Biso   1.000  S
  C82      1.0000 0.85410  0.78320  0.98470  Biso   1.000  C
  N33      1.0000 0.09310  0.50320  0.32320  Biso   1.000  N
  C83      1.0000 0.12210  0.50940  0.37040  Biso   1.000  C
  S9       1.0000 0.14740  0.52440  0.43680  Biso   1.000  S
  N34      1.0000 0.89960  0.49770  0.32520  Biso   1.000  N
  C84      1.0000 0.78490  0.51490  0.31680  Biso   1.000  C
  C85      1.0000 0.85550  0.67440  0.20070  Biso   1.000  C
  N35      1.0000 0.89830  0.69150  0.24810  Biso   1.000  N
  C86      1.0000 0.95340  0.67880  0.28720  Biso   1.000  C
  N36      1.0000 0.95410  0.64950  0.29430  Biso   1.000  N
  C87      1.0000 0.92350  0.63530  0.24480  Biso   1.000  C
  N37      1.0000 0.86570  0.64690  0.20260  Biso   1.000  N
  N38      1.0000 0.72010  0.71810  0.06240  Biso   1.000  N
  C88      1.0000 0.78900  0.73190  0.09670  Biso   1.000  C
  H48      1.0000 0.80650  0.75110  0.08880  Biso   1.000  H
  C89      1.0000 0.83440  0.71750  0.14410  Biso   1.000  C
  H49      1.0000 0.88060  0.72740  0.16960  Biso   1.000  H
  C90      1.0000 0.81380  0.68960  0.15430  Biso   1.000  C
  C91      1.0000 0.74080  0.67550  0.11530  Biso   1.000  C
  H50      1.0000 0.71870  0.65640  0.12140  Biso   1.000  H
  C92      1.0000 0.70490  0.69220  0.06750  Biso   1.000  C
  H51      1.0000 0.66640  0.68290  0.03730  Biso   1.000  H
  N39      1.0000 0.07620  0.72820  0.42650  Biso   1.000  N
  C93      1.0000 0.00130  0.73760  0.38710  Biso   1.000  C
  H52      1.0000 0.97790  0.75670  0.39200  Biso   1.000  H
  C94      1.0000 0.95900  0.72310  0.34380  Biso   1.000  C
  H53      1.0000 0.90750  0.73140  0.31900  Biso   1.000  H
  C95      1.0000 0.99230  0.69530  0.33540  Biso   1.000  C
  C96      1.0000 0.06620  0.68480  0.37250  Biso   1.000  C
  H54      1.0000 0.09410  0.66630  0.36590  Biso   1.000  H
  C97      1.0000 0.10140  0.70080  0.42020  Biso   1.000  C
  H55      1.0000 0.14440  0.69200  0.44900  Biso   1.000  H
  N40      1.0000 0.97670  0.54625  0.24710  Biso   1.000  N
  C98      1.0000 0.96460  0.56120  0.30060  Biso   1.000  C
  H56      1.0000 0.96380  0.55130  0.33710  Biso   1.000  H
  C99      1.0000 0.95460  0.58910  0.29880  Biso   1.000  C
  H57      1.0000 0.96430  0.59940  0.33440  Biso   1.000  H
  C100     1.0000 0.93040  0.60470  0.24770  Biso   1.000  C
  C101     1.0000 0.90130  0.58650  0.20060  Biso   1.000  C
  H58      1.0000 0.87040  0.59440  0.16630  Biso   1.000  H
  C102     1.0000 0.91590  0.55920  0.20340  Biso   1.000  C
  H59      1.0000 0.88400  0.54750  0.17440  Biso   1.000  H
  N41      1.0000 0.87930  0.64730  0.78690  Biso   1.000  N
  C103     1.0000 0.86760  0.67640  0.78160  Biso   1.000  C
  N42      1.0000 0.89800  0.69190  0.73720  Biso   1.000  N
  C104     1.0000 0.96380  0.67750  0.69790  Biso   1.000  C
  N43      1.0000 0.98910  0.65060  0.70180  Biso   1.000  N
  C105     1.0000 0.93300  0.63550  0.74280  Biso   1.000  C
  N44      1.0000 0.71700  0.72090  0.91930  Biso   1.000  N
  C106     1.0000 0.76260  0.73450  0.87630  Biso   1.000  C
  H60      1.0000 0.76580  0.75470  0.87660  Biso   1.000  H
  C107     1.0000 0.80520  0.71970  0.83130  Biso   1.000  C
  H61      1.0000 0.83100  0.73050  0.79920  Biso   1.000  H
  C108     1.0000 0.81500  0.69050  0.82750  Biso   1.000  C
  C109     1.0000 0.76470  0.67740  0.87230  Biso   1.000  C
  H62      1.0000 0.76730  0.65720  0.87490  Biso   1.000  H
  C110     1.0000 0.71020  0.69220  0.91410  Biso   1.000  C
  H63      1.0000 0.66650  0.68200  0.94020  Biso   1.000  H
  N45      1.0000 0.09640  0.72690  0.56270  Biso   1.000  N
  C111     1.0000 0.02080  0.73970  0.59800  Biso   1.000  C
  H64      1.0000 0.99300  0.75800  0.58950  Biso   1.000  H
  C112     1.0000 0.98870  0.72370  0.64700  Biso   1.000  C
  H65      1.0000 0.94860  0.73210  0.67740  Biso   1.000  H
  C113     1.0000 0.01670  0.69580  0.64960  Biso   1.000  C
  C114     1.0000 0.07570  0.68230  0.61030  Biso   1.000  C
  H66      1.0000 0.07910  0.66210  0.60800  Biso   1.000  H
  C115     1.0000 0.13660  0.70160  0.56990  Biso   1.000  C
  N46      1.0000 0.97720  0.54584  0.74620  Biso   1.000  N
  C116     1.0000 0.94820  0.56030  0.79460  Biso   1.000  C
  H67      1.0000 0.93690  0.55020  0.83020  Biso   1.000  H
  C117     1.0000 0.93450  0.58960  0.79380  Biso   1.000  C
  H68      1.0000 0.91260  0.59910  0.82860  Biso   1.000  H
  C118     1.0000 0.95090  0.60410  0.74700  Biso   1.000  C
  C119     1.0000 0.00890  0.59130  0.69850  Biso   1.000  C
  H69      1.0000 0.04690  0.60190  0.67020  Biso   1.000  H
  C120     1.0000 0.00140  0.56180  0.69930  Biso   1.000  C
  H70      1.0000 0.01450  0.55210  0.66340  Biso   1.000  H
  Cl6      1.0000 0.90220  0.56669  0.44740  Biso   1.000  Cl
  Cl7      1.0000 0.91010  0.57098  0.57600  Biso   1.000  Cl
  Cl8      1.0000 0.16530  0.57904  0.56470  Biso   1.000  Cl
  Cl9      1.0000 0.15160  0.57180  0.44720  Biso   1.000  Cl
  C121     1.0000 0.07930  0.57845  0.50420  Biso   1.000  C
  C122     1.0000 0.98690  0.56152  0.51540  Biso   1.000  C
  S10      1.0000 0.11330  0.51800  0.05690  Biso   1.000  S
  C123     1.0000 0.10300  0.51040  0.13180  Biso   1.000  C
  N47      1.0000 0.08600  0.50400  0.17330  Biso   1.000  N
  N48      1.0000 0.89580  0.49250  0.17770  Biso   1.000  N
  C124     1.0000 0.87500  0.48230  0.13970  Biso   1.000  C
  S11      1.0000 0.85860  0.46640  0.06850  Biso   1.000  S
  C125     1.0000 0.41500  0.49260  0.09010  Biso   1.000  C
  N49      1.0000 0.40510  0.50180  0.03130  Biso   1.000  N
  C126     1.0000 0.50200  0.49750  0.99800  Biso   1.000  C
  N50      1.0000 0.58760  0.49460  0.03070  Biso   1.000  N
  C127     1.0000 0.58400  0.49910  0.09110  Biso   1.000  C
  N51      1.0000 0.49740  0.49630  0.12150  Biso   1.000  N
  N52      1.0000 0.13260  0.50410  0.19180  Biso   1.000  N
  C128     1.0000 0.12590  0.50980  0.13190  Biso   1.000  C
  H71      1.0000 0.06060  0.51420  0.11440  Biso   1.000  H
  C129     1.0000 0.21480  0.50920  0.09750  Biso   1.000  C
  H72      1.0000 0.21030  0.51310  0.05660  Biso   1.000  H
  C130     1.0000 0.31040  0.50280  0.12300  Biso   1.000  C
  C131     1.0000 0.31710  0.49700  0.18290  Biso   1.000  C
  H73      1.0000 0.38250  0.49270  0.20040  Biso   1.000  H
  C132     1.0000 0.22820  0.49770  0.21730  Biso   1.000  C
  H74      1.0000 0.23270  0.49380  0.25830  Biso   1.000  H
  N53      1.0000 0.50860  0.50920  0.81700  Biso   1.000  N
  C133     1.0000 0.41500  0.51270  0.84640  Biso   1.000  C
  H75      1.0000 0.35370  0.51720  0.82500  Biso   1.000  H
  C134     1.0000 0.41130  0.50940  0.90720  Biso   1.000  C
  H76      1.0000 0.34740  0.51180  0.92730  Biso   1.000  H
  C135     1.0000 0.50110  0.50270  0.93850  Biso   1.000  C
  C136     1.0000 0.59470  0.49920  0.90910  Biso   1.000  C
  H77      1.0000 0.65600  0.49470  0.93050  Biso   1.000  H
  C137     1.0000 0.59840  0.50250  0.84840  Biso   1.000  C
  H78      1.0000 0.66230  0.50010  0.82830  Biso   1.000  H
  N54      1.0000 0.85490  0.49580  0.19080  Biso   1.000  N
  C138     1.0000 0.87000  0.48900  0.13420  Biso   1.000  C
  H79      1.0000 0.93550  0.48500  0.11670  Biso   1.000  H
  C139     1.0000 0.77390  0.48870  0.10530  Biso   1.000  C
  H80      1.0000 0.77090  0.48090  0.06670  Biso   1.000  H
  C140     1.0000 0.68420  0.49900  0.12860  Biso   1.000  C
  C141     1.0000 0.67900  0.50490  0.18040  Biso   1.000  C
  H81      1.0000 0.61360  0.50750  0.19910  Biso   1.000  H
  C142     1.0000 0.77350  0.50770  0.21180  Biso   1.000  C
  H82      1.0000 0.77680  0.51820  0.24750  Biso   1.000  H
  C143     1.0000 0.58570  0.50210  0.40920  Biso   1.000  C
  N55      1.0000 0.49290  0.50540  0.37830  Biso   1.000  N
  C144     1.0000 0.39980  0.50790  0.40850  Biso   1.000  C
  N56      1.0000 0.39940  0.50710  0.46970  Biso   1.000  N
  C145     1.0000 0.49210  0.50390  0.50060  Biso   1.000  C
  N57      1.0000 0.58530  0.50140  0.47040  Biso   1.000  N
  N58      1.0000 0.86190  0.49800  0.31110  Biso   1.000  N
  C146     1.0000 0.76580  0.49640  0.28300  Biso   1.000  C
  H83      1.0000 0.76220  0.49530  0.24130  Biso   1.000  H
  C147     1.0000 0.67510  0.49640  0.31580  Biso   1.000  C
  H84      1.0000 0.60950  0.49530  0.29660  Biso   1.000  H
  C148     1.0000 0.68040  0.49810  0.37680  Biso   1.000  C
  C149     1.0000 0.77640  0.49970  0.40500  Biso   1.000  C
  H85      1.0000 0.78000  0.50090  0.44670  Biso   1.000  H
  C150     1.0000 0.86710  0.49970  0.37210  Biso   1.000  C
  H86      1.0000 0.93270  0.50080  0.39140  Biso   1.000  H
  N59      1.0000 0.13660  0.50340  0.30660  Biso   1.000  N
  C151     1.0000 0.22890  0.51350  0.28290  Biso   1.000  C
  H87      1.0000 0.23080  0.51970  0.24310  Biso   1.000  H
  C152     1.0000 0.31840  0.51450  0.31740  Biso   1.000  C
  H88      1.0000 0.38140  0.52140  0.30120  Biso   1.000  H
  C153     1.0000 0.31560  0.50550  0.37560  Biso   1.000  C
  C154     1.0000 0.22330  0.49540  0.39930  Biso   1.000  C
  H89      1.0000 0.22140  0.48920  0.43910  Biso   1.000  H
  C155     1.0000 0.13390  0.49440  0.36480  Biso   1.000  C
  H90      1.0000 0.07080  0.48750  0.38100  Biso   1.000  H
  N60      1.0000 0.47780  0.49910  0.67750  Biso   1.000  N
  C156     1.0000 0.39010  0.50710  0.64550  Biso   1.000  C
  H91      1.0000 0.32560  0.50960  0.66500  Biso   1.000  H
  C157     1.0000 0.39680  0.51150  0.58520  Biso   1.000  C
  H92      1.0000 0.33690  0.51690  0.56340  Biso   1.000  H
  C158     1.0000 0.49120  0.50782  0.55680  Biso   1.000  C
  C159     1.0000 0.57890  0.49979  0.58870  Biso   1.000  C
  H93      1.0000 0.64340  0.49730  0.56930  Biso   1.000  H
  C160     1.0000 0.57220  0.49540  0.64910  Biso   1.000  C
  H94      1.0000 0.63210  0.48990  0.67090  Biso   1.000  H
  S12      1.0000 0.86260  0.51549  0.44080  Biso   1.000  S
  Cl10     1.0000 0.04620  0.61807  0.51640  Biso   1.000  Cl
  Co5      1.0000 0.49743  0.00018  0.75085  Biso   1.000  Co
  Co6      1.0000 0.15314  0.75478  0.49251  Biso   1.000  Co
  S13      1.0000 0.86400  0.82318  0.48340  Biso   1.000  S
  N61      1.0000 0.02730  0.78120  0.49240  Biso   1.000  N
  C161     1.0000 0.96950  0.79620  0.48880  Biso   1.000  C
  N62      1.0000 0.28310  0.72980  0.48730  Biso   1.000  N
  S14      1.0000 0.43980  0.68980  0.47640  Biso   1.000  S
  C162     1.0000 0.35410  0.71680  0.48470  Biso   1.000  C
  N63      1.0000 0.59310  0.99680  0.82320  Biso   1.000  N
  C163     1.0000 0.62210  0.99060  0.87040  Biso   1.000  C
  S15      1.0000 0.64740  0.97560  0.93680  Biso   1.000  S
  N64      1.0000 0.39960  0.00230  0.82520  Biso   1.000  N
  C164     1.0000 0.28490  0.98510  0.81680  Biso   1.000  C
  C165     1.0000 0.35550  0.82560  0.70070  Biso   1.000  C
  N65      1.0000 0.39830  0.80850  0.74810  Biso   1.000  N
  C166     1.0000 0.45340  0.82120  0.78720  Biso   1.000  C
  N66      1.0000 0.45410  0.85050  0.79430  Biso   1.000  N
  C167     1.0000 0.42350  0.86470  0.74480  Biso   1.000  C
  N67      1.0000 0.36570  0.85310  0.70260  Biso   1.000  N
  N68      1.0000 0.22010  0.78190  0.56240  Biso   1.000  N
  C168     1.0000 0.28900  0.76810  0.59670  Biso   1.000  C
  H95      1.0000 0.30650  0.74890  0.58880  Biso   1.000  H
  C169     1.0000 0.33440  0.78250  0.64410  Biso   1.000  C
  H96      1.0000 0.38060  0.77260  0.66960  Biso   1.000  H
  C170     1.0000 0.31380  0.81040  0.65430  Biso   1.000  C
  C171     1.0000 0.24080  0.82450  0.61530  Biso   1.000  C
  H97      1.0000 0.21870  0.84360  0.62140  Biso   1.000  H
  C172     1.0000 0.20490  0.80780  0.56750  Biso   1.000  C
  H98      1.0000 0.16640  0.81710  0.53730  Biso   1.000  H
  N69      1.0000 0.57620  0.77180  0.92650  Biso   1.000  N
  C173     1.0000 0.50130  0.76240  0.88710  Biso   1.000  C
  H99      1.0000 0.47790  0.74330  0.89200  Biso   1.000  H
  C174     1.0000 0.45900  0.77690  0.84380  Biso   1.000  C
  H100     1.0000 0.40750  0.76860  0.81900  Biso   1.000  H
  C175     1.0000 0.49230  0.80470  0.83540  Biso   1.000  C
  C176     1.0000 0.56620  0.81520  0.87250  Biso   1.000  C
  H101     1.0000 0.59410  0.83370  0.86590  Biso   1.000  H
  C177     1.0000 0.60140  0.79920  0.92020  Biso   1.000  C
  H102     1.0000 0.64440  0.80800  0.94900  Biso   1.000  H
  N70      1.0000 0.47670  0.95375  0.74710  Biso   1.000  N
  C178     1.0000 0.46460  0.93880  0.80060  Biso   1.000  C
  H103     1.0000 0.46380  0.94870  0.83710  Biso   1.000  H
  C179     1.0000 0.45460  0.91090  0.79880  Biso   1.000  C
  H104     1.0000 0.46430  0.90060  0.83440  Biso   1.000  H
  C180     1.0000 0.43040  0.89530  0.74770  Biso   1.000  C
  C181     1.0000 0.40130  0.91350  0.70060  Biso   1.000  C
  H105     1.0000 0.37040  0.90560  0.66630  Biso   1.000  H
  C182     1.0000 0.41590  0.94080  0.70340  Biso   1.000  C
  H106     1.0000 0.38400  0.95250  0.67440  Biso   1.000  H
  N71      1.0000 0.37930  0.85270  0.28690  Biso   1.000  N
  C183     1.0000 0.36760  0.82360  0.28160  Biso   1.000  C
  N72      1.0000 0.39800  0.80810  0.23720  Biso   1.000  N
  C184     1.0000 0.46380  0.82250  0.19790  Biso   1.000  C
  N73      1.0000 0.48910  0.84940  0.20180  Biso   1.000  N
  C185     1.0000 0.43300  0.86450  0.24280  Biso   1.000  C
  N74      1.0000 0.21700  0.77910  0.41930  Biso   1.000  N
  C186     1.0000 0.26260  0.76550  0.37630  Biso   1.000  C
  H107     1.0000 0.26580  0.74530  0.37660  Biso   1.000  H
  C187     1.0000 0.30520  0.78030  0.33130  Biso   1.000  C
  H108     1.0000 0.33100  0.76950  0.29920  Biso   1.000  H
  C188     1.0000 0.31500  0.80950  0.32750  Biso   1.000  C
  C189     1.0000 0.26470  0.82260  0.37230  Biso   1.000  C
  H109     1.0000 0.26730  0.84280  0.37490  Biso   1.000  H
  C190     1.0000 0.21020  0.80780  0.41410  Biso   1.000  C
  H110     1.0000 0.16650  0.81800  0.44020  Biso   1.000  H
  N75      1.0000 0.59640  0.77310  0.06270  Biso   1.000  N
  C191     1.0000 0.52080  0.76030  0.09800  Biso   1.000  C
  H111     1.0000 0.49300  0.74200  0.08950  Biso   1.000  H
  C192     1.0000 0.48870  0.77630  0.14700  Biso   1.000  C
  H112     1.0000 0.44860  0.76790  0.17740  Biso   1.000  H
  C193     1.0000 0.51670  0.80420  0.14960  Biso   1.000  C
  C194     1.0000 0.57570  0.81770  0.11030  Biso   1.000  C
  H113     1.0000 0.57910  0.83790  0.10800  Biso   1.000  H
  C195     1.0000 0.63660  0.79840  0.06990  Biso   1.000  C
  N76      1.0000 0.47720  0.95416  0.24620  Biso   1.000  N
  C196     1.0000 0.44820  0.93970  0.29460  Biso   1.000  C
  H114     1.0000 0.43690  0.94980  0.33020  Biso   1.000  H
  C197     1.0000 0.43450  0.91040  0.29380  Biso   1.000  C
  H115     1.0000 0.41260  0.90090  0.32860  Biso   1.000  H
  C198     1.0000 0.45090  0.89590  0.24700  Biso   1.000  C
  C199     1.0000 0.50890  0.90870  0.19850  Biso   1.000  C
  H116     1.0000 0.54690  0.89810  0.17020  Biso   1.000  H
  C200     1.0000 0.50140  0.93820  0.19930  Biso   1.000  C
  H117     1.0000 0.51450  0.94790  0.16340  Biso   1.000  H
  Cl11     1.0000 0.40220  0.93331  0.94740  Biso   1.000  Cl
  Cl12     1.0000 0.41010  0.92902  0.07600  Biso   1.000  Cl
  Cl13     1.0000 0.66530  0.92096  0.06470  Biso   1.000  Cl
  Cl14     1.0000 0.65160  0.92820  0.94720  Biso   1.000  Cl
  C201     1.0000 0.57930  0.92155  0.00420  Biso   1.000  C
  C202     1.0000 0.48690  0.93848  0.01540  Biso   1.000  C
  S16      1.0000 0.61330  0.98200  0.55690  Biso   1.000  S
  C203     1.0000 0.60300  0.98960  0.63180  Biso   1.000  C
  N77      1.0000 0.58600  0.99600  0.67330  Biso   1.000  N
  N78      1.0000 0.39580  0.00750  0.67770  Biso   1.000  N
  C204     1.0000 0.37500  0.01770  0.63970  Biso   1.000  C
  S17      1.0000 0.35860  0.03360  0.56850  Biso   1.000  S
  C205     1.0000 0.91500  0.00740  0.59010  Biso   1.000  C
  N79      1.0000 0.90510  0.99820  0.53130  Biso   1.000  N
  C206     1.0000 0.00200  0.00250  0.49800  Biso   1.000  C
  N80      1.0000 0.08760  0.00540  0.53070  Biso   1.000  N
  C207     1.0000 0.08400  0.00090  0.59110  Biso   1.000  C
  N81      1.0000 0.99740  0.00370  0.62150  Biso   1.000  N
  N82      1.0000 0.63260  0.99590  0.69180  Biso   1.000  N
  C208     1.0000 0.62590  0.99020  0.63190  Biso   1.000  C
  H118     1.0000 0.56060  0.98580  0.61440  Biso   1.000  H
  C209     1.0000 0.71480  0.99080  0.59750  Biso   1.000  C
  H119     1.0000 0.71030  0.98690  0.55660  Biso   1.000  H
  C210     1.0000 0.81040  0.99720  0.62300  Biso   1.000  C
  C211     1.0000 0.81710  0.00300  0.68290  Biso   1.000  C
  H120     1.0000 0.88250  0.00730  0.70040  Biso   1.000  H
  C212     1.0000 0.72820  0.00230  0.71730  Biso   1.000  C
  H121     1.0000 0.73270  0.00620  0.75830  Biso   1.000  H
  N83      1.0000 0.00860  0.99080  0.31700  Biso   1.000  N
  C213     1.0000 0.91500  0.98730  0.34640  Biso   1.000  C
  H122     1.0000 0.85370  0.98280  0.32500  Biso   1.000  H
  C214     1.0000 0.91130  0.99060  0.40720  Biso   1.000  C
  H123     1.0000 0.84740  0.98820  0.42730  Biso   1.000  H
  C215     1.0000 0.00110  0.99730  0.43850  Biso   1.000  C
  C216     1.0000 0.09470  0.00080  0.40910  Biso   1.000  C
  H124     1.0000 0.15600  0.00530  0.43050  Biso   1.000  H
  C217     1.0000 0.09840  0.99750  0.34840  Biso   1.000  C
  H125     1.0000 0.16230  0.99990  0.32830  Biso   1.000  H
  N84      1.0000 0.35490  0.00420  0.69080  Biso   1.000  N
  C218     1.0000 0.37000  0.01100  0.63420  Biso   1.000  C
  H126     1.0000 0.43550  0.01500  0.61670  Biso   1.000  H
  C219     1.0000 0.27390  0.01130  0.60530  Biso   1.000  C
  H127     1.0000 0.27090  0.01910  0.56670  Biso   1.000  H
  C220     1.0000 0.18420  0.00100  0.62860  Biso   1.000  C
  C221     1.0000 0.17900  0.99510  0.68040  Biso   1.000  C
  H128     1.0000 0.11360  0.99250  0.69910  Biso   1.000  H
  C222     1.0000 0.27350  0.99230  0.71180  Biso   1.000  C
  H129     1.0000 0.27680  0.98180  0.74750  Biso   1.000  H
  C223     1.0000 0.08570  0.99790  0.90920  Biso   1.000  C
  N85      1.0000 0.99290  0.99460  0.87830  Biso   1.000  N
  C224     1.0000 0.89980  0.99210  0.90850  Biso   1.000  C
  N86      1.0000 0.89940  0.99290  0.96970  Biso   1.000  N
  C225     1.0000 0.99210  0.99610  0.00060  Biso   1.000  C
  N87      1.0000 0.08530  0.99860  0.97040  Biso   1.000  N
  N88      1.0000 0.36190  0.00200  0.81110  Biso   1.000  N
  C226     1.0000 0.26580  0.00360  0.78300  Biso   1.000  C
  H130     1.0000 0.26220  0.00470  0.74130  Biso   1.000  H
  C227     1.0000 0.17510  0.00360  0.81580  Biso   1.000  C
  H131     1.0000 0.10950  0.00470  0.79660  Biso   1.000  H
  C228     1.0000 0.18040  0.00190  0.87680  Biso   1.000  C
  C229     1.0000 0.27640  0.00030  0.90500  Biso   1.000  C
  H132     1.0000 0.28000  0.99910  0.94670  Biso   1.000  H
  C230     1.0000 0.36710  0.00030  0.87210  Biso   1.000  C
  H133     1.0000 0.43270  0.99920  0.89140  Biso   1.000  H
  N89      1.0000 0.63660  0.99660  0.80660  Biso   1.000  N
  C231     1.0000 0.72890  0.98650  0.78290  Biso   1.000  C
  H134     1.0000 0.73080  0.98030  0.74310  Biso   1.000  H
  C232     1.0000 0.81840  0.98550  0.81740  Biso   1.000  C
  H135     1.0000 0.88140  0.97860  0.80120  Biso   1.000  H
  C233     1.0000 0.81560  0.99450  0.87560  Biso   1.000  C
  C234     1.0000 0.72330  0.00460  0.89930  Biso   1.000  C
  H136     1.0000 0.72140  0.01080  0.93910  Biso   1.000  H
  C235     1.0000 0.63390  0.00560  0.86480  Biso   1.000  C
  H137     1.0000 0.57080  0.01250  0.88100  Biso   1.000  H
  N90      1.0000 0.97780  0.00090  0.17750  Biso   1.000  N
  C236     1.0000 0.89010  0.99290  0.14550  Biso   1.000  C
  H138     1.0000 0.82560  0.99040  0.16500  Biso   1.000  H
  C237     1.0000 0.89680  0.98850  0.08520  Biso   1.000  C
  H139     1.0000 0.83690  0.98310  0.06340  Biso   1.000  H
  C238     1.0000 0.99120  0.99218  0.05680  Biso   1.000  C
  C239     1.0000 0.07890  0.00021  0.08870  Biso   1.000  C
  H140     1.0000 0.14340  0.00270  0.06930  Biso   1.000  H
  C240     1.0000 0.07220  0.00460  0.14910  Biso   1.000  C
  H141     1.0000 0.13210  0.01010  0.17090  Biso   1.000  H
  S18      1.0000 0.36260  0.98451  0.94080  Biso   1.000  S
  Cl15     1.0000 0.54620  0.88193  0.01640  Biso   1.000  Cl
  Co7      1.0000 0.00257  0.50018  0.74915  Biso   1.000  Co
  Co8      1.0000 0.34686  0.25478  0.00749  Biso   1.000  Co
  S19      1.0000 0.63600  0.32318  0.01660  Biso   1.000  S
  N91      1.0000 0.47270  0.28120  0.00760  Biso   1.000  N
  C241     1.0000 0.53050  0.29620  0.01120  Biso   1.000  C
  N92      1.0000 0.21690  0.22980  0.01270  Biso   1.000  N
  S20      1.0000 0.06020  0.18980  0.02360  Biso   1.000  S
  C242     1.0000 0.14590  0.21680  0.01530  Biso   1.000  C
  N93      1.0000 0.90690  0.49680  0.67680  Biso   1.000  N
  C243     1.0000 0.87790  0.49060  0.62960  Biso   1.000  C
  S21      1.0000 0.85260  0.47560  0.56320  Biso   1.000  S
  N94      1.0000 0.10040  0.50230  0.67480  Biso   1.000  N
  C244     1.0000 0.21510  0.48510  0.68320  Biso   1.000  C
  C245     1.0000 0.14450  0.32560  0.79930  Biso   1.000  C
  N95      1.0000 0.10170  0.30850  0.75190  Biso   1.000  N
  C246     1.0000 0.04660  0.32120  0.71280  Biso   1.000  C
  N96      1.0000 0.04590  0.35050  0.70570  Biso   1.000  N
  C247     1.0000 0.07650  0.36470  0.75520  Biso   1.000  C
  N97      1.0000 0.13430  0.35310  0.79740  Biso   1.000  N
  N98      1.0000 0.27990  0.28190  0.93760  Biso   1.000  N
  C248     1.0000 0.21100  0.26810  0.90330  Biso   1.000  C
  H142     1.0000 0.19350  0.24890  0.91120  Biso   1.000  H
  C249     1.0000 0.16560  0.28250  0.85590  Biso   1.000  C
  H143     1.0000 0.11940  0.27260  0.83040  Biso   1.000  H
  C250     1.0000 0.18620  0.31040  0.84570  Biso   1.000  C
  C251     1.0000 0.25920  0.32450  0.88470  Biso   1.000  C
  H144     1.0000 0.28130  0.34360  0.87860  Biso   1.000  H
  C252     1.0000 0.29510  0.30780  0.93250  Biso   1.000  C
  H145     1.0000 0.33360  0.31710  0.96270  Biso   1.000  H
  N99      1.0000 0.92380  0.27180  0.57350  Biso   1.000  N
  C253     1.0000 0.99870  0.26240  0.61290  Biso   1.000  C
  H146     1.0000 0.02210  0.24330  0.60800  Biso   1.000  H
  C254     1.0000 0.04100  0.27690  0.65620  Biso   1.000  C
  H147     1.0000 0.09250  0.26860  0.68100  Biso   1.000  H
  C255     1.0000 0.00770  0.30470  0.66460  Biso   1.000  C
  C256     1.0000 0.93380  0.31520  0.62750  Biso   1.000  C
  H148     1.0000 0.90590  0.33370  0.63410  Biso   1.000  H
  C257     1.0000 0.89860  0.29920  0.57980  Biso   1.000  C
  H149     1.0000 0.85560  0.30800  0.55100  Biso   1.000  H
  N100     1.0000 0.02330  0.45375  0.75290  Biso   1.000  N
  C258     1.0000 0.03540  0.43880  0.69940  Biso   1.000  C
  H150     1.0000 0.03620  0.44870  0.66290  Biso   1.000  H
  C259     1.0000 0.04540  0.41090  0.70120  Biso   1.000  C
  H151     1.0000 0.03570  0.40060  0.66560  Biso   1.000  H
  C260     1.0000 0.06960  0.39530  0.75230  Biso   1.000  C
  C261     1.0000 0.09870  0.41350  0.79940  Biso   1.000  C
  H152     1.0000 0.12960  0.40560  0.83370  Biso   1.000  H
  C262     1.0000 0.08410  0.44080  0.79660  Biso   1.000  C
  H153     1.0000 0.11600  0.45250  0.82560  Biso   1.000  H
  N101     1.0000 0.12070  0.35270  0.21310  Biso   1.000  N
  C263     1.0000 0.13240  0.32360  0.21840  Biso   1.000  C
  N102     1.0000 0.10200  0.30810  0.26280  Biso   1.000  N
  C264     1.0000 0.03620  0.32250  0.30210  Biso   1.000  C
  N103     1.0000 0.01090  0.34940  0.29820  Biso   1.000  N
  C265     1.0000 0.06700  0.36450  0.25720  Biso   1.000  C
  N104     1.0000 0.28300  0.27910  0.08070  Biso   1.000  N
  C266     1.0000 0.23740  0.26550  0.12370  Biso   1.000  C
  H154     1.0000 0.23420  0.24530  0.12340  Biso   1.000  H
  C267     1.0000 0.19480  0.28030  0.16870  Biso   1.000  C
  H155     1.0000 0.16900  0.26950  0.20080  Biso   1.000  H
  C268     1.0000 0.18500  0.30950  0.17250  Biso   1.000  C
  C269     1.0000 0.23530  0.32260  0.12770  Biso   1.000  C
  H156     1.0000 0.23270  0.34280  0.12510  Biso   1.000  H
  C270     1.0000 0.28980  0.30780  0.08590  Biso   1.000  C
  H157     1.0000 0.33350  0.31800  0.05980  Biso   1.000  H
  N105     1.0000 0.90360  0.27310  0.43730  Biso   1.000  N
  C271     1.0000 0.97920  0.26030  0.40200  Biso   1.000  C
  H158     1.0000 0.00700  0.24200  0.41050  Biso   1.000  H
  C272     1.0000 0.01130  0.27630  0.35300  Biso   1.000  C
  H159     1.0000 0.05140  0.26790  0.32260  Biso   1.000  H
  C273     1.0000 0.98330  0.30420  0.35040  Biso   1.000  C
  C274     1.0000 0.92430  0.31770  0.38970  Biso   1.000  C
  H160     1.0000 0.92090  0.33790  0.39200  Biso   1.000  H
  C275     1.0000 0.86340  0.29840  0.43010  Biso   1.000  C
  N106     1.0000 0.02280  0.45416  0.25380  Biso   1.000  N
  C276     1.0000 0.05180  0.43970  0.20540  Biso   1.000  C
  H161     1.0000 0.06310  0.44980  0.16980  Biso   1.000  H
  C277     1.0000 0.06550  0.41040  0.20620  Biso   1.000  C
  H162     1.0000 0.08740  0.40090  0.17140  Biso   1.000  H
  C278     1.0000 0.04910  0.39590  0.25300  Biso   1.000  C
  C279     1.0000 0.99110  0.40870  0.30150  Biso   1.000  C
  H163     1.0000 0.95310  0.39810  0.32980  Biso   1.000  H
  C280     1.0000 0.99860  0.43820  0.30070  Biso   1.000  C
  H164     1.0000 0.98550  0.44790  0.33660  Biso   1.000  H
  Cl16     1.0000 0.09780  0.43331  0.55260  Biso   1.000  Cl
  Cl17     1.0000 0.08990  0.42902  0.42400  Biso   1.000  Cl
  Cl18     1.0000 0.83470  0.42096  0.43530  Biso   1.000  Cl
  Cl19     1.0000 0.84840  0.42820  0.55280  Biso   1.000  Cl
  C281     1.0000 0.92070  0.42155  0.49580  Biso   1.000  C
  C282     1.0000 0.01310  0.43848  0.48460  Biso   1.000  C
  S22      1.0000 0.88670  0.48200  0.94310  Biso   1.000  S
  C283     1.0000 0.89700  0.48960  0.86820  Biso   1.000  C
  N107     1.0000 0.91400  0.49600  0.82670  Biso   1.000  N
  N108     1.0000 0.10420  0.50750  0.82230  Biso   1.000  N
  C284     1.0000 0.12500  0.51770  0.86030  Biso   1.000  C
  S23      1.0000 0.14140  0.53360  0.93150  Biso   1.000  S
  C285     1.0000 0.58500  0.50740  0.90990  Biso   1.000  C
  N109     1.0000 0.59490  0.49820  0.96870  Biso   1.000  N
  C286     1.0000 0.49800  0.50250  0.00200  Biso   1.000  C
  N110     1.0000 0.41240  0.50540  0.96930  Biso   1.000  N
  C287     1.0000 0.41600  0.50090  0.90890  Biso   1.000  C
  N111     1.0000 0.50260  0.50370  0.87850  Biso   1.000  N
  N112     1.0000 0.86740  0.49590  0.80820  Biso   1.000  N
  C288     1.0000 0.87410  0.49020  0.86810  Biso   1.000  C
  H165     1.0000 0.93940  0.48580  0.88560  Biso   1.000  H
  C289     1.0000 0.78520  0.49080  0.90250  Biso   1.000  C
  H166     1.0000 0.78970  0.48690  0.94340  Biso   1.000  H
  C290     1.0000 0.68960  0.49720  0.87700  Biso   1.000  C
  C291     1.0000 0.68290  0.50300  0.81710  Biso   1.000  C
  H167     1.0000 0.61750  0.50730  0.79960  Biso   1.000  H
  C292     1.0000 0.77180  0.50230  0.78270  Biso   1.000  C
  H168     1.0000 0.76730  0.50620  0.74170  Biso   1.000  H
  N113     1.0000 0.49140  0.49080  0.18300  Biso   1.000  N
  C293     1.0000 0.58500  0.48730  0.15360  Biso   1.000  C
  H169     1.0000 0.64630  0.48280  0.17500  Biso   1.000  H
  C294     1.0000 0.58870  0.49060  0.09280  Biso   1.000  C
  H170     1.0000 0.65260  0.48820  0.07270  Biso   1.000  H
  C295     1.0000 0.49890  0.49730  0.06150  Biso   1.000  C
  C296     1.0000 0.40530  0.50080  0.09090  Biso   1.000  C
  H171     1.0000 0.34400  0.50530  0.06950  Biso   1.000  H
  C297     1.0000 0.40160  0.49750  0.15160  Biso   1.000  C
  H172     1.0000 0.33770  0.49990  0.17170  Biso   1.000  H
  N114     1.0000 0.14510  0.50420  0.80920  Biso   1.000  N
  C298     1.0000 0.13000  0.51100  0.86580  Biso   1.000  C
  H173     1.0000 0.06450  0.51500  0.88330  Biso   1.000  H
  C299     1.0000 0.22610  0.51130  0.89470  Biso   1.000  C
  H174     1.0000 0.22910  0.51910  0.93330  Biso   1.000  H
  C300     1.0000 0.31580  0.50100  0.87140  Biso   1.000  C
  C301     1.0000 0.32100  0.49510  0.81960  Biso   1.000  C
  H175     1.0000 0.38640  0.49250  0.80090  Biso   1.000  H
  C302     1.0000 0.22650  0.49230  0.78820  Biso   1.000  C
  H176     1.0000 0.22320  0.48180  0.75250  Biso   1.000  H
  C303     1.0000 0.41430  0.49790  0.59080  Biso   1.000  C
  N115     1.0000 0.50710  0.49460  0.62170  Biso   1.000  N
  C304     1.0000 0.60020  0.49210  0.59150  Biso   1.000  C
  N116     1.0000 0.60060  0.49290  0.53030  Biso   1.000  N
  C305     1.0000 0.50790  0.49610  0.49940  Biso   1.000  C
  N117     1.0000 0.41470  0.49860  0.52960  Biso   1.000  N
  N118     1.0000 0.13810  0.50200  0.68890  Biso   1.000  N
  C306     1.0000 0.23420  0.50360  0.71700  Biso   1.000  C
  H177     1.0000 0.23780  0.50470  0.75870  Biso   1.000  H
  C307     1.0000 0.32490  0.50360  0.68420  Biso   1.000  C
  H178     1.0000 0.39050  0.50470  0.70340  Biso   1.000  H
  C308     1.0000 0.31960  0.50190  0.62320  Biso   1.000  C
  C309     1.0000 0.22360  0.50030  0.59500  Biso   1.000  C
  H179     1.0000 0.22000  0.49910  0.55330  Biso   1.000  H
  C310     1.0000 0.13290  0.50030  0.62790  Biso   1.000  C
  H180     1.0000 0.06730  0.49920  0.60860  Biso   1.000  H
  N119     1.0000 0.86340  0.49660  0.69340  Biso   1.000  N
  C311     1.0000 0.77110  0.48650  0.71710  Biso   1.000  C
  H181     1.0000 0.76920  0.48030  0.75690  Biso   1.000  H
  C312     1.0000 0.68160  0.48550  0.68260  Biso   1.000  C
  H182     1.0000 0.61860  0.47860  0.69880  Biso   1.000  H
  C313     1.0000 0.68440  0.49450  0.62440  Biso   1.000  C
  C314     1.0000 0.77670  0.50460  0.60070  Biso   1.000  C
  H183     1.0000 0.77860  0.51080  0.56090  Biso   1.000  H
  C315     1.0000 0.86610  0.50560  0.63520  Biso   1.000  C
  H184     1.0000 0.92920  0.51250  0.61900  Biso   1.000  H
  N120     1.0000 0.52220  0.50090  0.32250  Biso   1.000  N
  C316     1.0000 0.60990  0.49290  0.35450  Biso   1.000  C
  H185     1.0000 0.67440  0.49040  0.33500  Biso   1.000  H
  C317     1.0000 0.60320  0.48850  0.41480  Biso   1.000  C
  H186     1.0000 0.66310  0.48310  0.43660  Biso   1.000  H
  C318     1.0000 0.50880  0.49218  0.44320  Biso   1.000  C
  C319     1.0000 0.42110  0.50021  0.41130  Biso   1.000  C
  H187     1.0000 0.35660  0.50270  0.43070  Biso   1.000  H
  C320     1.0000 0.42780  0.50460  0.35090  Biso   1.000  C
  H188     1.0000 0.36790  0.51010  0.32910  Biso   1.000  H
  S24      1.0000 0.13740  0.48451  0.55920  Biso   1.000  S
  Cl20     1.0000 0.95380  0.38193  0.48360  Biso   1.000  Cl
