data_image0
_cell_length_a       38.2
_cell_length_b       38.2
_cell_length_c       38.2
_cell_angle_alpha    90
_cell_angle_beta     90
_cell_angle_gamma    90

_symmetry_space_group_name_H-M    "P 1"
_symmetry_int_tables_number       1

loop_
  _symmetry_equiv_pos_as_xyz
  'x, y, z'

loop_
  _atom_site_label
  _atom_site_occupancy
  _atom_site_fract_x
  _atom_site_fract_y
  _atom_site_fract_z
  _atom_site_thermal_displace_type
  _atom_site_B_iso_or_equiv
  _atom_site_type_symbol
  C1       1.0000 0.19060  0.23250  0.05530  Biso   1.000  C
  H1       1.0000 0.17850  0.24940  0.04270  Biso   1.000  H
  C2       1.0000 0.17640  0.21960  0.08580  Biso   1.000  C
  H2       1.0000 0.15720  0.23040  0.09620  Biso   1.000  H
  C3       1.0000 0.19060  0.73250  0.55530  Biso   1.000  C
  H3       1.0000 0.17850  0.74940  0.54270  Biso   1.000  H
  C4       1.0000 0.17640  0.71960  0.58580  Biso   1.000  C
  H4       1.0000 0.15720  0.73040  0.59620  Biso   1.000  H
  C5       1.0000 0.69060  0.23250  0.55530  Biso   1.000  C
  H5       1.0000 0.67850  0.24940  0.54270  Biso   1.000  H
  C6       1.0000 0.67640  0.21960  0.58580  Biso   1.000  C
  H6       1.0000 0.65720  0.23040  0.59620  Biso   1.000  H
  C7       1.0000 0.69060  0.73250  0.05530  Biso   1.000  C
  H7       1.0000 0.67850  0.74940  0.04270  Biso   1.000  H
  C8       1.0000 0.67640  0.71960  0.08580  Biso   1.000  C
  H8       1.0000 0.65720  0.73040  0.09620  Biso   1.000  H
  C9       1.0000 0.80940  0.76750  0.05530  Biso   1.000  C
  H9       1.0000 0.82150  0.75060  0.04270  Biso   1.000  H
  C10      1.0000 0.82360  0.78040  0.08580  Biso   1.000  C
  H10      1.0000 0.84280  0.76960  0.09620  Biso   1.000  H
  C11      1.0000 0.80940  0.26750  0.55530  Biso   1.000  C
  H11      1.0000 0.82150  0.25060  0.54270  Biso   1.000  H
  C12      1.0000 0.82360  0.28040  0.58580  Biso   1.000  C
  H12      1.0000 0.84280  0.26960  0.59620  Biso   1.000  H
  C13      1.0000 0.30940  0.76750  0.55530  Biso   1.000  C
  H13      1.0000 0.32150  0.75060  0.54270  Biso   1.000  H
  C14      1.0000 0.32360  0.78040  0.58580  Biso   1.000  C
  H14      1.0000 0.34280  0.76960  0.59620  Biso   1.000  H
  C15      1.0000 0.30940  0.26750  0.05530  Biso   1.000  C
  H15      1.0000 0.32150  0.25060  0.04270  Biso   1.000  H
  C16      1.0000 0.32360  0.28040  0.08580  Biso   1.000  C
  H16      1.0000 0.34280  0.26960  0.09620  Biso   1.000  H
  C17      1.0000 0.80940  0.23250  0.94470  Biso   1.000  C
  H17      1.0000 0.82150  0.24940  0.95730  Biso   1.000  H
  C18      1.0000 0.82360  0.21960  0.91420  Biso   1.000  C
  H18      1.0000 0.84280  0.23040  0.90380  Biso   1.000  H
  C19      1.0000 0.80940  0.73250  0.44470  Biso   1.000  C
  H19      1.0000 0.82150  0.74940  0.45730  Biso   1.000  H
  C20      1.0000 0.82360  0.71960  0.41420  Biso   1.000  C
  H20      1.0000 0.84280  0.73040  0.40380  Biso   1.000  H
  C21      1.0000 0.30940  0.23250  0.44470  Biso   1.000  C
  H21      1.0000 0.32150  0.24940  0.45730  Biso   1.000  H
  C22      1.0000 0.32360  0.21960  0.41420  Biso   1.000  C
  H22      1.0000 0.34280  0.23040  0.40380  Biso   1.000  H
  C23      1.0000 0.30940  0.73250  0.94470  Biso   1.000  C
  H23      1.0000 0.32150  0.74940  0.95730  Biso   1.000  H
  C24      1.0000 0.32360  0.71960  0.91420  Biso   1.000  C
  H24      1.0000 0.34280  0.73040  0.90380  Biso   1.000  H
  C25      1.0000 0.19060  0.76750  0.94470  Biso   1.000  C
  H25      1.0000 0.17850  0.75060  0.95730  Biso   1.000  H
  C26      1.0000 0.17640  0.78040  0.91420  Biso   1.000  C
  H26      1.0000 0.15720  0.76960  0.90380  Biso   1.000  H
  C27      1.0000 0.19060  0.26750  0.44470  Biso   1.000  C
  H27      1.0000 0.17850  0.25060  0.45730  Biso   1.000  H
  C28      1.0000 0.17640  0.28040  0.41420  Biso   1.000  C
  H28      1.0000 0.15720  0.26960  0.40380  Biso   1.000  H
  C29      1.0000 0.69060  0.76750  0.44470  Biso   1.000  C
  H29      1.0000 0.67850  0.75060  0.45730  Biso   1.000  H
  C30      1.0000 0.67640  0.78040  0.41420  Biso   1.000  C
  H30      1.0000 0.65720  0.76960  0.40380  Biso   1.000  H
  C31      1.0000 0.69060  0.26750  0.94470  Biso   1.000  C
  H31      1.0000 0.67850  0.25060  0.95730  Biso   1.000  H
  C32      1.0000 0.67640  0.28040  0.91420  Biso   1.000  C
  H32      1.0000 0.65720  0.26960  0.90380  Biso   1.000  H
  C33      1.0000 0.05530  0.19060  0.23250  Biso   1.000  C
  H33      1.0000 0.04270  0.17850  0.24940  Biso   1.000  H
  C34      1.0000 0.08580  0.17640  0.21960  Biso   1.000  C
  H34      1.0000 0.09620  0.15720  0.23040  Biso   1.000  H
  C35      1.0000 0.05530  0.69060  0.73250  Biso   1.000  C
  H35      1.0000 0.04270  0.67850  0.74940  Biso   1.000  H
  C36      1.0000 0.08580  0.67640  0.71960  Biso   1.000  C
  H36      1.0000 0.09620  0.65720  0.73040  Biso   1.000  H
  C37      1.0000 0.55530  0.19060  0.73250  Biso   1.000  C
  H37      1.0000 0.54270  0.17850  0.74940  Biso   1.000  H
  C38      1.0000 0.58580  0.17640  0.71960  Biso   1.000  C
  H38      1.0000 0.59620  0.15720  0.73040  Biso   1.000  H
  C39      1.0000 0.55530  0.69060  0.23250  Biso   1.000  C
  H39      1.0000 0.54270  0.67850  0.24940  Biso   1.000  H
  C40      1.0000 0.58580  0.67640  0.21960  Biso   1.000  C
  H40      1.0000 0.59620  0.65720  0.23040  Biso   1.000  H
  C41      1.0000 0.05530  0.80940  0.76750  Biso   1.000  C
  H41      1.0000 0.04270  0.82150  0.75060  Biso   1.000  H
  C42      1.0000 0.08580  0.82360  0.78040  Biso   1.000  C
  H42      1.0000 0.09620  0.84280  0.76960  Biso   1.000  H
  C43      1.0000 0.05530  0.30940  0.26750  Biso   1.000  C
  H43      1.0000 0.04270  0.32150  0.25060  Biso   1.000  H
  C44      1.0000 0.08580  0.32360  0.28040  Biso   1.000  C
  H44      1.0000 0.09620  0.34280  0.26960  Biso   1.000  H
  C45      1.0000 0.55530  0.80940  0.26750  Biso   1.000  C
  H45      1.0000 0.54270  0.82150  0.25060  Biso   1.000  H
  C46      1.0000 0.58580  0.82360  0.28040  Biso   1.000  C
  H46      1.0000 0.59620  0.84280  0.26960  Biso   1.000  H
  C47      1.0000 0.55530  0.30940  0.76750  Biso   1.000  C
  H47      1.0000 0.54270  0.32150  0.75060  Biso   1.000  H
  C48      1.0000 0.58580  0.32360  0.78040  Biso   1.000  C
  H48      1.0000 0.59620  0.34280  0.76960  Biso   1.000  H
  C49      1.0000 0.94470  0.80940  0.23250  Biso   1.000  C
  H49      1.0000 0.95730  0.82150  0.24940  Biso   1.000  H
  C50      1.0000 0.91420  0.82360  0.21960  Biso   1.000  C
  H50      1.0000 0.90380  0.84280  0.23040  Biso   1.000  H
  C51      1.0000 0.94470  0.30940  0.73250  Biso   1.000  C
  H51      1.0000 0.95730  0.32150  0.74940  Biso   1.000  H
  C52      1.0000 0.91420  0.32360  0.71960  Biso   1.000  C
  H52      1.0000 0.90380  0.34280  0.73040  Biso   1.000  H
  C53      1.0000 0.44470  0.80940  0.73250  Biso   1.000  C
  H53      1.0000 0.45730  0.82150  0.74940  Biso   1.000  H
  C54      1.0000 0.41420  0.82360  0.71960  Biso   1.000  C
  H54      1.0000 0.40380  0.84280  0.73040  Biso   1.000  H
  C55      1.0000 0.44470  0.30940  0.23250  Biso   1.000  C
  H55      1.0000 0.45730  0.32150  0.24940  Biso   1.000  H
  C56      1.0000 0.41420  0.32360  0.21960  Biso   1.000  C
  H56      1.0000 0.40380  0.34280  0.23040  Biso   1.000  H
  C57      1.0000 0.94470  0.19060  0.76750  Biso   1.000  C
  H57      1.0000 0.95730  0.17850  0.75060  Biso   1.000  H
  C58      1.0000 0.91420  0.17640  0.78040  Biso   1.000  C
  H58      1.0000 0.90380  0.15720  0.76960  Biso   1.000  H
  C59      1.0000 0.94470  0.69060  0.26750  Biso   1.000  C
  H59      1.0000 0.95730  0.67850  0.25060  Biso   1.000  H
  C60      1.0000 0.91420  0.67640  0.28040  Biso   1.000  C
  H60      1.0000 0.90380  0.65720  0.26960  Biso   1.000  H
  C61      1.0000 0.44470  0.19060  0.26750  Biso   1.000  C
  H61      1.0000 0.45730  0.17850  0.25060  Biso   1.000  H
  C62      1.0000 0.41420  0.17640  0.28040  Biso   1.000  C
  H62      1.0000 0.40380  0.15720  0.26960  Biso   1.000  H
  C63      1.0000 0.44470  0.69060  0.76750  Biso   1.000  C
  H63      1.0000 0.45730  0.67850  0.75060  Biso   1.000  H
  C64      1.0000 0.41420  0.67640  0.78040  Biso   1.000  C
  H64      1.0000 0.40380  0.65720  0.76960  Biso   1.000  H
  C65      1.0000 0.23250  0.05530  0.19060  Biso   1.000  C
  H65      1.0000 0.24940  0.04270  0.17850  Biso   1.000  H
  C66      1.0000 0.21960  0.08580  0.17640  Biso   1.000  C
  H66      1.0000 0.23040  0.09620  0.15720  Biso   1.000  H
  C67      1.0000 0.23250  0.55530  0.69060  Biso   1.000  C
  H67      1.0000 0.24940  0.54270  0.67850  Biso   1.000  H
  C68      1.0000 0.21960  0.58580  0.67640  Biso   1.000  C
  H68      1.0000 0.23040  0.59620  0.65720  Biso   1.000  H
  C69      1.0000 0.73250  0.05530  0.69060  Biso   1.000  C
  H69      1.0000 0.74940  0.04270  0.67850  Biso   1.000  H
  C70      1.0000 0.71960  0.08580  0.67640  Biso   1.000  C
  H70      1.0000 0.73040  0.09620  0.65720  Biso   1.000  H
  C71      1.0000 0.73250  0.55530  0.19060  Biso   1.000  C
  H71      1.0000 0.74940  0.54270  0.17850  Biso   1.000  H
  C72      1.0000 0.71960  0.58580  0.17640  Biso   1.000  C
  H72      1.0000 0.73040  0.59620  0.15720  Biso   1.000  H
  C73      1.0000 0.76750  0.05530  0.80940  Biso   1.000  C
  H73      1.0000 0.75060  0.04270  0.82150  Biso   1.000  H
  C74      1.0000 0.78040  0.08580  0.82360  Biso   1.000  C
  H74      1.0000 0.76960  0.09620  0.84280  Biso   1.000  H
  C75      1.0000 0.76750  0.55530  0.30940  Biso   1.000  C
  H75      1.0000 0.75060  0.54270  0.32150  Biso   1.000  H
  C76      1.0000 0.78040  0.58580  0.32360  Biso   1.000  C
  H76      1.0000 0.76960  0.59620  0.34280  Biso   1.000  H
  C77      1.0000 0.26750  0.05530  0.30940  Biso   1.000  C
  H77      1.0000 0.25060  0.04270  0.32150  Biso   1.000  H
  C78      1.0000 0.28040  0.08580  0.32360  Biso   1.000  C
  H78      1.0000 0.26960  0.09620  0.34280  Biso   1.000  H
  C79      1.0000 0.26750  0.55530  0.80940  Biso   1.000  C
  H79      1.0000 0.25060  0.54270  0.82150  Biso   1.000  H
  C80      1.0000 0.28040  0.58580  0.82360  Biso   1.000  C
  H80      1.0000 0.26960  0.59620  0.84280  Biso   1.000  H
  C81      1.0000 0.23250  0.94470  0.80940  Biso   1.000  C
  H81      1.0000 0.24940  0.95730  0.82150  Biso   1.000  H
  C82      1.0000 0.21960  0.91420  0.82360  Biso   1.000  C
  H82      1.0000 0.23040  0.90380  0.84280  Biso   1.000  H
  C83      1.0000 0.23250  0.44470  0.30940  Biso   1.000  C
  H83      1.0000 0.24940  0.45730  0.32150  Biso   1.000  H
  C84      1.0000 0.21960  0.41420  0.32360  Biso   1.000  C
  H84      1.0000 0.23040  0.40380  0.34280  Biso   1.000  H
  C85      1.0000 0.73250  0.94470  0.30940  Biso   1.000  C
  H85      1.0000 0.74940  0.95730  0.32150  Biso   1.000  H
  C86      1.0000 0.71960  0.91420  0.32360  Biso   1.000  C
  H86      1.0000 0.73040  0.90380  0.34280  Biso   1.000  H
  C87      1.0000 0.73250  0.44470  0.80940  Biso   1.000  C
  H87      1.0000 0.74940  0.45730  0.82150  Biso   1.000  H
  C88      1.0000 0.71960  0.41420  0.82360  Biso   1.000  C
  H88      1.0000 0.73040  0.40380  0.84280  Biso   1.000  H
  C89      1.0000 0.76750  0.94470  0.19060  Biso   1.000  C
  H89      1.0000 0.75060  0.95730  0.17850  Biso   1.000  H
  C90      1.0000 0.78040  0.91420  0.17640  Biso   1.000  C
  H90      1.0000 0.76960  0.90380  0.15720  Biso   1.000  H
  C91      1.0000 0.76750  0.44470  0.69060  Biso   1.000  C
  H91      1.0000 0.75060  0.45730  0.67850  Biso   1.000  H
  C92      1.0000 0.78040  0.41420  0.67640  Biso   1.000  C
  H92      1.0000 0.76960  0.40380  0.65720  Biso   1.000  H
  C93      1.0000 0.26750  0.94470  0.69060  Biso   1.000  C
  H93      1.0000 0.25060  0.95730  0.67850  Biso   1.000  H
  C94      1.0000 0.28040  0.91420  0.67640  Biso   1.000  C
  H94      1.0000 0.26960  0.90380  0.65720  Biso   1.000  H
  C95      1.0000 0.26750  0.44470  0.19060  Biso   1.000  C
  H95      1.0000 0.25060  0.45730  0.17850  Biso   1.000  H
  C96      1.0000 0.28040  0.41420  0.17640  Biso   1.000  C
  H96      1.0000 0.26960  0.40380  0.15720  Biso   1.000  H
  C97      1.0000 0.23250  0.19060  0.94470  Biso   1.000  C
  H97      1.0000 0.24940  0.17850  0.95730  Biso   1.000  H
  C98      1.0000 0.21960  0.17640  0.91420  Biso   1.000  C
  H98      1.0000 0.23040  0.15720  0.90380  Biso   1.000  H
  C99      1.0000 0.23250  0.69060  0.44470  Biso   1.000  C
  H99      1.0000 0.24940  0.67850  0.45730  Biso   1.000  H
  C100     1.0000 0.21960  0.67640  0.41420  Biso   1.000  C
  H100     1.0000 0.23040  0.65720  0.40380  Biso   1.000  H
  C101     1.0000 0.73250  0.19060  0.44470  Biso   1.000  C
  H101     1.0000 0.74940  0.17850  0.45730  Biso   1.000  H
  C102     1.0000 0.71960  0.17640  0.41420  Biso   1.000  C
  H102     1.0000 0.73040  0.15720  0.40380  Biso   1.000  H
  C103     1.0000 0.73250  0.69060  0.94470  Biso   1.000  C
  H103     1.0000 0.74940  0.67850  0.95730  Biso   1.000  H
  C104     1.0000 0.71960  0.67640  0.91420  Biso   1.000  C
  H104     1.0000 0.73040  0.65720  0.90380  Biso   1.000  H
  C105     1.0000 0.76750  0.80940  0.94470  Biso   1.000  C
  H105     1.0000 0.75060  0.82150  0.95730  Biso   1.000  H
  C106     1.0000 0.78040  0.82360  0.91420  Biso   1.000  C
  H106     1.0000 0.76960  0.84280  0.90380  Biso   1.000  H
  C107     1.0000 0.76750  0.30940  0.44470  Biso   1.000  C
  H107     1.0000 0.75060  0.32150  0.45730  Biso   1.000  H
  C108     1.0000 0.78040  0.32360  0.41420  Biso   1.000  C
  H108     1.0000 0.76960  0.34280  0.40380  Biso   1.000  H
  C109     1.0000 0.26750  0.80940  0.44470  Biso   1.000  C
  H109     1.0000 0.25060  0.82150  0.45730  Biso   1.000  H
  C110     1.0000 0.28040  0.82360  0.41420  Biso   1.000  C
  H110     1.0000 0.26960  0.84280  0.40380  Biso   1.000  H
  C111     1.0000 0.26750  0.30940  0.94470  Biso   1.000  C
  H111     1.0000 0.25060  0.32150  0.95730  Biso   1.000  H
  C112     1.0000 0.28040  0.32360  0.91420  Biso   1.000  C
  H112     1.0000 0.26960  0.34280  0.90380  Biso   1.000  H
  C113     1.0000 0.23250  0.80940  0.05530  Biso   1.000  C
  H113     1.0000 0.24940  0.82150  0.04270  Biso   1.000  H
  C114     1.0000 0.21960  0.82360  0.08580  Biso   1.000  C
  H114     1.0000 0.23040  0.84280  0.09620  Biso   1.000  H
  C115     1.0000 0.23250  0.30940  0.55530  Biso   1.000  C
  H115     1.0000 0.24940  0.32150  0.54270  Biso   1.000  H
  C116     1.0000 0.21960  0.32360  0.58580  Biso   1.000  C
  H116     1.0000 0.23040  0.34280  0.59620  Biso   1.000  H
  C117     1.0000 0.73250  0.80940  0.55530  Biso   1.000  C
  H117     1.0000 0.74940  0.82150  0.54270  Biso   1.000  H
  C118     1.0000 0.71960  0.82360  0.58580  Biso   1.000  C
  H118     1.0000 0.73040  0.84280  0.59620  Biso   1.000  H
  C119     1.0000 0.73250  0.30940  0.05530  Biso   1.000  C
  H119     1.0000 0.74940  0.32150  0.04270  Biso   1.000  H
  C120     1.0000 0.71960  0.32360  0.08580  Biso   1.000  C
  H120     1.0000 0.73040  0.34280  0.09620  Biso   1.000  H
  C121     1.0000 0.76750  0.19060  0.05530  Biso   1.000  C
  H121     1.0000 0.75060  0.17850  0.04270  Biso   1.000  H
  C122     1.0000 0.78040  0.17640  0.08580  Biso   1.000  C
  H122     1.0000 0.76960  0.15720  0.09620  Biso   1.000  H
  C123     1.0000 0.76750  0.69060  0.55530  Biso   1.000  C
  H123     1.0000 0.75060  0.67850  0.54270  Biso   1.000  H
  C124     1.0000 0.78040  0.67640  0.58580  Biso   1.000  C
  H124     1.0000 0.76960  0.65720  0.59620  Biso   1.000  H
  C125     1.0000 0.26750  0.19060  0.55530  Biso   1.000  C
  H125     1.0000 0.25060  0.17850  0.54270  Biso   1.000  H
  C126     1.0000 0.28040  0.17640  0.58580  Biso   1.000  C
  H126     1.0000 0.26960  0.15720  0.59620  Biso   1.000  H
  C127     1.0000 0.26750  0.69060  0.05530  Biso   1.000  C
  H127     1.0000 0.25060  0.67850  0.04270  Biso   1.000  H
  C128     1.0000 0.28040  0.67640  0.08580  Biso   1.000  C
  H128     1.0000 0.26960  0.65720  0.09620  Biso   1.000  H
  C129     1.0000 0.19060  0.05530  0.76750  Biso   1.000  C
  H129     1.0000 0.17850  0.04270  0.75060  Biso   1.000  H
  C130     1.0000 0.17640  0.08580  0.78040  Biso   1.000  C
  H130     1.0000 0.15720  0.09620  0.76960  Biso   1.000  H
  C131     1.0000 0.19060  0.55530  0.26750  Biso   1.000  C
  H131     1.0000 0.17850  0.54270  0.25060  Biso   1.000  H
  C132     1.0000 0.17640  0.58580  0.28040  Biso   1.000  C
  H132     1.0000 0.15720  0.59620  0.26960  Biso   1.000  H
  C133     1.0000 0.69060  0.05530  0.26750  Biso   1.000  C
  H133     1.0000 0.67850  0.04270  0.25060  Biso   1.000  H
  C134     1.0000 0.67640  0.08580  0.28040  Biso   1.000  C
  H134     1.0000 0.65720  0.09620  0.26960  Biso   1.000  H
  C135     1.0000 0.69060  0.55530  0.76750  Biso   1.000  C
  H135     1.0000 0.67850  0.54270  0.75060  Biso   1.000  H
  C136     1.0000 0.67640  0.58580  0.78040  Biso   1.000  C
  H136     1.0000 0.65720  0.59620  0.76960  Biso   1.000  H
  C137     1.0000 0.80940  0.05530  0.23250  Biso   1.000  C
  H137     1.0000 0.82150  0.04270  0.24940  Biso   1.000  H
  C138     1.0000 0.82360  0.08580  0.21960  Biso   1.000  C
  H138     1.0000 0.84280  0.09620  0.23040  Biso   1.000  H
  C139     1.0000 0.80940  0.55530  0.73250  Biso   1.000  C
  H139     1.0000 0.82150  0.54270  0.74940  Biso   1.000  H
  C140     1.0000 0.82360  0.58580  0.71960  Biso   1.000  C
  H140     1.0000 0.84280  0.59620  0.73040  Biso   1.000  H
  C141     1.0000 0.30940  0.05530  0.73250  Biso   1.000  C
  H141     1.0000 0.32150  0.04270  0.74940  Biso   1.000  H
  C142     1.0000 0.32360  0.08580  0.71960  Biso   1.000  C
  H142     1.0000 0.34280  0.09620  0.73040  Biso   1.000  H
  C143     1.0000 0.30940  0.55530  0.23250  Biso   1.000  C
  H143     1.0000 0.32150  0.54270  0.24940  Biso   1.000  H
  C144     1.0000 0.32360  0.58580  0.21960  Biso   1.000  C
  H144     1.0000 0.34280  0.59620  0.23040  Biso   1.000  H
  C145     1.0000 0.80940  0.94470  0.76750  Biso   1.000  C
  H145     1.0000 0.82150  0.95730  0.75060  Biso   1.000  H
  C146     1.0000 0.82360  0.91420  0.78040  Biso   1.000  C
  H146     1.0000 0.84280  0.90380  0.76960  Biso   1.000  H
  C147     1.0000 0.80940  0.44470  0.26750  Biso   1.000  C
  H147     1.0000 0.82150  0.45730  0.25060  Biso   1.000  H
  C148     1.0000 0.82360  0.41420  0.28040  Biso   1.000  C
  H148     1.0000 0.84280  0.40380  0.26960  Biso   1.000  H
  C149     1.0000 0.30940  0.94470  0.26750  Biso   1.000  C
  H149     1.0000 0.32150  0.95730  0.25060  Biso   1.000  H
  C150     1.0000 0.32360  0.91420  0.28040  Biso   1.000  C
  H150     1.0000 0.34280  0.90380  0.26960  Biso   1.000  H
  C151     1.0000 0.30940  0.44470  0.76750  Biso   1.000  C
  H151     1.0000 0.32150  0.45730  0.75060  Biso   1.000  H
  C152     1.0000 0.32360  0.41420  0.78040  Biso   1.000  C
  H152     1.0000 0.34280  0.40380  0.76960  Biso   1.000  H
  C153     1.0000 0.19060  0.94470  0.23250  Biso   1.000  C
  H153     1.0000 0.17850  0.95730  0.24940  Biso   1.000  H
  C154     1.0000 0.17640  0.91420  0.21960  Biso   1.000  C
  H154     1.0000 0.15720  0.90380  0.23040  Biso   1.000  H
  C155     1.0000 0.19060  0.44470  0.73250  Biso   1.000  C
  H155     1.0000 0.17850  0.45730  0.74940  Biso   1.000  H
  C156     1.0000 0.17640  0.41420  0.71960  Biso   1.000  C
  H156     1.0000 0.15720  0.40380  0.73040  Biso   1.000  H
  C157     1.0000 0.69060  0.94470  0.73250  Biso   1.000  C
  H157     1.0000 0.67850  0.95730  0.74940  Biso   1.000  H
  C158     1.0000 0.67640  0.91420  0.71960  Biso   1.000  C
  H158     1.0000 0.65720  0.90380  0.73040  Biso   1.000  H
  C159     1.0000 0.69060  0.44470  0.23250  Biso   1.000  C
  H159     1.0000 0.67850  0.45730  0.24940  Biso   1.000  H
  C160     1.0000 0.67640  0.41420  0.21960  Biso   1.000  C
  H160     1.0000 0.65720  0.40380  0.23040  Biso   1.000  H
  C161     1.0000 0.05530  0.23250  0.80940  Biso   1.000  C
  H161     1.0000 0.04270  0.24940  0.82150  Biso   1.000  H
  C162     1.0000 0.08580  0.21960  0.82360  Biso   1.000  C
  H162     1.0000 0.09620  0.23040  0.84280  Biso   1.000  H
  C163     1.0000 0.05530  0.73250  0.30940  Biso   1.000  C
  H163     1.0000 0.04270  0.74940  0.32150  Biso   1.000  H
  C164     1.0000 0.08580  0.71960  0.32360  Biso   1.000  C
  H164     1.0000 0.09620  0.73040  0.34280  Biso   1.000  H
  C165     1.0000 0.55530  0.23250  0.30940  Biso   1.000  C
  H165     1.0000 0.54270  0.24940  0.32150  Biso   1.000  H
  C166     1.0000 0.58580  0.21960  0.32360  Biso   1.000  C
  H166     1.0000 0.59620  0.23040  0.34280  Biso   1.000  H
  C167     1.0000 0.55530  0.73250  0.80940  Biso   1.000  C
  H167     1.0000 0.54270  0.74940  0.82150  Biso   1.000  H
  C168     1.0000 0.58580  0.71960  0.82360  Biso   1.000  C
  H168     1.0000 0.59620  0.73040  0.84280  Biso   1.000  H
  C169     1.0000 0.05530  0.76750  0.19060  Biso   1.000  C
  H169     1.0000 0.04270  0.75060  0.17850  Biso   1.000  H
  C170     1.0000 0.08580  0.78040  0.17640  Biso   1.000  C
  H170     1.0000 0.09620  0.76960  0.15720  Biso   1.000  H
  C171     1.0000 0.05530  0.26750  0.69060  Biso   1.000  C
  H171     1.0000 0.04270  0.25060  0.67850  Biso   1.000  H
  C172     1.0000 0.08580  0.28040  0.67640  Biso   1.000  C
  H172     1.0000 0.09620  0.26960  0.65720  Biso   1.000  H
  C173     1.0000 0.55530  0.76750  0.69060  Biso   1.000  C
  H173     1.0000 0.54270  0.75060  0.67850  Biso   1.000  H
  C174     1.0000 0.58580  0.78040  0.67640  Biso   1.000  C
  H174     1.0000 0.59620  0.76960  0.65720  Biso   1.000  H
  C175     1.0000 0.55530  0.26750  0.19060  Biso   1.000  C
  H175     1.0000 0.54270  0.25060  0.17850  Biso   1.000  H
  C176     1.0000 0.58580  0.28040  0.17640  Biso   1.000  C
  H176     1.0000 0.59620  0.26960  0.15720  Biso   1.000  H
  C177     1.0000 0.94470  0.23250  0.19060  Biso   1.000  C
  H177     1.0000 0.95730  0.24940  0.17850  Biso   1.000  H
  C178     1.0000 0.91420  0.21960  0.17640  Biso   1.000  C
  H178     1.0000 0.90380  0.23040  0.15720  Biso   1.000  H
  C179     1.0000 0.94470  0.73250  0.69060  Biso   1.000  C
  H179     1.0000 0.95730  0.74940  0.67850  Biso   1.000  H
  C180     1.0000 0.91420  0.71960  0.67640  Biso   1.000  C
  H180     1.0000 0.90380  0.73040  0.65720  Biso   1.000  H
  C181     1.0000 0.44470  0.23250  0.69060  Biso   1.000  C
  H181     1.0000 0.45730  0.24940  0.67850  Biso   1.000  H
  C182     1.0000 0.41420  0.21960  0.67640  Biso   1.000  C
  H182     1.0000 0.40380  0.23040  0.65720  Biso   1.000  H
  C183     1.0000 0.44470  0.73250  0.19060  Biso   1.000  C
  H183     1.0000 0.45730  0.74940  0.17850  Biso   1.000  H
  C184     1.0000 0.41420  0.71960  0.17640  Biso   1.000  C
  H184     1.0000 0.40380  0.73040  0.15720  Biso   1.000  H
  C185     1.0000 0.94470  0.76750  0.80940  Biso   1.000  C
  H185     1.0000 0.95730  0.75060  0.82150  Biso   1.000  H
  C186     1.0000 0.91420  0.78040  0.82360  Biso   1.000  C
  H186     1.0000 0.90380  0.76960  0.84280  Biso   1.000  H
  C187     1.0000 0.94470  0.26750  0.30940  Biso   1.000  C
  H187     1.0000 0.95730  0.25060  0.32150  Biso   1.000  H
  C188     1.0000 0.91420  0.28040  0.32360  Biso   1.000  C
  H188     1.0000 0.90380  0.26960  0.34280  Biso   1.000  H
  C189     1.0000 0.44470  0.76750  0.30940  Biso   1.000  C
  H189     1.0000 0.45730  0.75060  0.32150  Biso   1.000  H
  C190     1.0000 0.41420  0.78040  0.32360  Biso   1.000  C
  H190     1.0000 0.40380  0.76960  0.34280  Biso   1.000  H
  C191     1.0000 0.44470  0.26750  0.80940  Biso   1.000  C
  H191     1.0000 0.45730  0.25060  0.82150  Biso   1.000  H
  C192     1.0000 0.41420  0.28040  0.82360  Biso   1.000  C
  H192     1.0000 0.40380  0.26960  0.84280  Biso   1.000  H
  C193     1.0000 0.80940  0.76750  0.94470  Biso   1.000  C
  H193     1.0000 0.82150  0.75060  0.95730  Biso   1.000  H
  C194     1.0000 0.82360  0.78040  0.91420  Biso   1.000  C
  H194     1.0000 0.84280  0.76960  0.90380  Biso   1.000  H
  C195     1.0000 0.80940  0.26750  0.44470  Biso   1.000  C
  H195     1.0000 0.82150  0.25060  0.45730  Biso   1.000  H
  C196     1.0000 0.82360  0.28040  0.41420  Biso   1.000  C
  H196     1.0000 0.84280  0.26960  0.40380  Biso   1.000  H
  C197     1.0000 0.30940  0.76750  0.44470  Biso   1.000  C
  H197     1.0000 0.32150  0.75060  0.45730  Biso   1.000  H
  C198     1.0000 0.32360  0.78040  0.41420  Biso   1.000  C
  H198     1.0000 0.34280  0.76960  0.40380  Biso   1.000  H
  C199     1.0000 0.30940  0.26750  0.94470  Biso   1.000  C
  H199     1.0000 0.32150  0.25060  0.95730  Biso   1.000  H
  C200     1.0000 0.32360  0.28040  0.91420  Biso   1.000  C
  H200     1.0000 0.34280  0.26960  0.90380  Biso   1.000  H
  C201     1.0000 0.19060  0.23250  0.94470  Biso   1.000  C
  H201     1.0000 0.17850  0.24940  0.95730  Biso   1.000  H
  C202     1.0000 0.17640  0.21960  0.91420  Biso   1.000  C
  H202     1.0000 0.15720  0.23040  0.90380  Biso   1.000  H
  C203     1.0000 0.19060  0.73250  0.44470  Biso   1.000  C
  H203     1.0000 0.17850  0.74940  0.45730  Biso   1.000  H
  C204     1.0000 0.17640  0.71960  0.41420  Biso   1.000  C
  H204     1.0000 0.15720  0.73040  0.40380  Biso   1.000  H
  C205     1.0000 0.69060  0.23250  0.44470  Biso   1.000  C
  H205     1.0000 0.67850  0.24940  0.45730  Biso   1.000  H
  C206     1.0000 0.67640  0.21960  0.41420  Biso   1.000  C
  H206     1.0000 0.65720  0.23040  0.40380  Biso   1.000  H
  C207     1.0000 0.69060  0.73250  0.94470  Biso   1.000  C
  H207     1.0000 0.67850  0.74940  0.95730  Biso   1.000  H
  C208     1.0000 0.67640  0.71960  0.91420  Biso   1.000  C
  H208     1.0000 0.65720  0.73040  0.90380  Biso   1.000  H
  C209     1.0000 0.19060  0.76750  0.05530  Biso   1.000  C
  H209     1.0000 0.17850  0.75060  0.04270  Biso   1.000  H
  C210     1.0000 0.17640  0.78040  0.08580  Biso   1.000  C
  H210     1.0000 0.15720  0.76960  0.09620  Biso   1.000  H
  C211     1.0000 0.19060  0.26750  0.55530  Biso   1.000  C
  H211     1.0000 0.17850  0.25060  0.54270  Biso   1.000  H
  C212     1.0000 0.17640  0.28040  0.58580  Biso   1.000  C
  H212     1.0000 0.15720  0.26960  0.59620  Biso   1.000  H
  C213     1.0000 0.69060  0.76750  0.55530  Biso   1.000  C
  H213     1.0000 0.67850  0.75060  0.54270  Biso   1.000  H
  C214     1.0000 0.67640  0.78040  0.58580  Biso   1.000  C
  H214     1.0000 0.65720  0.76960  0.59620  Biso   1.000  H
  C215     1.0000 0.69060  0.26750  0.05530  Biso   1.000  C
  H215     1.0000 0.67850  0.25060  0.04270  Biso   1.000  H
  C216     1.0000 0.67640  0.28040  0.08580  Biso   1.000  C
  H216     1.0000 0.65720  0.26960  0.09620  Biso   1.000  H
  C217     1.0000 0.80940  0.23250  0.05530  Biso   1.000  C
  H217     1.0000 0.82150  0.24940  0.04270  Biso   1.000  H
  C218     1.0000 0.82360  0.21960  0.08580  Biso   1.000  C
  H218     1.0000 0.84280  0.23040  0.09620  Biso   1.000  H
  C219     1.0000 0.80940  0.73250  0.55530  Biso   1.000  C
  H219     1.0000 0.82150  0.74940  0.54270  Biso   1.000  H
  C220     1.0000 0.82360  0.71960  0.58580  Biso   1.000  C
  H220     1.0000 0.84280  0.73040  0.59620  Biso   1.000  H
  C221     1.0000 0.30940  0.23250  0.55530  Biso   1.000  C
  H221     1.0000 0.32150  0.24940  0.54270  Biso   1.000  H
  C222     1.0000 0.32360  0.21960  0.58580  Biso   1.000  C
  H222     1.0000 0.34280  0.23040  0.59620  Biso   1.000  H
  C223     1.0000 0.30940  0.73250  0.05530  Biso   1.000  C
  H223     1.0000 0.32150  0.74940  0.04270  Biso   1.000  H
  C224     1.0000 0.32360  0.71960  0.08580  Biso   1.000  C
  H224     1.0000 0.34280  0.73040  0.09620  Biso   1.000  H
  C225     1.0000 0.94470  0.80940  0.76750  Biso   1.000  C
  H225     1.0000 0.95730  0.82150  0.75060  Biso   1.000  H
  C226     1.0000 0.91420  0.82360  0.78040  Biso   1.000  C
  H226     1.0000 0.90380  0.84280  0.76960  Biso   1.000  H
  C227     1.0000 0.94470  0.30940  0.26750  Biso   1.000  C
  H227     1.0000 0.95730  0.32150  0.25060  Biso   1.000  H
  C228     1.0000 0.91420  0.32360  0.28040  Biso   1.000  C
  H228     1.0000 0.90380  0.34280  0.26960  Biso   1.000  H
  C229     1.0000 0.44470  0.80940  0.26750  Biso   1.000  C
  H229     1.0000 0.45730  0.82150  0.25060  Biso   1.000  H
  C230     1.0000 0.41420  0.82360  0.28040  Biso   1.000  C
  H230     1.0000 0.40380  0.84280  0.26960  Biso   1.000  H
  C231     1.0000 0.44470  0.30940  0.76750  Biso   1.000  C
  H231     1.0000 0.45730  0.32150  0.75060  Biso   1.000  H
  C232     1.0000 0.41420  0.32360  0.78040  Biso   1.000  C
  H232     1.0000 0.40380  0.34280  0.76960  Biso   1.000  H
  C233     1.0000 0.94470  0.19060  0.23250  Biso   1.000  C
  H233     1.0000 0.95730  0.17850  0.24940  Biso   1.000  H
  C234     1.0000 0.91420  0.17640  0.21960  Biso   1.000  C
  H234     1.0000 0.90380  0.15720  0.23040  Biso   1.000  H
  C235     1.0000 0.94470  0.69060  0.73250  Biso   1.000  C
  H235     1.0000 0.95730  0.67850  0.74940  Biso   1.000  H
  C236     1.0000 0.91420  0.67640  0.71960  Biso   1.000  C
  H236     1.0000 0.90380  0.65720  0.73040  Biso   1.000  H
  C237     1.0000 0.44470  0.19060  0.73250  Biso   1.000  C
  H237     1.0000 0.45730  0.17850  0.74940  Biso   1.000  H
  C238     1.0000 0.41420  0.17640  0.71960  Biso   1.000  C
  H238     1.0000 0.40380  0.15720  0.73040  Biso   1.000  H
  C239     1.0000 0.44470  0.69060  0.23250  Biso   1.000  C
  H239     1.0000 0.45730  0.67850  0.24940  Biso   1.000  H
  C240     1.0000 0.41420  0.67640  0.21960  Biso   1.000  C
  H240     1.0000 0.40380  0.65720  0.23040  Biso   1.000  H
  C241     1.0000 0.05530  0.19060  0.76750  Biso   1.000  C
  H241     1.0000 0.04270  0.17850  0.75060  Biso   1.000  H
  C242     1.0000 0.08580  0.17640  0.78040  Biso   1.000  C
  H242     1.0000 0.09620  0.15720  0.76960  Biso   1.000  H
  C243     1.0000 0.05530  0.69060  0.26750  Biso   1.000  C
  H243     1.0000 0.04270  0.67850  0.25060  Biso   1.000  H
  C244     1.0000 0.08580  0.67640  0.28040  Biso   1.000  C
  H244     1.0000 0.09620  0.65720  0.26960  Biso   1.000  H
  C245     1.0000 0.55530  0.19060  0.26750  Biso   1.000  C
  H245     1.0000 0.54270  0.17850  0.25060  Biso   1.000  H
  C246     1.0000 0.58580  0.17640  0.28040  Biso   1.000  C
  H246     1.0000 0.59620  0.15720  0.26960  Biso   1.000  H
  C247     1.0000 0.55530  0.69060  0.76750  Biso   1.000  C
  H247     1.0000 0.54270  0.67850  0.75060  Biso   1.000  H
  C248     1.0000 0.58580  0.67640  0.78040  Biso   1.000  C
  H248     1.0000 0.59620  0.65720  0.76960  Biso   1.000  H
  C249     1.0000 0.05530  0.80940  0.23250  Biso   1.000  C
  H249     1.0000 0.04270  0.82150  0.24940  Biso   1.000  H
  C250     1.0000 0.08580  0.82360  0.21960  Biso   1.000  C
  H250     1.0000 0.09620  0.84280  0.23040  Biso   1.000  H
  C251     1.0000 0.05530  0.30940  0.73250  Biso   1.000  C
  H251     1.0000 0.04270  0.32150  0.74940  Biso   1.000  H
  C252     1.0000 0.08580  0.32360  0.71960  Biso   1.000  C
  H252     1.0000 0.09620  0.34280  0.73040  Biso   1.000  H
  C253     1.0000 0.55530  0.80940  0.73250  Biso   1.000  C
  H253     1.0000 0.54270  0.82150  0.74940  Biso   1.000  H
  C254     1.0000 0.58580  0.82360  0.71960  Biso   1.000  C
  H254     1.0000 0.59620  0.84280  0.73040  Biso   1.000  H
  C255     1.0000 0.55530  0.30940  0.23250  Biso   1.000  C
  H255     1.0000 0.54270  0.32150  0.24940  Biso   1.000  H
  C256     1.0000 0.58580  0.32360  0.21960  Biso   1.000  C
  H256     1.0000 0.59620  0.34280  0.23040  Biso   1.000  H
  C257     1.0000 0.76750  0.94470  0.80940  Biso   1.000  C
  H257     1.0000 0.75060  0.95730  0.82150  Biso   1.000  H
  C258     1.0000 0.78040  0.91420  0.82360  Biso   1.000  C
  H258     1.0000 0.76960  0.90380  0.84280  Biso   1.000  H
  C259     1.0000 0.76750  0.44470  0.30940  Biso   1.000  C
  H259     1.0000 0.75060  0.45730  0.32150  Biso   1.000  H
  C260     1.0000 0.78040  0.41420  0.32360  Biso   1.000  C
  H260     1.0000 0.76960  0.40380  0.34280  Biso   1.000  H
  C261     1.0000 0.26750  0.94470  0.30940  Biso   1.000  C
  H261     1.0000 0.25060  0.95730  0.32150  Biso   1.000  H
  C262     1.0000 0.28040  0.91420  0.32360  Biso   1.000  C
  H262     1.0000 0.26960  0.90380  0.34280  Biso   1.000  H
  C263     1.0000 0.26750  0.44470  0.80940  Biso   1.000  C
  H263     1.0000 0.25060  0.45730  0.82150  Biso   1.000  H
  C264     1.0000 0.28040  0.41420  0.82360  Biso   1.000  C
  H264     1.0000 0.26960  0.40380  0.84280  Biso   1.000  H
  C265     1.0000 0.23250  0.94470  0.19060  Biso   1.000  C
  H265     1.0000 0.24940  0.95730  0.17850  Biso   1.000  H
  C266     1.0000 0.21960  0.91420  0.17640  Biso   1.000  C
  H266     1.0000 0.23040  0.90380  0.15720  Biso   1.000  H
  C267     1.0000 0.23250  0.44470  0.69060  Biso   1.000  C
  H267     1.0000 0.24940  0.45730  0.67850  Biso   1.000  H
  C268     1.0000 0.21960  0.41420  0.67640  Biso   1.000  C
  H268     1.0000 0.23040  0.40380  0.65720  Biso   1.000  H
  C269     1.0000 0.73250  0.94470  0.69060  Biso   1.000  C
  H269     1.0000 0.74940  0.95730  0.67850  Biso   1.000  H
  C270     1.0000 0.71960  0.91420  0.67640  Biso   1.000  C
  H270     1.0000 0.73040  0.90380  0.65720  Biso   1.000  H
  C271     1.0000 0.73250  0.44470  0.19060  Biso   1.000  C
  H271     1.0000 0.74940  0.45730  0.17850  Biso   1.000  H
  C272     1.0000 0.71960  0.41420  0.17640  Biso   1.000  C
  H272     1.0000 0.73040  0.40380  0.15720  Biso   1.000  H
  C273     1.0000 0.76750  0.05530  0.19060  Biso   1.000  C
  H273     1.0000 0.75060  0.04270  0.17850  Biso   1.000  H
  C274     1.0000 0.78040  0.08580  0.17640  Biso   1.000  C
  H274     1.0000 0.76960  0.09620  0.15720  Biso   1.000  H
  C275     1.0000 0.76750  0.55530  0.69060  Biso   1.000  C
  H275     1.0000 0.75060  0.54270  0.67850  Biso   1.000  H
  C276     1.0000 0.78040  0.58580  0.67640  Biso   1.000  C
  H276     1.0000 0.76960  0.59620  0.65720  Biso   1.000  H
  C277     1.0000 0.26750  0.05530  0.69060  Biso   1.000  C
  H277     1.0000 0.25060  0.04270  0.67850  Biso   1.000  H
  C278     1.0000 0.28040  0.08580  0.67640  Biso   1.000  C
  H278     1.0000 0.26960  0.09620  0.65720  Biso   1.000  H
  C279     1.0000 0.26750  0.55530  0.19060  Biso   1.000  C
  H279     1.0000 0.25060  0.54270  0.17850  Biso   1.000  H
  C280     1.0000 0.28040  0.58580  0.17640  Biso   1.000  C
  H280     1.0000 0.26960  0.59620  0.15720  Biso   1.000  H
  C281     1.0000 0.23250  0.05530  0.80940  Biso   1.000  C
  H281     1.0000 0.24940  0.04270  0.82150  Biso   1.000  H
  C282     1.0000 0.21960  0.08580  0.82360  Biso   1.000  C
  H282     1.0000 0.23040  0.09620  0.84280  Biso   1.000  H
  C283     1.0000 0.23250  0.55530  0.30940  Biso   1.000  C
  H283     1.0000 0.24940  0.54270  0.32150  Biso   1.000  H
  C284     1.0000 0.21960  0.58580  0.32360  Biso   1.000  C
  H284     1.0000 0.23040  0.59620  0.34280  Biso   1.000  H
  C285     1.0000 0.73250  0.05530  0.30940  Biso   1.000  C
  H285     1.0000 0.74940  0.04270  0.32150  Biso   1.000  H
  C286     1.0000 0.71960  0.08580  0.32360  Biso   1.000  C
  H286     1.0000 0.73040  0.09620  0.34280  Biso   1.000  H
  C287     1.0000 0.73250  0.55530  0.80940  Biso   1.000  C
  H287     1.0000 0.74940  0.54270  0.82150  Biso   1.000  H
  C288     1.0000 0.71960  0.58580  0.82360  Biso   1.000  C
  H288     1.0000 0.73040  0.59620  0.84280  Biso   1.000  H
  C289     1.0000 0.76750  0.80940  0.05530  Biso   1.000  C
  H289     1.0000 0.75060  0.82150  0.04270  Biso   1.000  H
  C290     1.0000 0.78040  0.82360  0.08580  Biso   1.000  C
  H290     1.0000 0.76960  0.84280  0.09620  Biso   1.000  H
  C291     1.0000 0.76750  0.30940  0.55530  Biso   1.000  C
  H291     1.0000 0.75060  0.32150  0.54270  Biso   1.000  H
  C292     1.0000 0.78040  0.32360  0.58580  Biso   1.000  C
  H292     1.0000 0.76960  0.34280  0.59620  Biso   1.000  H
  C293     1.0000 0.26750  0.80940  0.55530  Biso   1.000  C
  H293     1.0000 0.25060  0.82150  0.54270  Biso   1.000  H
  C294     1.0000 0.28040  0.82360  0.58580  Biso   1.000  C
  H294     1.0000 0.26960  0.84280  0.59620  Biso   1.000  H
  C295     1.0000 0.26750  0.30940  0.05530  Biso   1.000  C
  H295     1.0000 0.25060  0.32150  0.04270  Biso   1.000  H
  C296     1.0000 0.28040  0.32360  0.08580  Biso   1.000  C
  H296     1.0000 0.26960  0.34280  0.09620  Biso   1.000  H
  C297     1.0000 0.23250  0.19060  0.05530  Biso   1.000  C
  H297     1.0000 0.24940  0.17850  0.04270  Biso   1.000  H
  C298     1.0000 0.21960  0.17640  0.08580  Biso   1.000  C
  H298     1.0000 0.23040  0.15720  0.09620  Biso   1.000  H
  C299     1.0000 0.23250  0.69060  0.55530  Biso   1.000  C
  H299     1.0000 0.24940  0.67850  0.54270  Biso   1.000  H
  C300     1.0000 0.21960  0.67640  0.58580  Biso   1.000  C
  H300     1.0000 0.23040  0.65720  0.59620  Biso   1.000  H
  C301     1.0000 0.73250  0.19060  0.55530  Biso   1.000  C
  H301     1.0000 0.74940  0.17850  0.54270  Biso   1.000  H
  C302     1.0000 0.71960  0.17640  0.58580  Biso   1.000  C
  H302     1.0000 0.73040  0.15720  0.59620  Biso   1.000  H
  C303     1.0000 0.73250  0.69060  0.05530  Biso   1.000  C
  H303     1.0000 0.74940  0.67850  0.04270  Biso   1.000  H
  C304     1.0000 0.71960  0.67640  0.08580  Biso   1.000  C
  H304     1.0000 0.73040  0.65720  0.09620  Biso   1.000  H
  C305     1.0000 0.76750  0.19060  0.94470  Biso   1.000  C
  H305     1.0000 0.75060  0.17850  0.95730  Biso   1.000  H
  C306     1.0000 0.78040  0.17640  0.91420  Biso   1.000  C
  H306     1.0000 0.76960  0.15720  0.90380  Biso   1.000  H
  C307     1.0000 0.76750  0.69060  0.44470  Biso   1.000  C
  H307     1.0000 0.75060  0.67850  0.45730  Biso   1.000  H
  C308     1.0000 0.78040  0.67640  0.41420  Biso   1.000  C
  H308     1.0000 0.76960  0.65720  0.40380  Biso   1.000  H
  C309     1.0000 0.26750  0.19060  0.44470  Biso   1.000  C
  H309     1.0000 0.25060  0.17850  0.45730  Biso   1.000  H
  C310     1.0000 0.28040  0.17640  0.41420  Biso   1.000  C
  H310     1.0000 0.26960  0.15720  0.40380  Biso   1.000  H
  C311     1.0000 0.26750  0.69060  0.94470  Biso   1.000  C
  H311     1.0000 0.25060  0.67850  0.95730  Biso   1.000  H
  C312     1.0000 0.28040  0.67640  0.91420  Biso   1.000  C
  H312     1.0000 0.26960  0.65720  0.90380  Biso   1.000  H
  C313     1.0000 0.23250  0.80940  0.94470  Biso   1.000  C
  H313     1.0000 0.24940  0.82150  0.95730  Biso   1.000  H
  C314     1.0000 0.21960  0.82360  0.91420  Biso   1.000  C
  H314     1.0000 0.23040  0.84280  0.90380  Biso   1.000  H
  C315     1.0000 0.23250  0.30940  0.44470  Biso   1.000  C
  H315     1.0000 0.24940  0.32150  0.45730  Biso   1.000  H
  C316     1.0000 0.21960  0.32360  0.41420  Biso   1.000  C
  H316     1.0000 0.23040  0.34280  0.40380  Biso   1.000  H
  C317     1.0000 0.73250  0.80940  0.44470  Biso   1.000  C
  H317     1.0000 0.74940  0.82150  0.45730  Biso   1.000  H
  C318     1.0000 0.71960  0.82360  0.41420  Biso   1.000  C
  H318     1.0000 0.73040  0.84280  0.40380  Biso   1.000  H
  C319     1.0000 0.73250  0.30940  0.94470  Biso   1.000  C
  H319     1.0000 0.74940  0.32150  0.95730  Biso   1.000  H
  C320     1.0000 0.71960  0.32360  0.91420  Biso   1.000  C
  H320     1.0000 0.73040  0.34280  0.90380  Biso   1.000  H
  C321     1.0000 0.80940  0.94470  0.23250  Biso   1.000  C
  H321     1.0000 0.82150  0.95730  0.24940  Biso   1.000  H
  C322     1.0000 0.82360  0.91420  0.21960  Biso   1.000  C
  H322     1.0000 0.84280  0.90380  0.23040  Biso   1.000  H
  C323     1.0000 0.80940  0.44470  0.73250  Biso   1.000  C
  H323     1.0000 0.82150  0.45730  0.74940  Biso   1.000  H
  C324     1.0000 0.82360  0.41420  0.71960  Biso   1.000  C
  H324     1.0000 0.84280  0.40380  0.73040  Biso   1.000  H
  C325     1.0000 0.30940  0.94470  0.73250  Biso   1.000  C
  H325     1.0000 0.32150  0.95730  0.74940  Biso   1.000  H
  C326     1.0000 0.32360  0.91420  0.71960  Biso   1.000  C
  H326     1.0000 0.34280  0.90380  0.73040  Biso   1.000  H
  C327     1.0000 0.30940  0.44470  0.23250  Biso   1.000  C
  H327     1.0000 0.32150  0.45730  0.24940  Biso   1.000  H
  C328     1.0000 0.32360  0.41420  0.21960  Biso   1.000  C
  H328     1.0000 0.34280  0.40380  0.23040  Biso   1.000  H
  C329     1.0000 0.19060  0.94470  0.76750  Biso   1.000  C
  H329     1.0000 0.17850  0.95730  0.75060  Biso   1.000  H
  C330     1.0000 0.17640  0.91420  0.78040  Biso   1.000  C
  H330     1.0000 0.15720  0.90380  0.76960  Biso   1.000  H
  C331     1.0000 0.19060  0.44470  0.26750  Biso   1.000  C
  H331     1.0000 0.17850  0.45730  0.25060  Biso   1.000  H
  C332     1.0000 0.17640  0.41420  0.28040  Biso   1.000  C
  H332     1.0000 0.15720  0.40380  0.26960  Biso   1.000  H
  C333     1.0000 0.69060  0.94470  0.26750  Biso   1.000  C
  H333     1.0000 0.67850  0.95730  0.25060  Biso   1.000  H
  C334     1.0000 0.67640  0.91420  0.28040  Biso   1.000  C
  H334     1.0000 0.65720  0.90380  0.26960  Biso   1.000  H
  C335     1.0000 0.69060  0.44470  0.76750  Biso   1.000  C
  H335     1.0000 0.67850  0.45730  0.75060  Biso   1.000  H
  C336     1.0000 0.67640  0.41420  0.78040  Biso   1.000  C
  H336     1.0000 0.65720  0.40380  0.76960  Biso   1.000  H
  C337     1.0000 0.19060  0.05530  0.23250  Biso   1.000  C
  H337     1.0000 0.17850  0.04270  0.24940  Biso   1.000  H
  C338     1.0000 0.17640  0.08580  0.21960  Biso   1.000  C
  H338     1.0000 0.15720  0.09620  0.23040  Biso   1.000  H
  C339     1.0000 0.19060  0.55530  0.73250  Biso   1.000  C
  H339     1.0000 0.17850  0.54270  0.74940  Biso   1.000  H
  C340     1.0000 0.17640  0.58580  0.71960  Biso   1.000  C
  H340     1.0000 0.15720  0.59620  0.73040  Biso   1.000  H
  C341     1.0000 0.69060  0.05530  0.73250  Biso   1.000  C
  H341     1.0000 0.67850  0.04270  0.74940  Biso   1.000  H
  C342     1.0000 0.67640  0.08580  0.71960  Biso   1.000  C
  H342     1.0000 0.65720  0.09620  0.73040  Biso   1.000  H
  C343     1.0000 0.69060  0.55530  0.23250  Biso   1.000  C
  H343     1.0000 0.67850  0.54270  0.24940  Biso   1.000  H
  C344     1.0000 0.67640  0.58580  0.21960  Biso   1.000  C
  H344     1.0000 0.65720  0.59620  0.23040  Biso   1.000  H
  C345     1.0000 0.80940  0.05530  0.76750  Biso   1.000  C
  H345     1.0000 0.82150  0.04270  0.75060  Biso   1.000  H
  C346     1.0000 0.82360  0.08580  0.78040  Biso   1.000  C
  H346     1.0000 0.84280  0.09620  0.76960  Biso   1.000  H
  C347     1.0000 0.80940  0.55530  0.26750  Biso   1.000  C
  H347     1.0000 0.82150  0.54270  0.25060  Biso   1.000  H
  C348     1.0000 0.82360  0.58580  0.28040  Biso   1.000  C
  H348     1.0000 0.84280  0.59620  0.26960  Biso   1.000  H
  C349     1.0000 0.30940  0.05530  0.26750  Biso   1.000  C
  H349     1.0000 0.32150  0.04270  0.25060  Biso   1.000  H
  C350     1.0000 0.32360  0.08580  0.28040  Biso   1.000  C
  H350     1.0000 0.34280  0.09620  0.26960  Biso   1.000  H
  C351     1.0000 0.30940  0.55530  0.76750  Biso   1.000  C
  H351     1.0000 0.32150  0.54270  0.75060  Biso   1.000  H
  C352     1.0000 0.32360  0.58580  0.78040  Biso   1.000  C
  H352     1.0000 0.34280  0.59620  0.76960  Biso   1.000  H
  C353     1.0000 0.94470  0.76750  0.19060  Biso   1.000  C
  H353     1.0000 0.95730  0.75060  0.17850  Biso   1.000  H
  C354     1.0000 0.91420  0.78040  0.17640  Biso   1.000  C
  H354     1.0000 0.90380  0.76960  0.15720  Biso   1.000  H
  C355     1.0000 0.94470  0.26750  0.69060  Biso   1.000  C
  H355     1.0000 0.95730  0.25060  0.67850  Biso   1.000  H
  C356     1.0000 0.91420  0.28040  0.67640  Biso   1.000  C
  H356     1.0000 0.90380  0.26960  0.65720  Biso   1.000  H
  C357     1.0000 0.44470  0.76750  0.69060  Biso   1.000  C
  H357     1.0000 0.45730  0.75060  0.67850  Biso   1.000  H
  C358     1.0000 0.41420  0.78040  0.67640  Biso   1.000  C
  H358     1.0000 0.40380  0.76960  0.65720  Biso   1.000  H
  C359     1.0000 0.44470  0.26750  0.19060  Biso   1.000  C
  H359     1.0000 0.45730  0.25060  0.17850  Biso   1.000  H
  C360     1.0000 0.41420  0.28040  0.17640  Biso   1.000  C
  H360     1.0000 0.40380  0.26960  0.15720  Biso   1.000  H
  C361     1.0000 0.94470  0.23250  0.80940  Biso   1.000  C
  H361     1.0000 0.95730  0.24940  0.82150  Biso   1.000  H
  C362     1.0000 0.91420  0.21960  0.82360  Biso   1.000  C
  H362     1.0000 0.90380  0.23040  0.84280  Biso   1.000  H
  C363     1.0000 0.94470  0.73250  0.30940  Biso   1.000  C
  H363     1.0000 0.95730  0.74940  0.32150  Biso   1.000  H
  C364     1.0000 0.91420  0.71960  0.32360  Biso   1.000  C
  H364     1.0000 0.90380  0.73040  0.34280  Biso   1.000  H
  C365     1.0000 0.44470  0.23250  0.30940  Biso   1.000  C
  H365     1.0000 0.45730  0.24940  0.32150  Biso   1.000  H
  C366     1.0000 0.41420  0.21960  0.32360  Biso   1.000  C
  H366     1.0000 0.40380  0.23040  0.34280  Biso   1.000  H
  C367     1.0000 0.44470  0.73250  0.80940  Biso   1.000  C
  H367     1.0000 0.45730  0.74940  0.82150  Biso   1.000  H
  C368     1.0000 0.41420  0.71960  0.82360  Biso   1.000  C
  H368     1.0000 0.40380  0.73040  0.84280  Biso   1.000  H
  C369     1.0000 0.05530  0.76750  0.80940  Biso   1.000  C
  H369     1.0000 0.04270  0.75060  0.82150  Biso   1.000  H
  C370     1.0000 0.08580  0.78040  0.82360  Biso   1.000  C
  H370     1.0000 0.09620  0.76960  0.84280  Biso   1.000  H
  C371     1.0000 0.05530  0.26750  0.30940  Biso   1.000  C
  H371     1.0000 0.04270  0.25060  0.32150  Biso   1.000  H
  C372     1.0000 0.08580  0.28040  0.32360  Biso   1.000  C
  H372     1.0000 0.09620  0.26960  0.34280  Biso   1.000  H
  C373     1.0000 0.55530  0.76750  0.30940  Biso   1.000  C
  H373     1.0000 0.54270  0.75060  0.32150  Biso   1.000  H
  C374     1.0000 0.58580  0.78040  0.32360  Biso   1.000  C
  H374     1.0000 0.59620  0.76960  0.34280  Biso   1.000  H
  C375     1.0000 0.55530  0.26750  0.80940  Biso   1.000  C
  H375     1.0000 0.54270  0.25060  0.82150  Biso   1.000  H
  C376     1.0000 0.58580  0.28040  0.82360  Biso   1.000  C
  H376     1.0000 0.59620  0.26960  0.84280  Biso   1.000  H
  C377     1.0000 0.05530  0.23250  0.19060  Biso   1.000  C
  H377     1.0000 0.04270  0.24940  0.17850  Biso   1.000  H
  C378     1.0000 0.08580  0.21960  0.17640  Biso   1.000  C
  H378     1.0000 0.09620  0.23040  0.15720  Biso   1.000  H
  C379     1.0000 0.05530  0.73250  0.69060  Biso   1.000  C
  H379     1.0000 0.04270  0.74940  0.67850  Biso   1.000  H
  C380     1.0000 0.08580  0.71960  0.67640  Biso   1.000  C
  H380     1.0000 0.09620  0.73040  0.65720  Biso   1.000  H
  C381     1.0000 0.55530  0.23250  0.69060  Biso   1.000  C
  H381     1.0000 0.54270  0.24940  0.67850  Biso   1.000  H
  C382     1.0000 0.58580  0.21960  0.67640  Biso   1.000  C
  H382     1.0000 0.59620  0.23040  0.65720  Biso   1.000  H
  C383     1.0000 0.55530  0.73250  0.19060  Biso   1.000  C
  H383     1.0000 0.54270  0.74940  0.17850  Biso   1.000  H
  C384     1.0000 0.58580  0.71960  0.17640  Biso   1.000  C
  H384     1.0000 0.59620  0.73040  0.15720  Biso   1.000  H
  Fe1      1.0000 0.25000  0.25000  0.00000  Biso   1.000  Fe
  Fe2      1.0000 0.25000  0.75000  0.50000  Biso   1.000  Fe
  Fe3      1.0000 0.75000  0.75000  0.00000  Biso   1.000  Fe
  Fe4      1.0000 0.75000  0.25000  0.50000  Biso   1.000  Fe
  Fe5      1.0000 0.75000  0.25000  0.00000  Biso   1.000  Fe
  Fe6      1.0000 0.75000  0.75000  0.50000  Biso   1.000  Fe
  Fe7      1.0000 0.25000  0.25000  0.50000  Biso   1.000  Fe
  Fe8      1.0000 0.25000  0.75000  0.00000  Biso   1.000  Fe
  Fe9      1.0000 0.00000  0.25000  0.25000  Biso   1.000  Fe
  Fe10     1.0000 0.50000  0.25000  0.75000  Biso   1.000  Fe
  Fe11     1.0000 0.00000  0.75000  0.75000  Biso   1.000  Fe
  Fe12     1.0000 0.50000  0.75000  0.25000  Biso   1.000  Fe
  Fe13     1.0000 0.00000  0.75000  0.25000  Biso   1.000  Fe
  Fe14     1.0000 0.50000  0.75000  0.75000  Biso   1.000  Fe
  Fe15     1.0000 0.50000  0.25000  0.25000  Biso   1.000  Fe
  Fe16     1.0000 0.00000  0.25000  0.75000  Biso   1.000  Fe
  Fe17     1.0000 0.25000  0.00000  0.25000  Biso   1.000  Fe
  Fe18     1.0000 0.25000  0.50000  0.75000  Biso   1.000  Fe
  Fe19     1.0000 0.75000  0.00000  0.75000  Biso   1.000  Fe
  Fe20     1.0000 0.75000  0.50000  0.25000  Biso   1.000  Fe
  Fe21     1.0000 0.25000  0.00000  0.75000  Biso   1.000  Fe
  Fe22     1.0000 0.25000  0.50000  0.25000  Biso   1.000  Fe
  Fe23     1.0000 0.75000  0.00000  0.25000  Biso   1.000  Fe
  Fe24     1.0000 0.75000  0.50000  0.75000  Biso   1.000  Fe
  N1       1.0000 0.28860  0.21140  0.00000  Biso   1.000  N
  N2       1.0000 0.28860  0.71140  0.50000  Biso   1.000  N
  N3       1.0000 0.71140  0.78860  0.00000  Biso   1.000  N
  N4       1.0000 0.71140  0.28860  0.50000  Biso   1.000  N
  N5       1.0000 0.21140  0.28860  0.00000  Biso   1.000  N
  N6       1.0000 0.71140  0.21140  0.00000  Biso   1.000  N
  N7       1.0000 0.71140  0.71140  0.50000  Biso   1.000  N
  N8       1.0000 0.21140  0.21140  0.50000  Biso   1.000  N
  N9       1.0000 0.28860  0.78860  0.00000  Biso   1.000  N
  N10      1.0000 0.28860  0.28860  0.50000  Biso   1.000  N
  N11      1.0000 0.00000  0.28860  0.21140  Biso   1.000  N
  N12      1.0000 0.50000  0.28860  0.71140  Biso   1.000  N
  N13      1.0000 0.00000  0.71140  0.78860  Biso   1.000  N
  N14      1.0000 0.00000  0.21140  0.28860  Biso   1.000  N
  N15      1.0000 0.50000  0.71140  0.28860  Biso   1.000  N
  N16      1.0000 0.00000  0.71140  0.21140  Biso   1.000  N
  N17      1.0000 0.50000  0.71140  0.71140  Biso   1.000  N
  N18      1.0000 0.50000  0.21140  0.21140  Biso   1.000  N
  N19      1.0000 0.00000  0.28860  0.78860  Biso   1.000  N
  N20      1.0000 0.50000  0.28860  0.28860  Biso   1.000  N
  N21      1.0000 0.21140  0.00000  0.28860  Biso   1.000  N
  N22      1.0000 0.21140  0.50000  0.78860  Biso   1.000  N
  N23      1.0000 0.78860  0.00000  0.71140  Biso   1.000  N
  N24      1.0000 0.78860  0.50000  0.21140  Biso   1.000  N
  N25      1.0000 0.28860  0.00000  0.21140  Biso   1.000  N
  N26      1.0000 0.21140  0.00000  0.71140  Biso   1.000  N
  N27      1.0000 0.21140  0.50000  0.21140  Biso   1.000  N
  N28      1.0000 0.78860  0.00000  0.28860  Biso   1.000  N
  N29      1.0000 0.78860  0.50000  0.78860  Biso   1.000  N
  N30      1.0000 0.28860  0.50000  0.28860  Biso   1.000  N
  N31      1.0000 0.21140  0.78860  0.50000  Biso   1.000  N
  N32      1.0000 0.78860  0.71140  0.00000  Biso   1.000  N
  N33      1.0000 0.78860  0.21140  0.50000  Biso   1.000  N
  N34      1.0000 0.21140  0.71140  0.00000  Biso   1.000  N
  N35      1.0000 0.78860  0.28860  0.00000  Biso   1.000  N
  N36      1.0000 0.78860  0.78860  0.50000  Biso   1.000  N
  N37      1.0000 0.28860  0.00000  0.78860  Biso   1.000  N
  N38      1.0000 0.71140  0.00000  0.21140  Biso   1.000  N
  N39      1.0000 0.71140  0.50000  0.71140  Biso   1.000  N
  N40      1.0000 0.71140  0.00000  0.78860  Biso   1.000  N
  N41      1.0000 0.71140  0.50000  0.28860  Biso   1.000  N
  N42      1.0000 0.28860  0.50000  0.71140  Biso   1.000  N
  N43      1.0000 0.00000  0.21140  0.71140  Biso   1.000  N
  N44      1.0000 0.00000  0.78860  0.28860  Biso   1.000  N
  N45      1.0000 0.50000  0.78860  0.78860  Biso   1.000  N
  N46      1.0000 0.50000  0.21140  0.78860  Biso   1.000  N
  N47      1.0000 0.00000  0.78860  0.71140  Biso   1.000  N
  N48      1.0000 0.50000  0.78860  0.21140  Biso   1.000  N
  C385     1.0000 0.30240  0.18450  0.00000  Biso   1.000  C
  S1       1.0000 0.32620  0.15320  0.00000  Biso   1.000  S
  C386     1.0000 0.30240  0.68450  0.50000  Biso   1.000  C
  S2       1.0000 0.32620  0.65320  0.50000  Biso   1.000  S
  C387     1.0000 0.80240  0.18450  0.50000  Biso   1.000  C
  S3       1.0000 0.82620  0.15320  0.50000  Biso   1.000  S
  C388     1.0000 0.80240  0.68450  0.00000  Biso   1.000  C
  S4       1.0000 0.82620  0.65320  0.00000  Biso   1.000  S
  C389     1.0000 0.69760  0.81550  0.00000  Biso   1.000  C
  S5       1.0000 0.67380  0.84680  0.00000  Biso   1.000  S
  C390     1.0000 0.69760  0.31550  0.50000  Biso   1.000  C
  S6       1.0000 0.67380  0.34680  0.50000  Biso   1.000  S
  C391     1.0000 0.19760  0.81550  0.50000  Biso   1.000  C
  S7       1.0000 0.17380  0.84680  0.50000  Biso   1.000  S
  C392     1.0000 0.19760  0.31550  0.00000  Biso   1.000  C
  S8       1.0000 0.17380  0.34680  0.00000  Biso   1.000  S
  C393     1.0000 0.69760  0.18450  0.00000  Biso   1.000  C
  S9       1.0000 0.67380  0.15320  0.00000  Biso   1.000  S
  C394     1.0000 0.69760  0.68450  0.50000  Biso   1.000  C
  S10      1.0000 0.67380  0.65320  0.50000  Biso   1.000  S
  C395     1.0000 0.19760  0.18450  0.50000  Biso   1.000  C
  S11      1.0000 0.17380  0.15320  0.50000  Biso   1.000  S
  C396     1.0000 0.19760  0.68450  0.00000  Biso   1.000  C
  S12      1.0000 0.17380  0.65320  0.00000  Biso   1.000  S
  C397     1.0000 0.30240  0.81550  0.00000  Biso   1.000  C
  S13      1.0000 0.32620  0.84680  0.00000  Biso   1.000  S
  C398     1.0000 0.30240  0.31550  0.50000  Biso   1.000  C
  S14      1.0000 0.32620  0.34680  0.50000  Biso   1.000  S
  C399     1.0000 0.80240  0.81550  0.50000  Biso   1.000  C
  S15      1.0000 0.82620  0.84680  0.50000  Biso   1.000  S
  C400     1.0000 0.80240  0.31550  0.00000  Biso   1.000  C
  S16      1.0000 0.82620  0.34680  0.00000  Biso   1.000  S
  C401     1.0000 0.00000  0.30240  0.18450  Biso   1.000  C
  S17      1.0000 0.00000  0.32620  0.15320  Biso   1.000  S
  C402     1.0000 0.00000  0.80240  0.68450  Biso   1.000  C
  S18      1.0000 0.00000  0.82620  0.65320  Biso   1.000  S
  C403     1.0000 0.50000  0.30240  0.68450  Biso   1.000  C
  S19      1.0000 0.50000  0.32620  0.65320  Biso   1.000  S
  C404     1.0000 0.50000  0.80240  0.18450  Biso   1.000  C
  S20      1.0000 0.50000  0.82620  0.15320  Biso   1.000  S
  C405     1.0000 0.00000  0.69760  0.81550  Biso   1.000  C
  S21      1.0000 0.00000  0.67380  0.84680  Biso   1.000  S
  C406     1.0000 0.00000  0.19760  0.31550  Biso   1.000  C
  S22      1.0000 0.00000  0.17380  0.34680  Biso   1.000  S
  C407     1.0000 0.50000  0.69760  0.31550  Biso   1.000  C
  S23      1.0000 0.50000  0.67380  0.34680  Biso   1.000  S
  C408     1.0000 0.50000  0.19760  0.81550  Biso   1.000  C
  S24      1.0000 0.50000  0.17380  0.84680  Biso   1.000  S
  C409     1.0000 0.00000  0.69760  0.18450  Biso   1.000  C
  S25      1.0000 0.00000  0.67380  0.15320  Biso   1.000  S
  C410     1.0000 0.00000  0.19760  0.68450  Biso   1.000  C
  S26      1.0000 0.00000  0.17380  0.65320  Biso   1.000  S
  C411     1.0000 0.50000  0.69760  0.68450  Biso   1.000  C
  S27      1.0000 0.50000  0.67380  0.65320  Biso   1.000  S
  C412     1.0000 0.50000  0.19760  0.18450  Biso   1.000  C
  S28      1.0000 0.50000  0.17380  0.15320  Biso   1.000  S
  C413     1.0000 0.00000  0.30240  0.81550  Biso   1.000  C
  S29      1.0000 0.00000  0.32620  0.84680  Biso   1.000  S
  C414     1.0000 0.00000  0.80240  0.31550  Biso   1.000  C
  S30      1.0000 0.00000  0.82620  0.34680  Biso   1.000  S
  C415     1.0000 0.50000  0.30240  0.31550  Biso   1.000  C
  S31      1.0000 0.50000  0.32620  0.34680  Biso   1.000  S
  C416     1.0000 0.50000  0.80240  0.81550  Biso   1.000  C
  S32      1.0000 0.50000  0.82620  0.84680  Biso   1.000  S
  C417     1.0000 0.18450  0.00000  0.30240  Biso   1.000  C
  S33      1.0000 0.15320  0.00000  0.32620  Biso   1.000  S
  C418     1.0000 0.18450  0.50000  0.80240  Biso   1.000  C
  S34      1.0000 0.15320  0.50000  0.82620  Biso   1.000  S
  C419     1.0000 0.68450  0.00000  0.80240  Biso   1.000  C
  S35      1.0000 0.65320  0.00000  0.82620  Biso   1.000  S
  C420     1.0000 0.68450  0.50000  0.30240  Biso   1.000  C
  S36      1.0000 0.65320  0.50000  0.32620  Biso   1.000  S
  C421     1.0000 0.81550  0.00000  0.69760  Biso   1.000  C
  S37      1.0000 0.84680  0.00000  0.67380  Biso   1.000  S
  C422     1.0000 0.81550  0.50000  0.19760  Biso   1.000  C
  S38      1.0000 0.84680  0.50000  0.17380  Biso   1.000  S
  C423     1.0000 0.31550  0.00000  0.19760  Biso   1.000  C
  S39      1.0000 0.34680  0.00000  0.17380  Biso   1.000  S
  C424     1.0000 0.31550  0.50000  0.69760  Biso   1.000  C
  S40      1.0000 0.34680  0.50000  0.67380  Biso   1.000  S
  C425     1.0000 0.18450  0.00000  0.69760  Biso   1.000  C
  S41      1.0000 0.15320  0.00000  0.67380  Biso   1.000  S
  C426     1.0000 0.18450  0.50000  0.19760  Biso   1.000  C
  S42      1.0000 0.15320  0.50000  0.17380  Biso   1.000  S
  C427     1.0000 0.68450  0.00000  0.19760  Biso   1.000  C
  S43      1.0000 0.65320  0.00000  0.17380  Biso   1.000  S
  C428     1.0000 0.68450  0.50000  0.69760  Biso   1.000  C
  S44      1.0000 0.65320  0.50000  0.67380  Biso   1.000  S
  C429     1.0000 0.81550  0.00000  0.30240  Biso   1.000  C
  S45      1.0000 0.84680  0.00000  0.32620  Biso   1.000  S
  C430     1.0000 0.81550  0.50000  0.80240  Biso   1.000  C
  S46      1.0000 0.84680  0.50000  0.82620  Biso   1.000  S
  C431     1.0000 0.31550  0.00000  0.80240  Biso   1.000  C
  S47      1.0000 0.34680  0.00000  0.82620  Biso   1.000  S
  C432     1.0000 0.31550  0.50000  0.30240  Biso   1.000  C
  S48      1.0000 0.34680  0.50000  0.32620  Biso   1.000  S
  C433     1.0000 0.18450  0.30240  0.00000  Biso   1.000  C
  S49      1.0000 0.15320  0.32620  0.00000  Biso   1.000  S
  C434     1.0000 0.18450  0.80240  0.50000  Biso   1.000  C
  S50      1.0000 0.15320  0.82620  0.50000  Biso   1.000  S
  C435     1.0000 0.68450  0.30240  0.50000  Biso   1.000  C
  S51      1.0000 0.65320  0.32620  0.50000  Biso   1.000  S
  C436     1.0000 0.68450  0.80240  0.00000  Biso   1.000  C
  S52      1.0000 0.65320  0.82620  0.00000  Biso   1.000  S
  C437     1.0000 0.81550  0.69760  0.00000  Biso   1.000  C
  S53      1.0000 0.84680  0.67380  0.00000  Biso   1.000  S
  C438     1.0000 0.81550  0.19760  0.50000  Biso   1.000  C
  S54      1.0000 0.84680  0.17380  0.50000  Biso   1.000  S
  C439     1.0000 0.31550  0.69760  0.50000  Biso   1.000  C
  S55      1.0000 0.34680  0.67380  0.50000  Biso   1.000  S
  C440     1.0000 0.31550  0.19760  0.00000  Biso   1.000  C
  S56      1.0000 0.34680  0.17380  0.00000  Biso   1.000  S
  C441     1.0000 0.18450  0.69760  0.00000  Biso   1.000  C
  S57      1.0000 0.15320  0.67380  0.00000  Biso   1.000  S
  C442     1.0000 0.18450  0.19760  0.50000  Biso   1.000  C
  S58      1.0000 0.15320  0.17380  0.50000  Biso   1.000  S
  C443     1.0000 0.68450  0.69760  0.50000  Biso   1.000  C
  S59      1.0000 0.65320  0.67380  0.50000  Biso   1.000  S
  C444     1.0000 0.68450  0.19760  0.00000  Biso   1.000  C
  S60      1.0000 0.65320  0.17380  0.00000  Biso   1.000  S
  C445     1.0000 0.81550  0.30240  0.00000  Biso   1.000  C
  S61      1.0000 0.84680  0.32620  0.00000  Biso   1.000  S
  C446     1.0000 0.81550  0.80240  0.50000  Biso   1.000  C
  S62      1.0000 0.84680  0.82620  0.50000  Biso   1.000  S
  C447     1.0000 0.31550  0.30240  0.50000  Biso   1.000  C
  S63      1.0000 0.34680  0.32620  0.50000  Biso   1.000  S
  C448     1.0000 0.31550  0.80240  0.00000  Biso   1.000  C
  S64      1.0000 0.34680  0.82620  0.00000  Biso   1.000  S
  C449     1.0000 0.30240  0.00000  0.81550  Biso   1.000  C
  S65      1.0000 0.32620  0.00000  0.84680  Biso   1.000  S
  C450     1.0000 0.30240  0.50000  0.31550  Biso   1.000  C
  S66      1.0000 0.32620  0.50000  0.34680  Biso   1.000  S
  C451     1.0000 0.80240  0.00000  0.31550  Biso   1.000  C
  S67      1.0000 0.82620  0.00000  0.34680  Biso   1.000  S
  C452     1.0000 0.80240  0.50000  0.81550  Biso   1.000  C
  S68      1.0000 0.82620  0.50000  0.84680  Biso   1.000  S
  C453     1.0000 0.69760  0.00000  0.18450  Biso   1.000  C
  S69      1.0000 0.67380  0.00000  0.15320  Biso   1.000  S
  C454     1.0000 0.69760  0.50000  0.68450  Biso   1.000  C
  S70      1.0000 0.67380  0.50000  0.65320  Biso   1.000  S
  C455     1.0000 0.19760  0.00000  0.68450  Biso   1.000  C
  S71      1.0000 0.17380  0.00000  0.65320  Biso   1.000  S
  C456     1.0000 0.19760  0.50000  0.18450  Biso   1.000  C
  S72      1.0000 0.17380  0.50000  0.15320  Biso   1.000  S
  C457     1.0000 0.69760  0.00000  0.81550  Biso   1.000  C
  S73      1.0000 0.67380  0.00000  0.84680  Biso   1.000  S
  C458     1.0000 0.69760  0.50000  0.31550  Biso   1.000  C
  S74      1.0000 0.67380  0.50000  0.34680  Biso   1.000  S
  C459     1.0000 0.19760  0.00000  0.31550  Biso   1.000  C
  S75      1.0000 0.17380  0.00000  0.34680  Biso   1.000  S
  C460     1.0000 0.19760  0.50000  0.81550  Biso   1.000  C
  S76      1.0000 0.17380  0.50000  0.84680  Biso   1.000  S
  C461     1.0000 0.30240  0.00000  0.18450  Biso   1.000  C
  S77      1.0000 0.32620  0.00000  0.15320  Biso   1.000  S
  C462     1.0000 0.30240  0.50000  0.68450  Biso   1.000  C
  S78      1.0000 0.32620  0.50000  0.65320  Biso   1.000  S
  C463     1.0000 0.80240  0.00000  0.68450  Biso   1.000  C
  S79      1.0000 0.82620  0.00000  0.65320  Biso   1.000  S
  C464     1.0000 0.80240  0.50000  0.18450  Biso   1.000  C
  S80      1.0000 0.82620  0.50000  0.15320  Biso   1.000  S
  C465     1.0000 0.00000  0.18450  0.69760  Biso   1.000  C
  S81      1.0000 0.00000  0.15320  0.67380  Biso   1.000  S
  C466     1.0000 0.00000  0.68450  0.19760  Biso   1.000  C
  S82      1.0000 0.00000  0.65320  0.17380  Biso   1.000  S
  C467     1.0000 0.50000  0.18450  0.19760  Biso   1.000  C
  S83      1.0000 0.50000  0.15320  0.17380  Biso   1.000  S
  C468     1.0000 0.50000  0.68450  0.69760  Biso   1.000  C
  S84      1.0000 0.50000  0.65320  0.67380  Biso   1.000  S
  C469     1.0000 0.00000  0.81550  0.30240  Biso   1.000  C
  S85      1.0000 0.00000  0.84680  0.32620  Biso   1.000  S
  C470     1.0000 0.00000  0.31550  0.80240  Biso   1.000  C
  S86      1.0000 0.00000  0.34680  0.82620  Biso   1.000  S
  C471     1.0000 0.50000  0.81550  0.80240  Biso   1.000  C
  S87      1.0000 0.50000  0.84680  0.82620  Biso   1.000  S
  C472     1.0000 0.50000  0.31550  0.30240  Biso   1.000  C
  S88      1.0000 0.50000  0.34680  0.32620  Biso   1.000  S
  C473     1.0000 0.00000  0.18450  0.30240  Biso   1.000  C
  S89      1.0000 0.00000  0.15320  0.32620  Biso   1.000  S
  C474     1.0000 0.00000  0.68450  0.80240  Biso   1.000  C
  S90      1.0000 0.00000  0.65320  0.82620  Biso   1.000  S
  C475     1.0000 0.50000  0.18450  0.80240  Biso   1.000  C
  S91      1.0000 0.50000  0.15320  0.82620  Biso   1.000  S
  C476     1.0000 0.50000  0.68450  0.30240  Biso   1.000  C
  S92      1.0000 0.50000  0.65320  0.32620  Biso   1.000  S
  C477     1.0000 0.00000  0.81550  0.69760  Biso   1.000  C
  S93      1.0000 0.00000  0.84680  0.67380  Biso   1.000  S
  C478     1.0000 0.00000  0.31550  0.19760  Biso   1.000  C
  S94      1.0000 0.00000  0.34680  0.17380  Biso   1.000  S
  C479     1.0000 0.50000  0.81550  0.19760  Biso   1.000  C
  S95      1.0000 0.50000  0.84680  0.17380  Biso   1.000  S
  C480     1.0000 0.50000  0.31550  0.69760  Biso   1.000  C
  S96      1.0000 0.50000  0.34680  0.67380  Biso   1.000  S
  N49      1.0000 0.22140  0.22140  0.04350  Biso   1.000  N
  C481     1.0000 0.19080  0.19080  0.10030  Biso   1.000  C
  C482     1.0000 0.17370  0.17370  0.13260  Biso   1.000  C
  N50      1.0000 0.22140  0.72140  0.54350  Biso   1.000  N
  C483     1.0000 0.19080  0.69080  0.60030  Biso   1.000  C
  C484     1.0000 0.17370  0.67370  0.63260  Biso   1.000  C
  N51      1.0000 0.72140  0.22140  0.54350  Biso   1.000  N
  C485     1.0000 0.69080  0.19080  0.60030  Biso   1.000  C
  C486     1.0000 0.67370  0.17370  0.63260  Biso   1.000  C
  N52      1.0000 0.72140  0.72140  0.04350  Biso   1.000  N
  C487     1.0000 0.69080  0.69080  0.10030  Biso   1.000  C
  C488     1.0000 0.67370  0.67370  0.13260  Biso   1.000  C
  N53      1.0000 0.77860  0.77860  0.04350  Biso   1.000  N
  C489     1.0000 0.80920  0.80920  0.10030  Biso   1.000  C
  C490     1.0000 0.82630  0.82630  0.13260  Biso   1.000  C
  N54      1.0000 0.77860  0.27860  0.54350  Biso   1.000  N
  C491     1.0000 0.80920  0.30920  0.60030  Biso   1.000  C
  C492     1.0000 0.82630  0.32630  0.63260  Biso   1.000  C
  N55      1.0000 0.27860  0.77860  0.54350  Biso   1.000  N
  C493     1.0000 0.30920  0.80920  0.60030  Biso   1.000  C
  C494     1.0000 0.32630  0.82630  0.63260  Biso   1.000  C
  N56      1.0000 0.27860  0.27860  0.04350  Biso   1.000  N
  C495     1.0000 0.30920  0.30920  0.10030  Biso   1.000  C
  C496     1.0000 0.32630  0.32630  0.13260  Biso   1.000  C
  N57      1.0000 0.77860  0.22140  0.95650  Biso   1.000  N
  C497     1.0000 0.80920  0.19080  0.89970  Biso   1.000  C
  C498     1.0000 0.82630  0.17370  0.86740  Biso   1.000  C
  N58      1.0000 0.77860  0.72140  0.45650  Biso   1.000  N
  C499     1.0000 0.80920  0.69080  0.39970  Biso   1.000  C
  C500     1.0000 0.82630  0.67370  0.36740  Biso   1.000  C
  N59      1.0000 0.27860  0.22140  0.45650  Biso   1.000  N
  C501     1.0000 0.30920  0.19080  0.39970  Biso   1.000  C
  C502     1.0000 0.32630  0.17370  0.36740  Biso   1.000  C
  N60      1.0000 0.27860  0.72140  0.95650  Biso   1.000  N
  C503     1.0000 0.30920  0.69080  0.89970  Biso   1.000  C
  C504     1.0000 0.32630  0.67370  0.86740  Biso   1.000  C
  N61      1.0000 0.22140  0.77860  0.95650  Biso   1.000  N
  C505     1.0000 0.19080  0.80920  0.89970  Biso   1.000  C
  C506     1.0000 0.17370  0.82630  0.86740  Biso   1.000  C
  N62      1.0000 0.22140  0.27860  0.45650  Biso   1.000  N
  C507     1.0000 0.19080  0.30920  0.39970  Biso   1.000  C
  C508     1.0000 0.17370  0.32630  0.36740  Biso   1.000  C
  N63      1.0000 0.72140  0.77860  0.45650  Biso   1.000  N
  C509     1.0000 0.69080  0.80920  0.39970  Biso   1.000  C
  C510     1.0000 0.67370  0.82630  0.36740  Biso   1.000  C
  N64      1.0000 0.72140  0.27860  0.95650  Biso   1.000  N
  C511     1.0000 0.69080  0.30920  0.89970  Biso   1.000  C
  C512     1.0000 0.67370  0.32630  0.86740  Biso   1.000  C
  N65      1.0000 0.04350  0.22140  0.22140  Biso   1.000  N
  C513     1.0000 0.10030  0.19080  0.19080  Biso   1.000  C
  C514     1.0000 0.13260  0.17370  0.17370  Biso   1.000  C
  N66      1.0000 0.04350  0.72140  0.72140  Biso   1.000  N
  C515     1.0000 0.10030  0.69080  0.69080  Biso   1.000  C
  C516     1.0000 0.13260  0.67370  0.67370  Biso   1.000  C
  N67      1.0000 0.54350  0.22140  0.72140  Biso   1.000  N
  C517     1.0000 0.60030  0.19080  0.69080  Biso   1.000  C
  C518     1.0000 0.63260  0.17370  0.67370  Biso   1.000  C
  N68      1.0000 0.54350  0.72140  0.22140  Biso   1.000  N
  C519     1.0000 0.60030  0.69080  0.19080  Biso   1.000  C
  C520     1.0000 0.63260  0.67370  0.17370  Biso   1.000  C
  N69      1.0000 0.04350  0.77860  0.77860  Biso   1.000  N
  C521     1.0000 0.10030  0.80920  0.80920  Biso   1.000  C
  C522     1.0000 0.13260  0.82630  0.82630  Biso   1.000  C
  N70      1.0000 0.04350  0.27860  0.27860  Biso   1.000  N
  C523     1.0000 0.10030  0.30920  0.30920  Biso   1.000  C
  C524     1.0000 0.13260  0.32630  0.32630  Biso   1.000  C
  N71      1.0000 0.54350  0.77860  0.27860  Biso   1.000  N
  C525     1.0000 0.60030  0.80920  0.30920  Biso   1.000  C
  C526     1.0000 0.63260  0.82630  0.32630  Biso   1.000  C
  N72      1.0000 0.54350  0.27860  0.77860  Biso   1.000  N
  C527     1.0000 0.60030  0.30920  0.80920  Biso   1.000  C
  C528     1.0000 0.63260  0.32630  0.82630  Biso   1.000  C
  N73      1.0000 0.95650  0.77860  0.22140  Biso   1.000  N
  C529     1.0000 0.89970  0.80920  0.19080  Biso   1.000  C
  C530     1.0000 0.86740  0.82630  0.17370  Biso   1.000  C
  N74      1.0000 0.95650  0.27860  0.72140  Biso   1.000  N
  C531     1.0000 0.89970  0.30920  0.69080  Biso   1.000  C
  C532     1.0000 0.86740  0.32630  0.67370  Biso   1.000  C
  N75      1.0000 0.45650  0.77860  0.72140  Biso   1.000  N
  C533     1.0000 0.39970  0.80920  0.69080  Biso   1.000  C
  C534     1.0000 0.36740  0.82630  0.67370  Biso   1.000  C
  N76      1.0000 0.45650  0.27860  0.22140  Biso   1.000  N
  C535     1.0000 0.39970  0.30920  0.19080  Biso   1.000  C
  C536     1.0000 0.36740  0.32630  0.17370  Biso   1.000  C
  N77      1.0000 0.95650  0.22140  0.77860  Biso   1.000  N
  C537     1.0000 0.89970  0.19080  0.80920  Biso   1.000  C
  C538     1.0000 0.86740  0.17370  0.82630  Biso   1.000  C
  N78      1.0000 0.95650  0.72140  0.27860  Biso   1.000  N
  C539     1.0000 0.89970  0.69080  0.30920  Biso   1.000  C
  C540     1.0000 0.86740  0.67370  0.32630  Biso   1.000  C
  N79      1.0000 0.45650  0.22140  0.27860  Biso   1.000  N
  C541     1.0000 0.39970  0.19080  0.30920  Biso   1.000  C
  C542     1.0000 0.36740  0.17370  0.32630  Biso   1.000  C
  N80      1.0000 0.45650  0.72140  0.77860  Biso   1.000  N
  C543     1.0000 0.39970  0.69080  0.80920  Biso   1.000  C
  C544     1.0000 0.36740  0.67370  0.82630  Biso   1.000  C
  N81      1.0000 0.22140  0.04350  0.22140  Biso   1.000  N
  C545     1.0000 0.19080  0.10030  0.19080  Biso   1.000  C
  C546     1.0000 0.17370  0.13260  0.17370  Biso   1.000  C
  N82      1.0000 0.22140  0.54350  0.72140  Biso   1.000  N
  C547     1.0000 0.19080  0.60030  0.69080  Biso   1.000  C
  C548     1.0000 0.17370  0.63260  0.67370  Biso   1.000  C
  N83      1.0000 0.72140  0.04350  0.72140  Biso   1.000  N
  C549     1.0000 0.69080  0.10030  0.69080  Biso   1.000  C
  C550     1.0000 0.67370  0.13260  0.67370  Biso   1.000  C
  N84      1.0000 0.72140  0.54350  0.22140  Biso   1.000  N
  C551     1.0000 0.69080  0.60030  0.19080  Biso   1.000  C
  C552     1.0000 0.67370  0.63260  0.17370  Biso   1.000  C
  N85      1.0000 0.77860  0.04350  0.77860  Biso   1.000  N
  C553     1.0000 0.80920  0.10030  0.80920  Biso   1.000  C
  C554     1.0000 0.82630  0.13260  0.82630  Biso   1.000  C
  N86      1.0000 0.77860  0.54350  0.27860  Biso   1.000  N
  C555     1.0000 0.80920  0.60030  0.30920  Biso   1.000  C
  C556     1.0000 0.82630  0.63260  0.32630  Biso   1.000  C
  N87      1.0000 0.27860  0.04350  0.27860  Biso   1.000  N
  C557     1.0000 0.30920  0.10030  0.30920  Biso   1.000  C
  C558     1.0000 0.32630  0.13260  0.32630  Biso   1.000  C
  N88      1.0000 0.27860  0.54350  0.77860  Biso   1.000  N
  C559     1.0000 0.30920  0.60030  0.80920  Biso   1.000  C
  C560     1.0000 0.32630  0.63260  0.82630  Biso   1.000  C
  N89      1.0000 0.22140  0.95650  0.77860  Biso   1.000  N
  C561     1.0000 0.19080  0.89970  0.80920  Biso   1.000  C
  C562     1.0000 0.17370  0.86740  0.82630  Biso   1.000  C
  N90      1.0000 0.22140  0.45650  0.27860  Biso   1.000  N
  C563     1.0000 0.19080  0.39970  0.30920  Biso   1.000  C
  C564     1.0000 0.17370  0.36740  0.32630  Biso   1.000  C
  N91      1.0000 0.72140  0.95650  0.27860  Biso   1.000  N
  C565     1.0000 0.69080  0.89970  0.30920  Biso   1.000  C
  C566     1.0000 0.67370  0.86740  0.32630  Biso   1.000  C
  N92      1.0000 0.72140  0.45650  0.77860  Biso   1.000  N
  C567     1.0000 0.69080  0.39970  0.80920  Biso   1.000  C
  C568     1.0000 0.67370  0.36740  0.82630  Biso   1.000  C
  N93      1.0000 0.77860  0.95650  0.22140  Biso   1.000  N
  C569     1.0000 0.80920  0.89970  0.19080  Biso   1.000  C
  C570     1.0000 0.82630  0.86740  0.17370  Biso   1.000  C
  N94      1.0000 0.77860  0.45650  0.72140  Biso   1.000  N
  C571     1.0000 0.80920  0.39970  0.69080  Biso   1.000  C
  C572     1.0000 0.82630  0.36740  0.67370  Biso   1.000  C
  N95      1.0000 0.27860  0.95650  0.72140  Biso   1.000  N
  C573     1.0000 0.30920  0.89970  0.69080  Biso   1.000  C
  C574     1.0000 0.32630  0.86740  0.67370  Biso   1.000  C
  N96      1.0000 0.27860  0.45650  0.22140  Biso   1.000  N
  C575     1.0000 0.30920  0.39970  0.19080  Biso   1.000  C
  C576     1.0000 0.32630  0.36740  0.17370  Biso   1.000  C
  N97      1.0000 0.22140  0.22140  0.95650  Biso   1.000  N
  C577     1.0000 0.19080  0.19080  0.89970  Biso   1.000  C
  C578     1.0000 0.17370  0.17370  0.86740  Biso   1.000  C
  N98      1.0000 0.22140  0.72140  0.45650  Biso   1.000  N
  C579     1.0000 0.19080  0.69080  0.39970  Biso   1.000  C
  C580     1.0000 0.17370  0.67370  0.36740  Biso   1.000  C
  N99      1.0000 0.72140  0.22140  0.45650  Biso   1.000  N
  C581     1.0000 0.69080  0.19080  0.39970  Biso   1.000  C
  C582     1.0000 0.67370  0.17370  0.36740  Biso   1.000  C
  N100     1.0000 0.72140  0.72140  0.95650  Biso   1.000  N
  C583     1.0000 0.69080  0.69080  0.89970  Biso   1.000  C
  C584     1.0000 0.67370  0.67370  0.86740  Biso   1.000  C
  N101     1.0000 0.77860  0.77860  0.95650  Biso   1.000  N
  C585     1.0000 0.80920  0.80920  0.89970  Biso   1.000  C
  C586     1.0000 0.82630  0.82630  0.86740  Biso   1.000  C
  N102     1.0000 0.77860  0.27860  0.45650  Biso   1.000  N
  C587     1.0000 0.80920  0.30920  0.39970  Biso   1.000  C
  C588     1.0000 0.82630  0.32630  0.36740  Biso   1.000  C
  N103     1.0000 0.27860  0.77860  0.45650  Biso   1.000  N
  C589     1.0000 0.30920  0.80920  0.39970  Biso   1.000  C
  C590     1.0000 0.32630  0.82630  0.36740  Biso   1.000  C
  N104     1.0000 0.27860  0.27860  0.95650  Biso   1.000  N
  C591     1.0000 0.30920  0.30920  0.89970  Biso   1.000  C
  C592     1.0000 0.32630  0.32630  0.86740  Biso   1.000  C
  N105     1.0000 0.22140  0.77860  0.04350  Biso   1.000  N
  C593     1.0000 0.19080  0.80920  0.10030  Biso   1.000  C
  C594     1.0000 0.17370  0.82630  0.13260  Biso   1.000  C
  N106     1.0000 0.22140  0.27860  0.54350  Biso   1.000  N
  C595     1.0000 0.19080  0.30920  0.60030  Biso   1.000  C
  C596     1.0000 0.17370  0.32630  0.63260  Biso   1.000  C
  N107     1.0000 0.72140  0.77860  0.54350  Biso   1.000  N
  C597     1.0000 0.69080  0.80920  0.60030  Biso   1.000  C
  C598     1.0000 0.67370  0.82630  0.63260  Biso   1.000  C
  N108     1.0000 0.72140  0.27860  0.04350  Biso   1.000  N
  C599     1.0000 0.69080  0.30920  0.10030  Biso   1.000  C
  C600     1.0000 0.67370  0.32630  0.13260  Biso   1.000  C
  N109     1.0000 0.77860  0.22140  0.04350  Biso   1.000  N
  C601     1.0000 0.80920  0.19080  0.10030  Biso   1.000  C
  C602     1.0000 0.82630  0.17370  0.13260  Biso   1.000  C
  N110     1.0000 0.77860  0.72140  0.54350  Biso   1.000  N
  C603     1.0000 0.80920  0.69080  0.60030  Biso   1.000  C
  C604     1.0000 0.82630  0.67370  0.63260  Biso   1.000  C
  N111     1.0000 0.27860  0.22140  0.54350  Biso   1.000  N
  C605     1.0000 0.30920  0.19080  0.60030  Biso   1.000  C
  C606     1.0000 0.32630  0.17370  0.63260  Biso   1.000  C
  N112     1.0000 0.27860  0.72140  0.04350  Biso   1.000  N
  C607     1.0000 0.30920  0.69080  0.10030  Biso   1.000  C
  C608     1.0000 0.32630  0.67370  0.13260  Biso   1.000  C
  N113     1.0000 0.22140  0.04350  0.77860  Biso   1.000  N
  C609     1.0000 0.19080  0.10030  0.80920  Biso   1.000  C
  C610     1.0000 0.17370  0.13260  0.82630  Biso   1.000  C
  N114     1.0000 0.22140  0.54350  0.27860  Biso   1.000  N
  C611     1.0000 0.19080  0.60030  0.30920  Biso   1.000  C
  C612     1.0000 0.17370  0.63260  0.32630  Biso   1.000  C
  N115     1.0000 0.72140  0.04350  0.27860  Biso   1.000  N
  C613     1.0000 0.69080  0.10030  0.30920  Biso   1.000  C
  C614     1.0000 0.67370  0.13260  0.32630  Biso   1.000  C
  N116     1.0000 0.72140  0.54350  0.77860  Biso   1.000  N
  C615     1.0000 0.69080  0.60030  0.80920  Biso   1.000  C
  C616     1.0000 0.67370  0.63260  0.82630  Biso   1.000  C
  N117     1.0000 0.77860  0.04350  0.22140  Biso   1.000  N
  C617     1.0000 0.80920  0.10030  0.19080  Biso   1.000  C
  C618     1.0000 0.82630  0.13260  0.17370  Biso   1.000  C
  N118     1.0000 0.77860  0.54350  0.72140  Biso   1.000  N
  C619     1.0000 0.80920  0.60030  0.69080  Biso   1.000  C
  C620     1.0000 0.82630  0.63260  0.67370  Biso   1.000  C
  N119     1.0000 0.27860  0.04350  0.72140  Biso   1.000  N
  C621     1.0000 0.30920  0.10030  0.69080  Biso   1.000  C
  C622     1.0000 0.32630  0.13260  0.67370  Biso   1.000  C
  N120     1.0000 0.27860  0.54350  0.22140  Biso   1.000  N
  C623     1.0000 0.30920  0.60030  0.19080  Biso   1.000  C
  C624     1.0000 0.32630  0.63260  0.17370  Biso   1.000  C
  N121     1.0000 0.77860  0.95650  0.77860  Biso   1.000  N
  C625     1.0000 0.80920  0.89970  0.80920  Biso   1.000  C
  C626     1.0000 0.82630  0.86740  0.82630  Biso   1.000  C
  N122     1.0000 0.77860  0.45650  0.27860  Biso   1.000  N
  C627     1.0000 0.80920  0.39970  0.30920  Biso   1.000  C
  C628     1.0000 0.82630  0.36740  0.32630  Biso   1.000  C
  N123     1.0000 0.27860  0.95650  0.27860  Biso   1.000  N
  C629     1.0000 0.30920  0.89970  0.30920  Biso   1.000  C
  C630     1.0000 0.32630  0.86740  0.32630  Biso   1.000  C
  N124     1.0000 0.27860  0.45650  0.77860  Biso   1.000  N
  C631     1.0000 0.30920  0.39970  0.80920  Biso   1.000  C
  C632     1.0000 0.32630  0.36740  0.82630  Biso   1.000  C
  N125     1.0000 0.22140  0.95650  0.22140  Biso   1.000  N
  C633     1.0000 0.19080  0.89970  0.19080  Biso   1.000  C
  C634     1.0000 0.17370  0.86740  0.17370  Biso   1.000  C
  N126     1.0000 0.22140  0.45650  0.72140  Biso   1.000  N
  C635     1.0000 0.19080  0.39970  0.69080  Biso   1.000  C
  C636     1.0000 0.17370  0.36740  0.67370  Biso   1.000  C
  N127     1.0000 0.72140  0.95650  0.72140  Biso   1.000  N
  C637     1.0000 0.69080  0.89970  0.69080  Biso   1.000  C
  C638     1.0000 0.67370  0.86740  0.67370  Biso   1.000  C
  N128     1.0000 0.72140  0.45650  0.22140  Biso   1.000  N
  C639     1.0000 0.69080  0.39970  0.19080  Biso   1.000  C
  C640     1.0000 0.67370  0.36740  0.17370  Biso   1.000  C
  N129     1.0000 0.04350  0.22140  0.77860  Biso   1.000  N
  C641     1.0000 0.10030  0.19080  0.80920  Biso   1.000  C
  C642     1.0000 0.13260  0.17370  0.82630  Biso   1.000  C
  N130     1.0000 0.04350  0.72140  0.27860  Biso   1.000  N
  C643     1.0000 0.10030  0.69080  0.30920  Biso   1.000  C
  C644     1.0000 0.13260  0.67370  0.32630  Biso   1.000  C
  N131     1.0000 0.54350  0.22140  0.27860  Biso   1.000  N
  C645     1.0000 0.60030  0.19080  0.30920  Biso   1.000  C
  C646     1.0000 0.63260  0.17370  0.32630  Biso   1.000  C
  N132     1.0000 0.54350  0.72140  0.77860  Biso   1.000  N
  C647     1.0000 0.60030  0.69080  0.80920  Biso   1.000  C
  C648     1.0000 0.63260  0.67370  0.82630  Biso   1.000  C
  N133     1.0000 0.04350  0.77860  0.22140  Biso   1.000  N
  C649     1.0000 0.10030  0.80920  0.19080  Biso   1.000  C
  C650     1.0000 0.13260  0.82630  0.17370  Biso   1.000  C
  N134     1.0000 0.04350  0.27860  0.72140  Biso   1.000  N
  C651     1.0000 0.10030  0.30920  0.69080  Biso   1.000  C
  C652     1.0000 0.13260  0.32630  0.67370  Biso   1.000  C
  N135     1.0000 0.54350  0.77860  0.72140  Biso   1.000  N
  C653     1.0000 0.60030  0.80920  0.69080  Biso   1.000  C
  C654     1.0000 0.63260  0.82630  0.67370  Biso   1.000  C
  N136     1.0000 0.54350  0.27860  0.22140  Biso   1.000  N
  C655     1.0000 0.60030  0.30920  0.19080  Biso   1.000  C
  C656     1.0000 0.63260  0.32630  0.17370  Biso   1.000  C
  N137     1.0000 0.95650  0.22140  0.22140  Biso   1.000  N
  C657     1.0000 0.89970  0.19080  0.19080  Biso   1.000  C
  C658     1.0000 0.86740  0.17370  0.17370  Biso   1.000  C
  N138     1.0000 0.95650  0.72140  0.72140  Biso   1.000  N
  C659     1.0000 0.89970  0.69080  0.69080  Biso   1.000  C
  C660     1.0000 0.86740  0.67370  0.67370  Biso   1.000  C
  N139     1.0000 0.45650  0.22140  0.72140  Biso   1.000  N
  C661     1.0000 0.39970  0.19080  0.69080  Biso   1.000  C
  C662     1.0000 0.36740  0.17370  0.67370  Biso   1.000  C
  N140     1.0000 0.45650  0.72140  0.22140  Biso   1.000  N
  C663     1.0000 0.39970  0.69080  0.19080  Biso   1.000  C
  C664     1.0000 0.36740  0.67370  0.17370  Biso   1.000  C
  N141     1.0000 0.95650  0.77860  0.77860  Biso   1.000  N
  C665     1.0000 0.89970  0.80920  0.80920  Biso   1.000  C
  C666     1.0000 0.86740  0.82630  0.82630  Biso   1.000  C
  N142     1.0000 0.95650  0.27860  0.27860  Biso   1.000  N
  C667     1.0000 0.89970  0.30920  0.30920  Biso   1.000  C
  C668     1.0000 0.86740  0.32630  0.32630  Biso   1.000  C
  N143     1.0000 0.45650  0.77860  0.27860  Biso   1.000  N
  C669     1.0000 0.39970  0.80920  0.30920  Biso   1.000  C
  C670     1.0000 0.36740  0.82630  0.32630  Biso   1.000  C
  N144     1.0000 0.45650  0.27860  0.77860  Biso   1.000  N
  C671     1.0000 0.39970  0.30920  0.80920  Biso   1.000  C
  C672     1.0000 0.36740  0.32630  0.82630  Biso   1.000  C
  N145     1.0000 0.14469  0.18800  0.14469  Biso   1.000  N
  N146     1.0000 0.14469  0.68800  0.64469  Biso   1.000  N
  N147     1.0000 0.64469  0.18800  0.64469  Biso   1.000  N
  N148     1.0000 0.64469  0.68800  0.14469  Biso   1.000  N
  N149     1.0000 0.85531  0.81200  0.14469  Biso   1.000  N
  N150     1.0000 0.85531  0.31200  0.64469  Biso   1.000  N
  N151     1.0000 0.35531  0.81200  0.64469  Biso   1.000  N
  N152     1.0000 0.35531  0.31200  0.14469  Biso   1.000  N
  N153     1.0000 0.85531  0.18800  0.85531  Biso   1.000  N
  N154     1.0000 0.85531  0.68800  0.35531  Biso   1.000  N
  N155     1.0000 0.35531  0.18800  0.35531  Biso   1.000  N
  N156     1.0000 0.35531  0.68800  0.85531  Biso   1.000  N
  N157     1.0000 0.14469  0.81200  0.85531  Biso   1.000  N
  N158     1.0000 0.14469  0.31200  0.35531  Biso   1.000  N
  N159     1.0000 0.64469  0.81200  0.35531  Biso   1.000  N
  N160     1.0000 0.64469  0.31200  0.85531  Biso   1.000  N
  N161     1.0000 0.14469  0.14469  0.18800  Biso   1.000  N
  N162     1.0000 0.14469  0.64469  0.68800  Biso   1.000  N
  N163     1.0000 0.64469  0.14469  0.68800  Biso   1.000  N
  N164     1.0000 0.64469  0.64469  0.18800  Biso   1.000  N
  N165     1.0000 0.14469  0.85531  0.81200  Biso   1.000  N
  N166     1.0000 0.14469  0.35531  0.31200  Biso   1.000  N
  N167     1.0000 0.64469  0.85531  0.31200  Biso   1.000  N
  N168     1.0000 0.64469  0.35531  0.81200  Biso   1.000  N
  N169     1.0000 0.85531  0.85531  0.18800  Biso   1.000  N
  N170     1.0000 0.85531  0.35531  0.68800  Biso   1.000  N
  N171     1.0000 0.35531  0.85531  0.68800  Biso   1.000  N
  N172     1.0000 0.35531  0.35531  0.18800  Biso   1.000  N
  N173     1.0000 0.85531  0.14469  0.81200  Biso   1.000  N
  N174     1.0000 0.85531  0.64469  0.31200  Biso   1.000  N
  N175     1.0000 0.35531  0.14469  0.31200  Biso   1.000  N
  N176     1.0000 0.35531  0.64469  0.81200  Biso   1.000  N
  N177     1.0000 0.18800  0.14469  0.14469  Biso   1.000  N
  N178     1.0000 0.18800  0.64469  0.64469  Biso   1.000  N
  N179     1.0000 0.68800  0.14469  0.64469  Biso   1.000  N
  N180     1.0000 0.68800  0.64469  0.14469  Biso   1.000  N
  N181     1.0000 0.81200  0.14469  0.85531  Biso   1.000  N
  N182     1.0000 0.81200  0.64469  0.35531  Biso   1.000  N
  N183     1.0000 0.31200  0.14469  0.35531  Biso   1.000  N
  N184     1.0000 0.31200  0.64469  0.85531  Biso   1.000  N
  N185     1.0000 0.18800  0.85531  0.85531  Biso   1.000  N
  N186     1.0000 0.18800  0.35531  0.35531  Biso   1.000  N
  N187     1.0000 0.68800  0.85531  0.35531  Biso   1.000  N
  N188     1.0000 0.68800  0.35531  0.85531  Biso   1.000  N
  N189     1.0000 0.81200  0.85531  0.14469  Biso   1.000  N
  N190     1.0000 0.81200  0.35531  0.64469  Biso   1.000  N
  N191     1.0000 0.31200  0.85531  0.64469  Biso   1.000  N
  N192     1.0000 0.31200  0.35531  0.14469  Biso   1.000  N
  N193     1.0000 0.18800  0.14469  0.85531  Biso   1.000  N
  N194     1.0000 0.18800  0.64469  0.35531  Biso   1.000  N
  N195     1.0000 0.68800  0.14469  0.35531  Biso   1.000  N
  N196     1.0000 0.68800  0.64469  0.85531  Biso   1.000  N
  N197     1.0000 0.81200  0.85531  0.85531  Biso   1.000  N
  N198     1.0000 0.81200  0.35531  0.35531  Biso   1.000  N
  N199     1.0000 0.31200  0.85531  0.35531  Biso   1.000  N
  N200     1.0000 0.31200  0.35531  0.85531  Biso   1.000  N
  N201     1.0000 0.18800  0.85531  0.14469  Biso   1.000  N
  N202     1.0000 0.18800  0.35531  0.64469  Biso   1.000  N
  N203     1.0000 0.68800  0.85531  0.64469  Biso   1.000  N
  N204     1.0000 0.68800  0.35531  0.14469  Biso   1.000  N
  N205     1.0000 0.81200  0.14469  0.14469  Biso   1.000  N
  N206     1.0000 0.81200  0.64469  0.64469  Biso   1.000  N
  N207     1.0000 0.31200  0.14469  0.64469  Biso   1.000  N
  N208     1.0000 0.31200  0.64469  0.14469  Biso   1.000  N
  N209     1.0000 0.14469  0.14469  0.81200  Biso   1.000  N
  N210     1.0000 0.14469  0.64469  0.31200  Biso   1.000  N
  N211     1.0000 0.64469  0.14469  0.31200  Biso   1.000  N
  N212     1.0000 0.64469  0.64469  0.81200  Biso   1.000  N
  N213     1.0000 0.85531  0.14469  0.18800  Biso   1.000  N
  N214     1.0000 0.85531  0.64469  0.68800  Biso   1.000  N
  N215     1.0000 0.35531  0.14469  0.68800  Biso   1.000  N
  N216     1.0000 0.35531  0.64469  0.18800  Biso   1.000  N
  N217     1.0000 0.85531  0.85531  0.81200  Biso   1.000  N
  N218     1.0000 0.85531  0.35531  0.31200  Biso   1.000  N
  N219     1.0000 0.35531  0.85531  0.31200  Biso   1.000  N
  N220     1.0000 0.35531  0.35531  0.81200  Biso   1.000  N
  N221     1.0000 0.14469  0.85531  0.18800  Biso   1.000  N
  N222     1.0000 0.14469  0.35531  0.68800  Biso   1.000  N
  N223     1.0000 0.64469  0.85531  0.68800  Biso   1.000  N
  N224     1.0000 0.64469  0.35531  0.18800  Biso   1.000  N
  N225     1.0000 0.14469  0.18800  0.85531  Biso   1.000  N
  N226     1.0000 0.14469  0.68800  0.35531  Biso   1.000  N
  N227     1.0000 0.64469  0.18800  0.35531  Biso   1.000  N
  N228     1.0000 0.64469  0.68800  0.85531  Biso   1.000  N
  N229     1.0000 0.14469  0.81200  0.14469  Biso   1.000  N
  N230     1.0000 0.14469  0.31200  0.64469  Biso   1.000  N
  N231     1.0000 0.64469  0.81200  0.64469  Biso   1.000  N
  N232     1.0000 0.64469  0.31200  0.14469  Biso   1.000  N
  N233     1.0000 0.85531  0.18800  0.14469  Biso   1.000  N
  N234     1.0000 0.85531  0.68800  0.64469  Biso   1.000  N
  N235     1.0000 0.35531  0.18800  0.64469  Biso   1.000  N
  N236     1.0000 0.35531  0.68800  0.14469  Biso   1.000  N
  N237     1.0000 0.85531  0.81200  0.85531  Biso   1.000  N
  N238     1.0000 0.85531  0.31200  0.35531  Biso   1.000  N
  N239     1.0000 0.35531  0.81200  0.35531  Biso   1.000  N
  N240     1.0000 0.35531  0.31200  0.85531  Biso   1.000  N
