data_image0
_cell_length_a       28.7135
_cell_length_b       28.7135
_cell_length_c       28.7135
_cell_angle_alpha    90
_cell_angle_beta     90
_cell_angle_gamma    90

_symmetry_space_group_name_H-M    "P 1"
_symmetry_int_tables_number       1

loop_
  _symmetry_equiv_pos_as_xyz
  'x, y, z'

loop_
  _atom_site_label
  _atom_site_occupancy
  _atom_site_fract_x
  _atom_site_fract_y
  _atom_site_fract_z
  _atom_site_thermal_displace_type
  _atom_site_B_iso_or_equiv
  _atom_site_type_symbol
  O1       1.0000 0.26500  0.59200  0.51770  Biso   1.000  O
  O2       1.0000 0.26500  0.09200  0.01770  Biso   1.000  O
  O3       1.0000 0.76500  0.59200  0.01770  Biso   1.000  O
  O4       1.0000 0.76500  0.09200  0.51770  Biso   1.000  O
  O5       1.0000 0.73500  0.40800  0.51770  Biso   1.000  O
  O6       1.0000 0.73500  0.90800  0.01770  Biso   1.000  O
  O7       1.0000 0.23500  0.40800  0.01770  Biso   1.000  O
  O8       1.0000 0.23500  0.90800  0.51770  Biso   1.000  O
  O9       1.0000 0.73500  0.59200  0.48230  Biso   1.000  O
  O10      1.0000 0.73500  0.09200  0.98230  Biso   1.000  O
  O11      1.0000 0.23500  0.59200  0.98230  Biso   1.000  O
  O12      1.0000 0.23500  0.09200  0.48230  Biso   1.000  O
  O13      1.0000 0.26500  0.40800  0.48230  Biso   1.000  O
  O14      1.0000 0.26500  0.90800  0.98230  Biso   1.000  O
  O15      1.0000 0.76500  0.40800  0.98230  Biso   1.000  O
  O16      1.0000 0.76500  0.90800  0.48230  Biso   1.000  O
  O17      1.0000 0.51770  0.26500  0.59200  Biso   1.000  O
  O18      1.0000 0.51770  0.76500  0.09200  Biso   1.000  O
  O19      1.0000 0.01770  0.26500  0.09200  Biso   1.000  O
  O20      1.0000 0.01770  0.76500  0.59200  Biso   1.000  O
  O21      1.0000 0.51770  0.73500  0.40800  Biso   1.000  O
  O22      1.0000 0.51770  0.23500  0.90800  Biso   1.000  O
  O23      1.0000 0.01770  0.73500  0.90800  Biso   1.000  O
  O24      1.0000 0.01770  0.23500  0.40800  Biso   1.000  O
  O25      1.0000 0.48230  0.73500  0.59200  Biso   1.000  O
  O26      1.0000 0.48230  0.23500  0.09200  Biso   1.000  O
  O27      1.0000 0.98230  0.73500  0.09200  Biso   1.000  O
  O28      1.0000 0.98230  0.23500  0.59200  Biso   1.000  O
  O29      1.0000 0.48230  0.26500  0.40800  Biso   1.000  O
  O30      1.0000 0.48230  0.76500  0.90800  Biso   1.000  O
  O31      1.0000 0.98230  0.26500  0.90800  Biso   1.000  O
  O32      1.0000 0.98230  0.76500  0.40800  Biso   1.000  O
  O33      1.0000 0.59200  0.51770  0.26500  Biso   1.000  O
  O34      1.0000 0.59200  0.01770  0.76500  Biso   1.000  O
  O35      1.0000 0.09200  0.51770  0.76500  Biso   1.000  O
  O36      1.0000 0.09200  0.01770  0.26500  Biso   1.000  O
  O37      1.0000 0.40800  0.51770  0.73500  Biso   1.000  O
  O38      1.0000 0.40800  0.01770  0.23500  Biso   1.000  O
  O39      1.0000 0.90800  0.51770  0.23500  Biso   1.000  O
  O40      1.0000 0.90800  0.01770  0.73500  Biso   1.000  O
  O41      1.0000 0.59200  0.48230  0.73500  Biso   1.000  O
  O42      1.0000 0.59200  0.98230  0.23500  Biso   1.000  O
  O43      1.0000 0.09200  0.48230  0.23500  Biso   1.000  O
  O44      1.0000 0.09200  0.98230  0.73500  Biso   1.000  O
  O45      1.0000 0.40800  0.48230  0.26500  Biso   1.000  O
  O46      1.0000 0.40800  0.98230  0.76500  Biso   1.000  O
  O47      1.0000 0.90800  0.48230  0.76500  Biso   1.000  O
  O48      1.0000 0.90800  0.98230  0.26500  Biso   1.000  O
  O49      1.0000 0.59200  0.26500  0.48230  Biso   1.000  O
  O50      1.0000 0.59200  0.76500  0.98230  Biso   1.000  O
  O51      1.0000 0.09200  0.26500  0.98230  Biso   1.000  O
  O52      1.0000 0.09200  0.76500  0.48230  Biso   1.000  O
  O53      1.0000 0.40800  0.73500  0.48230  Biso   1.000  O
  O54      1.0000 0.40800  0.23500  0.98230  Biso   1.000  O
  O55      1.0000 0.90800  0.73500  0.98230  Biso   1.000  O
  O56      1.0000 0.90800  0.23500  0.48230  Biso   1.000  O
  O57      1.0000 0.59200  0.73500  0.51770  Biso   1.000  O
  O58      1.0000 0.59200  0.23500  0.01770  Biso   1.000  O
  O59      1.0000 0.09200  0.73500  0.01770  Biso   1.000  O
  O60      1.0000 0.09200  0.23500  0.51770  Biso   1.000  O
  O61      1.0000 0.40800  0.26500  0.51770  Biso   1.000  O
  O62      1.0000 0.40800  0.76500  0.01770  Biso   1.000  O
  O63      1.0000 0.90800  0.26500  0.01770  Biso   1.000  O
  O64      1.0000 0.90800  0.76500  0.51770  Biso   1.000  O
  O65      1.0000 0.26500  0.51770  0.40800  Biso   1.000  O
  O66      1.0000 0.26500  0.01770  0.90800  Biso   1.000  O
  O67      1.0000 0.76500  0.51770  0.90800  Biso   1.000  O
  O68      1.0000 0.76500  0.01770  0.40800  Biso   1.000  O
  O69      1.0000 0.73500  0.51770  0.59200  Biso   1.000  O
  O70      1.0000 0.73500  0.01770  0.09200  Biso   1.000  O
  O71      1.0000 0.23500  0.51770  0.09200  Biso   1.000  O
  O72      1.0000 0.23500  0.01770  0.59200  Biso   1.000  O
  O73      1.0000 0.73500  0.48230  0.40800  Biso   1.000  O
  O74      1.0000 0.73500  0.98230  0.90800  Biso   1.000  O
  O75      1.0000 0.23500  0.48230  0.90800  Biso   1.000  O
  O76      1.0000 0.23500  0.98230  0.40800  Biso   1.000  O
  O77      1.0000 0.26500  0.48230  0.59200  Biso   1.000  O
  O78      1.0000 0.26500  0.98230  0.09200  Biso   1.000  O
  O79      1.0000 0.76500  0.48230  0.09200  Biso   1.000  O
  O80      1.0000 0.76500  0.98230  0.59200  Biso   1.000  O
  O81      1.0000 0.51770  0.59200  0.73500  Biso   1.000  O
  O82      1.0000 0.51770  0.09200  0.23500  Biso   1.000  O
  O83      1.0000 0.01770  0.59200  0.23500  Biso   1.000  O
  O84      1.0000 0.01770  0.09200  0.73500  Biso   1.000  O
  O85      1.0000 0.51770  0.40800  0.26500  Biso   1.000  O
  O86      1.0000 0.51770  0.90800  0.76500  Biso   1.000  O
  O87      1.0000 0.01770  0.40800  0.76500  Biso   1.000  O
  O88      1.0000 0.01770  0.90800  0.26500  Biso   1.000  O
  O89      1.0000 0.48230  0.59200  0.26500  Biso   1.000  O
  O90      1.0000 0.48230  0.09200  0.76500  Biso   1.000  O
  O91      1.0000 0.98230  0.59200  0.76500  Biso   1.000  O
  O92      1.0000 0.98230  0.09200  0.26500  Biso   1.000  O
  O93      1.0000 0.48230  0.40800  0.73500  Biso   1.000  O
  O94      1.0000 0.48230  0.90800  0.23500  Biso   1.000  O
  O95      1.0000 0.98230  0.40800  0.23500  Biso   1.000  O
  O96      1.0000 0.98230  0.90800  0.73500  Biso   1.000  O
  O97      1.0000 0.73500  0.40800  0.48230  Biso   1.000  O
  O98      1.0000 0.73500  0.90800  0.98230  Biso   1.000  O
  O99      1.0000 0.23500  0.40800  0.98230  Biso   1.000  O
  O100     1.0000 0.23500  0.90800  0.48230  Biso   1.000  O
  O101     1.0000 0.26500  0.59200  0.48230  Biso   1.000  O
  O102     1.0000 0.26500  0.09200  0.98230  Biso   1.000  O
  O103     1.0000 0.76500  0.59200  0.98230  Biso   1.000  O
  O104     1.0000 0.76500  0.09200  0.48230  Biso   1.000  O
  O105     1.0000 0.26500  0.40800  0.51770  Biso   1.000  O
  O106     1.0000 0.26500  0.90800  0.01770  Biso   1.000  O
  O107     1.0000 0.76500  0.40800  0.01770  Biso   1.000  O
  O108     1.0000 0.76500  0.90800  0.51770  Biso   1.000  O
  O109     1.0000 0.73500  0.59200  0.51770  Biso   1.000  O
  O110     1.0000 0.73500  0.09200  0.01770  Biso   1.000  O
  O111     1.0000 0.23500  0.59200  0.01770  Biso   1.000  O
  O112     1.0000 0.23500  0.09200  0.51770  Biso   1.000  O
  O113     1.0000 0.48230  0.73500  0.40800  Biso   1.000  O
  O114     1.0000 0.48230  0.23500  0.90800  Biso   1.000  O
  O115     1.0000 0.98230  0.73500  0.90800  Biso   1.000  O
  O116     1.0000 0.98230  0.23500  0.40800  Biso   1.000  O
  O117     1.0000 0.48230  0.26500  0.59200  Biso   1.000  O
  O118     1.0000 0.48230  0.76500  0.09200  Biso   1.000  O
  O119     1.0000 0.98230  0.26500  0.09200  Biso   1.000  O
  O120     1.0000 0.98230  0.76500  0.59200  Biso   1.000  O
  O121     1.0000 0.51770  0.26500  0.40800  Biso   1.000  O
  O122     1.0000 0.51770  0.76500  0.90800  Biso   1.000  O
  O123     1.0000 0.01770  0.26500  0.90800  Biso   1.000  O
  O124     1.0000 0.01770  0.76500  0.40800  Biso   1.000  O
  O125     1.0000 0.51770  0.73500  0.59200  Biso   1.000  O
  O126     1.0000 0.51770  0.23500  0.09200  Biso   1.000  O
  O127     1.0000 0.01770  0.73500  0.09200  Biso   1.000  O
  O128     1.0000 0.01770  0.23500  0.59200  Biso   1.000  O
  O129     1.0000 0.40800  0.48230  0.73500  Biso   1.000  O
  O130     1.0000 0.40800  0.98230  0.23500  Biso   1.000  O
  O131     1.0000 0.90800  0.48230  0.23500  Biso   1.000  O
  O132     1.0000 0.90800  0.98230  0.73500  Biso   1.000  O
  O133     1.0000 0.59200  0.48230  0.26500  Biso   1.000  O
  O134     1.0000 0.59200  0.98230  0.76500  Biso   1.000  O
  O135     1.0000 0.09200  0.48230  0.76500  Biso   1.000  O
  O136     1.0000 0.09200  0.98230  0.26500  Biso   1.000  O
  O137     1.0000 0.40800  0.51770  0.26500  Biso   1.000  O
  O138     1.0000 0.40800  0.01770  0.76500  Biso   1.000  O
  O139     1.0000 0.90800  0.51770  0.76500  Biso   1.000  O
  O140     1.0000 0.90800  0.01770  0.26500  Biso   1.000  O
  O141     1.0000 0.59200  0.51770  0.73500  Biso   1.000  O
  O142     1.0000 0.59200  0.01770  0.23500  Biso   1.000  O
  O143     1.0000 0.09200  0.51770  0.23500  Biso   1.000  O
  O144     1.0000 0.09200  0.01770  0.73500  Biso   1.000  O
  O145     1.0000 0.40800  0.73500  0.51770  Biso   1.000  O
  O146     1.0000 0.40800  0.23500  0.01770  Biso   1.000  O
  O147     1.0000 0.90800  0.73500  0.01770  Biso   1.000  O
  O148     1.0000 0.90800  0.23500  0.51770  Biso   1.000  O
  O149     1.0000 0.59200  0.26500  0.51770  Biso   1.000  O
  O150     1.0000 0.59200  0.76500  0.01770  Biso   1.000  O
  O151     1.0000 0.09200  0.26500  0.01770  Biso   1.000  O
  O152     1.0000 0.09200  0.76500  0.51770  Biso   1.000  O
  O153     1.0000 0.40800  0.26500  0.48230  Biso   1.000  O
  O154     1.0000 0.40800  0.76500  0.98230  Biso   1.000  O
  O155     1.0000 0.90800  0.26500  0.98230  Biso   1.000  O
  O156     1.0000 0.90800  0.76500  0.48230  Biso   1.000  O
  O157     1.0000 0.59200  0.73500  0.48230  Biso   1.000  O
  O158     1.0000 0.59200  0.23500  0.98230  Biso   1.000  O
  O159     1.0000 0.09200  0.73500  0.98230  Biso   1.000  O
  O160     1.0000 0.09200  0.23500  0.48230  Biso   1.000  O
  O161     1.0000 0.73500  0.48230  0.59200  Biso   1.000  O
  O162     1.0000 0.73500  0.98230  0.09200  Biso   1.000  O
  O163     1.0000 0.23500  0.48230  0.09200  Biso   1.000  O
  O164     1.0000 0.23500  0.98230  0.59200  Biso   1.000  O
  O165     1.0000 0.26500  0.48230  0.40800  Biso   1.000  O
  O166     1.0000 0.26500  0.98230  0.90800  Biso   1.000  O
  O167     1.0000 0.76500  0.48230  0.90800  Biso   1.000  O
  O168     1.0000 0.76500  0.98230  0.40800  Biso   1.000  O
  O169     1.0000 0.26500  0.51770  0.59200  Biso   1.000  O
  O170     1.0000 0.26500  0.01770  0.09200  Biso   1.000  O
  O171     1.0000 0.76500  0.51770  0.09200  Biso   1.000  O
  O172     1.0000 0.76500  0.01770  0.59200  Biso   1.000  O
  O173     1.0000 0.73500  0.51770  0.40800  Biso   1.000  O
  O174     1.0000 0.73500  0.01770  0.90800  Biso   1.000  O
  O175     1.0000 0.23500  0.51770  0.90800  Biso   1.000  O
  O176     1.0000 0.23500  0.01770  0.40800  Biso   1.000  O
  O177     1.0000 0.48230  0.40800  0.26500  Biso   1.000  O
  O178     1.0000 0.48230  0.90800  0.76500  Biso   1.000  O
  O179     1.0000 0.98230  0.40800  0.76500  Biso   1.000  O
  O180     1.0000 0.98230  0.90800  0.26500  Biso   1.000  O
  O181     1.0000 0.48230  0.59200  0.73500  Biso   1.000  O
  O182     1.0000 0.48230  0.09200  0.23500  Biso   1.000  O
  O183     1.0000 0.98230  0.59200  0.23500  Biso   1.000  O
  O184     1.0000 0.98230  0.09200  0.73500  Biso   1.000  O
  O185     1.0000 0.51770  0.40800  0.73500  Biso   1.000  O
  O186     1.0000 0.51770  0.90800  0.23500  Biso   1.000  O
  O187     1.0000 0.01770  0.40800  0.23500  Biso   1.000  O
  O188     1.0000 0.01770  0.90800  0.73500  Biso   1.000  O
  O189     1.0000 0.51770  0.59200  0.26500  Biso   1.000  O
  O190     1.0000 0.51770  0.09200  0.76500  Biso   1.000  O
  O191     1.0000 0.01770  0.59200  0.76500  Biso   1.000  O
  O192     1.0000 0.01770  0.09200  0.26500  Biso   1.000  O
  Co1      1.0000 0.19516  0.50000  0.50000  Biso   1.000  Co
  O193     1.0000 0.27120  0.50000  0.50000  Biso   1.000  O
  Co2      1.0000 0.19516  0.00000  0.00000  Biso   1.000  Co
  O194     1.0000 0.27120  0.00000  0.00000  Biso   1.000  O
  Co3      1.0000 0.69516  0.50000  0.00000  Biso   1.000  Co
  O195     1.0000 0.77120  0.50000  0.00000  Biso   1.000  O
  Co4      1.0000 0.69516  0.00000  0.50000  Biso   1.000  Co
  O196     1.0000 0.77120  0.00000  0.50000  Biso   1.000  O
  Co5      1.0000 0.80484  0.50000  0.50000  Biso   1.000  Co
  O197     1.0000 0.72880  0.50000  0.50000  Biso   1.000  O
  Co6      1.0000 0.80484  0.00000  0.00000  Biso   1.000  Co
  O198     1.0000 0.72880  0.00000  0.00000  Biso   1.000  O
  Co7      1.0000 0.30484  0.50000  0.00000  Biso   1.000  Co
  O199     1.0000 0.22880  0.50000  0.00000  Biso   1.000  O
  Co8      1.0000 0.30484  0.00000  0.50000  Biso   1.000  Co
  O200     1.0000 0.22880  0.00000  0.50000  Biso   1.000  O
  Co9      1.0000 0.50000  0.19516  0.50000  Biso   1.000  Co
  O201     1.0000 0.50000  0.27120  0.50000  Biso   1.000  O
  Co10     1.0000 0.50000  0.69516  0.00000  Biso   1.000  Co
  O202     1.0000 0.50000  0.77120  0.00000  Biso   1.000  O
  Co11     1.0000 0.00000  0.19516  0.00000  Biso   1.000  Co
  O203     1.0000 0.00000  0.27120  0.00000  Biso   1.000  O
  Co12     1.0000 0.00000  0.69516  0.50000  Biso   1.000  Co
  O204     1.0000 0.00000  0.77120  0.50000  Biso   1.000  O
  Co13     1.0000 0.50000  0.80484  0.50000  Biso   1.000  Co
  O205     1.0000 0.50000  0.72880  0.50000  Biso   1.000  O
  Co14     1.0000 0.50000  0.30484  0.00000  Biso   1.000  Co
  O206     1.0000 0.50000  0.22880  0.00000  Biso   1.000  O
  Co15     1.0000 0.00000  0.80484  0.00000  Biso   1.000  Co
  O207     1.0000 0.00000  0.72880  0.00000  Biso   1.000  O
  Co16     1.0000 0.00000  0.30484  0.50000  Biso   1.000  Co
  O208     1.0000 0.00000  0.22880  0.50000  Biso   1.000  O
  Co17     1.0000 0.50000  0.50000  0.19516  Biso   1.000  Co
  O209     1.0000 0.50000  0.50000  0.27120  Biso   1.000  O
  Co18     1.0000 0.50000  0.00000  0.69516  Biso   1.000  Co
  O210     1.0000 0.50000  0.00000  0.77120  Biso   1.000  O
  Co19     1.0000 0.00000  0.50000  0.69516  Biso   1.000  Co
  O211     1.0000 0.00000  0.50000  0.77120  Biso   1.000  O
  Co20     1.0000 0.00000  0.00000  0.19516  Biso   1.000  Co
  O212     1.0000 0.00000  0.00000  0.27120  Biso   1.000  O
  Co21     1.0000 0.50000  0.50000  0.80484  Biso   1.000  Co
  O213     1.0000 0.50000  0.50000  0.72880  Biso   1.000  O
  Co22     1.0000 0.50000  0.00000  0.30484  Biso   1.000  Co
  O214     1.0000 0.50000  0.00000  0.22880  Biso   1.000  O
  Co23     1.0000 0.00000  0.50000  0.30484  Biso   1.000  Co
  O215     1.0000 0.00000  0.50000  0.22880  Biso   1.000  O
  Co24     1.0000 0.00000  0.00000  0.80484  Biso   1.000  Co
  O216     1.0000 0.00000  0.00000  0.72880  Biso   1.000  O
  Co25     1.0000 0.30753  0.54163  0.54163  Biso   1.000  Co
  Co26     1.0000 0.30753  0.04163  0.04163  Biso   1.000  Co
  Co27     1.0000 0.80753  0.54163  0.04163  Biso   1.000  Co
  Co28     1.0000 0.80753  0.04163  0.54163  Biso   1.000  Co
  Co29     1.0000 0.69247  0.45837  0.54163  Biso   1.000  Co
  Co30     1.0000 0.69247  0.95837  0.04163  Biso   1.000  Co
  Co31     1.0000 0.19247  0.45837  0.04163  Biso   1.000  Co
  Co32     1.0000 0.19247  0.95837  0.54163  Biso   1.000  Co
  Co33     1.0000 0.69247  0.54163  0.45837  Biso   1.000  Co
  Co34     1.0000 0.69247  0.04163  0.95837  Biso   1.000  Co
  Co35     1.0000 0.19247  0.54163  0.95837  Biso   1.000  Co
  Co36     1.0000 0.19247  0.04163  0.45837  Biso   1.000  Co
  Co37     1.0000 0.30753  0.45837  0.45837  Biso   1.000  Co
  Co38     1.0000 0.30753  0.95837  0.95837  Biso   1.000  Co
  Co39     1.0000 0.80753  0.45837  0.95837  Biso   1.000  Co
  Co40     1.0000 0.80753  0.95837  0.45837  Biso   1.000  Co
  Co41     1.0000 0.54163  0.30753  0.54163  Biso   1.000  Co
  Co42     1.0000 0.54163  0.80753  0.04163  Biso   1.000  Co
  Co43     1.0000 0.04163  0.30753  0.04163  Biso   1.000  Co
  Co44     1.0000 0.04163  0.80753  0.54163  Biso   1.000  Co
  Co45     1.0000 0.54163  0.69247  0.45837  Biso   1.000  Co
  Co46     1.0000 0.54163  0.19247  0.95837  Biso   1.000  Co
  Co47     1.0000 0.04163  0.69247  0.95837  Biso   1.000  Co
  Co48     1.0000 0.04163  0.19247  0.45837  Biso   1.000  Co
  Co49     1.0000 0.45837  0.69247  0.54163  Biso   1.000  Co
  Co50     1.0000 0.45837  0.19247  0.04163  Biso   1.000  Co
  Co51     1.0000 0.95837  0.69247  0.04163  Biso   1.000  Co
  Co52     1.0000 0.95837  0.19247  0.54163  Biso   1.000  Co
  Co53     1.0000 0.45837  0.30753  0.45837  Biso   1.000  Co
  Co54     1.0000 0.45837  0.80753  0.95837  Biso   1.000  Co
  Co55     1.0000 0.95837  0.30753  0.95837  Biso   1.000  Co
  Co56     1.0000 0.95837  0.80753  0.45837  Biso   1.000  Co
  Co57     1.0000 0.54163  0.54163  0.30753  Biso   1.000  Co
  Co58     1.0000 0.54163  0.04163  0.80753  Biso   1.000  Co
  Co59     1.0000 0.04163  0.54163  0.80753  Biso   1.000  Co
  Co60     1.0000 0.04163  0.04163  0.30753  Biso   1.000  Co
  Co61     1.0000 0.45837  0.54163  0.69247  Biso   1.000  Co
  Co62     1.0000 0.45837  0.04163  0.19247  Biso   1.000  Co
  Co63     1.0000 0.95837  0.54163  0.19247  Biso   1.000  Co
  Co64     1.0000 0.95837  0.04163  0.69247  Biso   1.000  Co
  Co65     1.0000 0.54163  0.45837  0.69247  Biso   1.000  Co
  Co66     1.0000 0.54163  0.95837  0.19247  Biso   1.000  Co
  Co67     1.0000 0.04163  0.45837  0.19247  Biso   1.000  Co
  Co68     1.0000 0.04163  0.95837  0.69247  Biso   1.000  Co
  Co69     1.0000 0.45837  0.45837  0.30753  Biso   1.000  Co
  Co70     1.0000 0.45837  0.95837  0.80753  Biso   1.000  Co
  Co71     1.0000 0.95837  0.45837  0.80753  Biso   1.000  Co
  Co72     1.0000 0.95837  0.95837  0.30753  Biso   1.000  Co
  Co73     1.0000 0.54163  0.30753  0.45837  Biso   1.000  Co
  Co74     1.0000 0.54163  0.80753  0.95837  Biso   1.000  Co
  Co75     1.0000 0.04163  0.30753  0.95837  Biso   1.000  Co
  Co76     1.0000 0.04163  0.80753  0.45837  Biso   1.000  Co
  Co77     1.0000 0.45837  0.69247  0.45837  Biso   1.000  Co
  Co78     1.0000 0.45837  0.19247  0.95837  Biso   1.000  Co
  Co79     1.0000 0.95837  0.69247  0.95837  Biso   1.000  Co
  Co80     1.0000 0.95837  0.19247  0.45837  Biso   1.000  Co
  Co81     1.0000 0.54163  0.69247  0.54163  Biso   1.000  Co
  Co82     1.0000 0.54163  0.19247  0.04163  Biso   1.000  Co
  Co83     1.0000 0.04163  0.69247  0.04163  Biso   1.000  Co
  Co84     1.0000 0.04163  0.19247  0.54163  Biso   1.000  Co
  Co85     1.0000 0.45837  0.30753  0.54163  Biso   1.000  Co
  Co86     1.0000 0.45837  0.80753  0.04163  Biso   1.000  Co
  Co87     1.0000 0.95837  0.30753  0.04163  Biso   1.000  Co
  Co88     1.0000 0.95837  0.80753  0.54163  Biso   1.000  Co
  Co89     1.0000 0.30753  0.54163  0.45837  Biso   1.000  Co
  Co90     1.0000 0.30753  0.04163  0.95837  Biso   1.000  Co
  Co91     1.0000 0.80753  0.54163  0.95837  Biso   1.000  Co
  Co92     1.0000 0.80753  0.04163  0.45837  Biso   1.000  Co
  Co93     1.0000 0.69247  0.54163  0.54163  Biso   1.000  Co
  Co94     1.0000 0.69247  0.04163  0.04163  Biso   1.000  Co
  Co95     1.0000 0.19247  0.54163  0.04163  Biso   1.000  Co
  Co96     1.0000 0.19247  0.04163  0.54163  Biso   1.000  Co
  Co97     1.0000 0.69247  0.45837  0.45837  Biso   1.000  Co
  Co98     1.0000 0.69247  0.95837  0.95837  Biso   1.000  Co
  Co99     1.0000 0.19247  0.45837  0.95837  Biso   1.000  Co
  Co100    1.0000 0.19247  0.95837  0.45837  Biso   1.000  Co
  Co101    1.0000 0.30753  0.45837  0.54163  Biso   1.000  Co
  Co102    1.0000 0.30753  0.95837  0.04163  Biso   1.000  Co
  Co103    1.0000 0.80753  0.45837  0.04163  Biso   1.000  Co
  Co104    1.0000 0.80753  0.95837  0.54163  Biso   1.000  Co
  Co105    1.0000 0.54163  0.54163  0.69247  Biso   1.000  Co
  Co106    1.0000 0.54163  0.04163  0.19247  Biso   1.000  Co
  Co107    1.0000 0.04163  0.54163  0.19247  Biso   1.000  Co
  Co108    1.0000 0.04163  0.04163  0.69247  Biso   1.000  Co
  Co109    1.0000 0.54163  0.45837  0.30753  Biso   1.000  Co
  Co110    1.0000 0.54163  0.95837  0.80753  Biso   1.000  Co
  Co111    1.0000 0.04163  0.45837  0.80753  Biso   1.000  Co
  Co112    1.0000 0.04163  0.95837  0.30753  Biso   1.000  Co
  Co113    1.0000 0.45837  0.54163  0.30753  Biso   1.000  Co
  Co114    1.0000 0.45837  0.04163  0.80753  Biso   1.000  Co
  Co115    1.0000 0.95837  0.54163  0.80753  Biso   1.000  Co
  Co116    1.0000 0.95837  0.04163  0.30753  Biso   1.000  Co
  Co117    1.0000 0.45837  0.45837  0.69247  Biso   1.000  Co
  Co118    1.0000 0.45837  0.95837  0.19247  Biso   1.000  Co
  Co119    1.0000 0.95837  0.45837  0.19247  Biso   1.000  Co
  Co120    1.0000 0.95837  0.95837  0.69247  Biso   1.000  Co
  O217     1.0000 0.19190  0.57030  0.50000  Biso   1.000  O
  C1       1.0000 0.21020  0.65150  0.50000  Biso   1.000  C
  C2       1.0000 0.24310  0.68510  0.50000  Biso   1.000  C
  H1       1.0000 0.27510  0.67670  0.50000  Biso   1.000  H
  C3       1.0000 0.22440  0.60030  0.50000  Biso   1.000  C
  O218     1.0000 0.35410  0.56380  0.50000  Biso   1.000  O
  O219     1.0000 0.19190  0.07030  0.00000  Biso   1.000  O
  C4       1.0000 0.21020  0.15150  0.00000  Biso   1.000  C
  C5       1.0000 0.24310  0.18510  0.00000  Biso   1.000  C
  H2       1.0000 0.27510  0.17670  0.00000  Biso   1.000  H
  C6       1.0000 0.22440  0.10030  0.00000  Biso   1.000  C
  O220     1.0000 0.35410  0.06380  0.00000  Biso   1.000  O
  O221     1.0000 0.69190  0.57030  0.00000  Biso   1.000  O
  C7       1.0000 0.71020  0.65150  0.00000  Biso   1.000  C
  C8       1.0000 0.74310  0.68510  0.00000  Biso   1.000  C
  H3       1.0000 0.77510  0.67670  0.00000  Biso   1.000  H
  C9       1.0000 0.72440  0.60030  0.00000  Biso   1.000  C
  O222     1.0000 0.85410  0.56380  0.00000  Biso   1.000  O
  O223     1.0000 0.69190  0.07030  0.50000  Biso   1.000  O
  C10      1.0000 0.71020  0.15150  0.50000  Biso   1.000  C
  C11      1.0000 0.74310  0.18510  0.50000  Biso   1.000  C
  H4       1.0000 0.77510  0.17670  0.50000  Biso   1.000  H
  C12      1.0000 0.72440  0.10030  0.50000  Biso   1.000  C
  O224     1.0000 0.85410  0.06380  0.50000  Biso   1.000  O
  O225     1.0000 0.80810  0.42970  0.50000  Biso   1.000  O
  C13      1.0000 0.78980  0.34850  0.50000  Biso   1.000  C
  C14      1.0000 0.75690  0.31490  0.50000  Biso   1.000  C
  H5       1.0000 0.72490  0.32330  0.50000  Biso   1.000  H
  C15      1.0000 0.77560  0.39970  0.50000  Biso   1.000  C
  O226     1.0000 0.64590  0.43620  0.50000  Biso   1.000  O
  O227     1.0000 0.80810  0.92970  0.00000  Biso   1.000  O
  C16      1.0000 0.78980  0.84850  0.00000  Biso   1.000  C
  C17      1.0000 0.75690  0.81490  0.00000  Biso   1.000  C
  H6       1.0000 0.72490  0.82330  0.00000  Biso   1.000  H
  C18      1.0000 0.77560  0.89970  0.00000  Biso   1.000  C
  O228     1.0000 0.64590  0.93620  0.00000  Biso   1.000  O
  O229     1.0000 0.30810  0.42970  0.00000  Biso   1.000  O
  C19      1.0000 0.28980  0.34850  0.00000  Biso   1.000  C
  C20      1.0000 0.25690  0.31490  0.00000  Biso   1.000  C
  H7       1.0000 0.22490  0.32330  0.00000  Biso   1.000  H
  C21      1.0000 0.27560  0.39970  0.00000  Biso   1.000  C
  O230     1.0000 0.14590  0.43620  0.00000  Biso   1.000  O
  O231     1.0000 0.30810  0.92970  0.50000  Biso   1.000  O
  C22      1.0000 0.28980  0.84850  0.50000  Biso   1.000  C
  C23      1.0000 0.25690  0.81490  0.50000  Biso   1.000  C
  H8       1.0000 0.22490  0.82330  0.50000  Biso   1.000  H
  C24      1.0000 0.27560  0.89970  0.50000  Biso   1.000  C
  O232     1.0000 0.14590  0.93620  0.50000  Biso   1.000  O
  O233     1.0000 0.80810  0.57030  0.50000  Biso   1.000  O
  C25      1.0000 0.78980  0.65150  0.50000  Biso   1.000  C
  C26      1.0000 0.75690  0.68510  0.50000  Biso   1.000  C
  H9       1.0000 0.72490  0.67670  0.50000  Biso   1.000  H
  C27      1.0000 0.77560  0.60030  0.50000  Biso   1.000  C
  O234     1.0000 0.64590  0.56380  0.50000  Biso   1.000  O
  O235     1.0000 0.80810  0.07030  0.00000  Biso   1.000  O
  C28      1.0000 0.78980  0.15150  0.00000  Biso   1.000  C
  C29      1.0000 0.75690  0.18510  0.00000  Biso   1.000  C
  H10      1.0000 0.72490  0.17670  0.00000  Biso   1.000  H
  C30      1.0000 0.77560  0.10030  0.00000  Biso   1.000  C
  O236     1.0000 0.64590  0.06380  0.00000  Biso   1.000  O
  O237     1.0000 0.30810  0.57030  0.00000  Biso   1.000  O
  C31      1.0000 0.28980  0.65150  0.00000  Biso   1.000  C
  C32      1.0000 0.25690  0.68510  0.00000  Biso   1.000  C
  H11      1.0000 0.22490  0.67670  0.00000  Biso   1.000  H
  C33      1.0000 0.27560  0.60030  0.00000  Biso   1.000  C
  O238     1.0000 0.14590  0.56380  0.00000  Biso   1.000  O
  O239     1.0000 0.30810  0.07030  0.50000  Biso   1.000  O
  C34      1.0000 0.28980  0.15150  0.50000  Biso   1.000  C
  C35      1.0000 0.25690  0.18510  0.50000  Biso   1.000  C
  H12      1.0000 0.22490  0.17670  0.50000  Biso   1.000  H
  C36      1.0000 0.27560  0.10030  0.50000  Biso   1.000  C
  O240     1.0000 0.14590  0.06380  0.50000  Biso   1.000  O
  O241     1.0000 0.19190  0.42970  0.50000  Biso   1.000  O
  C37      1.0000 0.21020  0.34850  0.50000  Biso   1.000  C
  C38      1.0000 0.24310  0.31490  0.50000  Biso   1.000  C
  H13      1.0000 0.27510  0.32330  0.50000  Biso   1.000  H
  C39      1.0000 0.22440  0.39970  0.50000  Biso   1.000  C
  O242     1.0000 0.35410  0.43620  0.50000  Biso   1.000  O
  O243     1.0000 0.19190  0.92970  0.00000  Biso   1.000  O
  C40      1.0000 0.21020  0.84850  0.00000  Biso   1.000  C
  C41      1.0000 0.24310  0.81490  0.00000  Biso   1.000  C
  H14      1.0000 0.27510  0.82330  0.00000  Biso   1.000  H
  C42      1.0000 0.22440  0.89970  0.00000  Biso   1.000  C
  O244     1.0000 0.35410  0.93620  0.00000  Biso   1.000  O
  O245     1.0000 0.69190  0.42970  0.00000  Biso   1.000  O
  C43      1.0000 0.71020  0.34850  0.00000  Biso   1.000  C
  C44      1.0000 0.74310  0.31490  0.00000  Biso   1.000  C
  H15      1.0000 0.77510  0.32330  0.00000  Biso   1.000  H
  C45      1.0000 0.72440  0.39970  0.00000  Biso   1.000  C
  O246     1.0000 0.85410  0.43620  0.00000  Biso   1.000  O
  O247     1.0000 0.69190  0.92970  0.50000  Biso   1.000  O
  C46      1.0000 0.71020  0.84850  0.50000  Biso   1.000  C
  C47      1.0000 0.74310  0.81490  0.50000  Biso   1.000  C
  H16      1.0000 0.77510  0.82330  0.50000  Biso   1.000  H
  C48      1.0000 0.72440  0.89970  0.50000  Biso   1.000  C
  O248     1.0000 0.85410  0.93620  0.50000  Biso   1.000  O
  O249     1.0000 0.50000  0.19190  0.57030  Biso   1.000  O
  C49      1.0000 0.50000  0.21020  0.65150  Biso   1.000  C
  C50      1.0000 0.50000  0.24310  0.68510  Biso   1.000  C
  H17      1.0000 0.50000  0.27510  0.67670  Biso   1.000  H
  C51      1.0000 0.50000  0.22440  0.60030  Biso   1.000  C
  O250     1.0000 0.50000  0.35410  0.56380  Biso   1.000  O
  O251     1.0000 0.50000  0.69190  0.07030  Biso   1.000  O
  C52      1.0000 0.50000  0.71020  0.15150  Biso   1.000  C
  C53      1.0000 0.50000  0.74310  0.18510  Biso   1.000  C
  H18      1.0000 0.50000  0.77510  0.17670  Biso   1.000  H
  C54      1.0000 0.50000  0.72440  0.10030  Biso   1.000  C
  O252     1.0000 0.50000  0.85410  0.06380  Biso   1.000  O
  O253     1.0000 0.00000  0.19190  0.07030  Biso   1.000  O
  C55      1.0000 0.00000  0.21020  0.15150  Biso   1.000  C
  C56      1.0000 0.00000  0.24310  0.18510  Biso   1.000  C
  H19      1.0000 0.00000  0.27510  0.17670  Biso   1.000  H
  C57      1.0000 0.00000  0.22440  0.10030  Biso   1.000  C
  O254     1.0000 0.00000  0.35410  0.06380  Biso   1.000  O
  O255     1.0000 0.00000  0.69190  0.57030  Biso   1.000  O
  C58      1.0000 0.00000  0.71020  0.65150  Biso   1.000  C
  C59      1.0000 0.00000  0.74310  0.68510  Biso   1.000  C
  H20      1.0000 0.00000  0.77510  0.67670  Biso   1.000  H
  C60      1.0000 0.00000  0.72440  0.60030  Biso   1.000  C
  O256     1.0000 0.00000  0.85410  0.56380  Biso   1.000  O
  O257     1.0000 0.50000  0.80810  0.42970  Biso   1.000  O
  C61      1.0000 0.50000  0.78980  0.34850  Biso   1.000  C
  C62      1.0000 0.50000  0.75690  0.31490  Biso   1.000  C
  H21      1.0000 0.50000  0.72490  0.32330  Biso   1.000  H
  C63      1.0000 0.50000  0.77560  0.39970  Biso   1.000  C
  O258     1.0000 0.50000  0.64590  0.43620  Biso   1.000  O
  O259     1.0000 0.50000  0.30810  0.92970  Biso   1.000  O
  C64      1.0000 0.50000  0.28980  0.84850  Biso   1.000  C
  C65      1.0000 0.50000  0.25690  0.81490  Biso   1.000  C
  H22      1.0000 0.50000  0.22490  0.82330  Biso   1.000  H
  C66      1.0000 0.50000  0.27560  0.89970  Biso   1.000  C
  O260     1.0000 0.50000  0.14590  0.93620  Biso   1.000  O
  O261     1.0000 0.00000  0.80810  0.92970  Biso   1.000  O
  C67      1.0000 0.00000  0.78980  0.84850  Biso   1.000  C
  C68      1.0000 0.00000  0.75690  0.81490  Biso   1.000  C
  H23      1.0000 0.00000  0.72490  0.82330  Biso   1.000  H
  C69      1.0000 0.00000  0.77560  0.89970  Biso   1.000  C
  O262     1.0000 0.00000  0.64590  0.93620  Biso   1.000  O
  O263     1.0000 0.00000  0.30810  0.42970  Biso   1.000  O
  C70      1.0000 0.00000  0.28980  0.34850  Biso   1.000  C
  C71      1.0000 0.00000  0.25690  0.31490  Biso   1.000  C
  H24      1.0000 0.00000  0.22490  0.32330  Biso   1.000  H
  C72      1.0000 0.00000  0.27560  0.39970  Biso   1.000  C
  O264     1.0000 0.00000  0.14590  0.43620  Biso   1.000  O
  O265     1.0000 0.50000  0.80810  0.57030  Biso   1.000  O
  C73      1.0000 0.50000  0.78980  0.65150  Biso   1.000  C
  C74      1.0000 0.50000  0.75690  0.68510  Biso   1.000  C
  H25      1.0000 0.50000  0.72490  0.67670  Biso   1.000  H
  C75      1.0000 0.50000  0.77560  0.60030  Biso   1.000  C
  O266     1.0000 0.50000  0.64590  0.56380  Biso   1.000  O
  O267     1.0000 0.50000  0.30810  0.07030  Biso   1.000  O
  C76      1.0000 0.50000  0.28980  0.15150  Biso   1.000  C
  C77      1.0000 0.50000  0.25690  0.18510  Biso   1.000  C
  H26      1.0000 0.50000  0.22490  0.17670  Biso   1.000  H
  C78      1.0000 0.50000  0.27560  0.10030  Biso   1.000  C
  O268     1.0000 0.50000  0.14590  0.06380  Biso   1.000  O
  O269     1.0000 0.00000  0.80810  0.07030  Biso   1.000  O
  C79      1.0000 0.00000  0.78980  0.15150  Biso   1.000  C
  C80      1.0000 0.00000  0.75690  0.18510  Biso   1.000  C
  H27      1.0000 0.00000  0.72490  0.17670  Biso   1.000  H
  C81      1.0000 0.00000  0.77560  0.10030  Biso   1.000  C
  O270     1.0000 0.00000  0.64590  0.06380  Biso   1.000  O
  O271     1.0000 0.00000  0.30810  0.57030  Biso   1.000  O
  C82      1.0000 0.00000  0.28980  0.65150  Biso   1.000  C
  C83      1.0000 0.00000  0.25690  0.68510  Biso   1.000  C
  H28      1.0000 0.00000  0.22490  0.67670  Biso   1.000  H
  C84      1.0000 0.00000  0.27560  0.60030  Biso   1.000  C
  O272     1.0000 0.00000  0.14590  0.56380  Biso   1.000  O
  O273     1.0000 0.50000  0.19190  0.42970  Biso   1.000  O
  C85      1.0000 0.50000  0.21020  0.34850  Biso   1.000  C
  C86      1.0000 0.50000  0.24310  0.31490  Biso   1.000  C
  H29      1.0000 0.50000  0.27510  0.32330  Biso   1.000  H
  C87      1.0000 0.50000  0.22440  0.39970  Biso   1.000  C
  O274     1.0000 0.50000  0.35410  0.43620  Biso   1.000  O
  O275     1.0000 0.50000  0.69190  0.92970  Biso   1.000  O
  C88      1.0000 0.50000  0.71020  0.84850  Biso   1.000  C
  C89      1.0000 0.50000  0.74310  0.81490  Biso   1.000  C
  H30      1.0000 0.50000  0.77510  0.82330  Biso   1.000  H
  C90      1.0000 0.50000  0.72440  0.89970  Biso   1.000  C
  O276     1.0000 0.50000  0.85410  0.93620  Biso   1.000  O
  O277     1.0000 0.00000  0.19190  0.92970  Biso   1.000  O
  C91      1.0000 0.00000  0.21020  0.84850  Biso   1.000  C
  C92      1.0000 0.00000  0.24310  0.81490  Biso   1.000  C
  H31      1.0000 0.00000  0.27510  0.82330  Biso   1.000  H
  C93      1.0000 0.00000  0.22440  0.89970  Biso   1.000  C
  O278     1.0000 0.00000  0.35410  0.93620  Biso   1.000  O
  O279     1.0000 0.00000  0.69190  0.42970  Biso   1.000  O
  C94      1.0000 0.00000  0.71020  0.34850  Biso   1.000  C
  C95      1.0000 0.00000  0.74310  0.31490  Biso   1.000  C
  H32      1.0000 0.00000  0.77510  0.32330  Biso   1.000  H
  C96      1.0000 0.00000  0.72440  0.39970  Biso   1.000  C
  O280     1.0000 0.00000  0.85410  0.43620  Biso   1.000  O
  O281     1.0000 0.57030  0.50000  0.19190  Biso   1.000  O
  C97      1.0000 0.65150  0.50000  0.21020  Biso   1.000  C
  C98      1.0000 0.68510  0.50000  0.24310  Biso   1.000  C
  H33      1.0000 0.67670  0.50000  0.27510  Biso   1.000  H
  C99      1.0000 0.60030  0.50000  0.22440  Biso   1.000  C
  O282     1.0000 0.56380  0.50000  0.35410  Biso   1.000  O
  O283     1.0000 0.57030  0.00000  0.69190  Biso   1.000  O
  C100     1.0000 0.65150  0.00000  0.71020  Biso   1.000  C
  C101     1.0000 0.68510  0.00000  0.74310  Biso   1.000  C
  H34      1.0000 0.67670  0.00000  0.77510  Biso   1.000  H
  C102     1.0000 0.60030  0.00000  0.72440  Biso   1.000  C
  O284     1.0000 0.56380  0.00000  0.85410  Biso   1.000  O
  O285     1.0000 0.07030  0.50000  0.69190  Biso   1.000  O
  C103     1.0000 0.15150  0.50000  0.71020  Biso   1.000  C
  C104     1.0000 0.18510  0.50000  0.74310  Biso   1.000  C
  H35      1.0000 0.17670  0.50000  0.77510  Biso   1.000  H
  C105     1.0000 0.10030  0.50000  0.72440  Biso   1.000  C
  O286     1.0000 0.06380  0.50000  0.85410  Biso   1.000  O
  O287     1.0000 0.07030  0.00000  0.19190  Biso   1.000  O
  C106     1.0000 0.15150  0.00000  0.21020  Biso   1.000  C
  C107     1.0000 0.18510  0.00000  0.24310  Biso   1.000  C
  H36      1.0000 0.17670  0.00000  0.27510  Biso   1.000  H
  C108     1.0000 0.10030  0.00000  0.22440  Biso   1.000  C
  O288     1.0000 0.06380  0.00000  0.35410  Biso   1.000  O
  O289     1.0000 0.42970  0.50000  0.80810  Biso   1.000  O
  C109     1.0000 0.34850  0.50000  0.78980  Biso   1.000  C
  C110     1.0000 0.31490  0.50000  0.75690  Biso   1.000  C
  H37      1.0000 0.32330  0.50000  0.72490  Biso   1.000  H
  C111     1.0000 0.39970  0.50000  0.77560  Biso   1.000  C
  O290     1.0000 0.43620  0.50000  0.64590  Biso   1.000  O
  O291     1.0000 0.42970  0.00000  0.30810  Biso   1.000  O
  C112     1.0000 0.34850  0.00000  0.28980  Biso   1.000  C
  C113     1.0000 0.31490  0.00000  0.25690  Biso   1.000  C
  H38      1.0000 0.32330  0.00000  0.22490  Biso   1.000  H
  C114     1.0000 0.39970  0.00000  0.27560  Biso   1.000  C
  O292     1.0000 0.43620  0.00000  0.14590  Biso   1.000  O
  O293     1.0000 0.92970  0.50000  0.30810  Biso   1.000  O
  C115     1.0000 0.84850  0.50000  0.28980  Biso   1.000  C
  C116     1.0000 0.81490  0.50000  0.25690  Biso   1.000  C
  H39      1.0000 0.82330  0.50000  0.22490  Biso   1.000  H
  C117     1.0000 0.89970  0.50000  0.27560  Biso   1.000  C
  O294     1.0000 0.93620  0.50000  0.14590  Biso   1.000  O
  O295     1.0000 0.92970  0.00000  0.80810  Biso   1.000  O
  C118     1.0000 0.84850  0.00000  0.78980  Biso   1.000  C
  C119     1.0000 0.81490  0.00000  0.75690  Biso   1.000  C
  H40      1.0000 0.82330  0.00000  0.72490  Biso   1.000  H
  C120     1.0000 0.89970  0.00000  0.77560  Biso   1.000  C
  O296     1.0000 0.93620  0.00000  0.64590  Biso   1.000  O
  O297     1.0000 0.57030  0.50000  0.80810  Biso   1.000  O
  C121     1.0000 0.65150  0.50000  0.78980  Biso   1.000  C
  C122     1.0000 0.68510  0.50000  0.75690  Biso   1.000  C
  H41      1.0000 0.67670  0.50000  0.72490  Biso   1.000  H
  C123     1.0000 0.60030  0.50000  0.77560  Biso   1.000  C
  O298     1.0000 0.56380  0.50000  0.64590  Biso   1.000  O
  O299     1.0000 0.57030  0.00000  0.30810  Biso   1.000  O
  C124     1.0000 0.65150  0.00000  0.28980  Biso   1.000  C
  C125     1.0000 0.68510  0.00000  0.25690  Biso   1.000  C
  H42      1.0000 0.67670  0.00000  0.22490  Biso   1.000  H
  C126     1.0000 0.60030  0.00000  0.27560  Biso   1.000  C
  O300     1.0000 0.56380  0.00000  0.14590  Biso   1.000  O
  O301     1.0000 0.07030  0.50000  0.30810  Biso   1.000  O
  C127     1.0000 0.15150  0.50000  0.28980  Biso   1.000  C
  C128     1.0000 0.18510  0.50000  0.25690  Biso   1.000  C
  H43      1.0000 0.17670  0.50000  0.22490  Biso   1.000  H
  C129     1.0000 0.10030  0.50000  0.27560  Biso   1.000  C
  O302     1.0000 0.06380  0.50000  0.14590  Biso   1.000  O
  O303     1.0000 0.07030  0.00000  0.80810  Biso   1.000  O
  C130     1.0000 0.15150  0.00000  0.78980  Biso   1.000  C
  C131     1.0000 0.18510  0.00000  0.75690  Biso   1.000  C
  H44      1.0000 0.17670  0.00000  0.72490  Biso   1.000  H
  C132     1.0000 0.10030  0.00000  0.77560  Biso   1.000  C
  O304     1.0000 0.06380  0.00000  0.64590  Biso   1.000  O
  O305     1.0000 0.42970  0.50000  0.19190  Biso   1.000  O
  C133     1.0000 0.34850  0.50000  0.21020  Biso   1.000  C
  C134     1.0000 0.31490  0.50000  0.24310  Biso   1.000  C
  H45      1.0000 0.32330  0.50000  0.27510  Biso   1.000  H
  C135     1.0000 0.39970  0.50000  0.22440  Biso   1.000  C
  O306     1.0000 0.43620  0.50000  0.35410  Biso   1.000  O
  O307     1.0000 0.42970  0.00000  0.69190  Biso   1.000  O
  C136     1.0000 0.34850  0.00000  0.71020  Biso   1.000  C
  C137     1.0000 0.31490  0.00000  0.74310  Biso   1.000  C
  H46      1.0000 0.32330  0.00000  0.77510  Biso   1.000  H
  C138     1.0000 0.39970  0.00000  0.72440  Biso   1.000  C
  O308     1.0000 0.43620  0.00000  0.85410  Biso   1.000  O
  O309     1.0000 0.92970  0.50000  0.69190  Biso   1.000  O
  C139     1.0000 0.84850  0.50000  0.71020  Biso   1.000  C
  C140     1.0000 0.81490  0.50000  0.74310  Biso   1.000  C
  H47      1.0000 0.82330  0.50000  0.77510  Biso   1.000  H
  C141     1.0000 0.89970  0.50000  0.72440  Biso   1.000  C
  O310     1.0000 0.93620  0.50000  0.85410  Biso   1.000  O
  O311     1.0000 0.92970  0.00000  0.19190  Biso   1.000  O
  C142     1.0000 0.84850  0.00000  0.21020  Biso   1.000  C
  C143     1.0000 0.81490  0.00000  0.24310  Biso   1.000  C
  H48      1.0000 0.82330  0.00000  0.27510  Biso   1.000  H
  C144     1.0000 0.89970  0.00000  0.22440  Biso   1.000  C
  O312     1.0000 0.93620  0.00000  0.35410  Biso   1.000  O
  O313     1.0000 0.57030  0.19190  0.50000  Biso   1.000  O
  C145     1.0000 0.65150  0.21020  0.50000  Biso   1.000  C
  C146     1.0000 0.68510  0.24310  0.50000  Biso   1.000  C
  H49      1.0000 0.67670  0.27510  0.50000  Biso   1.000  H
  C147     1.0000 0.60030  0.22440  0.50000  Biso   1.000  C
  O314     1.0000 0.56380  0.35410  0.50000  Biso   1.000  O
  O315     1.0000 0.57030  0.69190  0.00000  Biso   1.000  O
  C148     1.0000 0.65150  0.71020  0.00000  Biso   1.000  C
  C149     1.0000 0.68510  0.74310  0.00000  Biso   1.000  C
  H50      1.0000 0.67670  0.77510  0.00000  Biso   1.000  H
  C150     1.0000 0.60030  0.72440  0.00000  Biso   1.000  C
  O316     1.0000 0.56380  0.85410  0.00000  Biso   1.000  O
  O317     1.0000 0.07030  0.19190  0.00000  Biso   1.000  O
  C151     1.0000 0.15150  0.21020  0.00000  Biso   1.000  C
  C152     1.0000 0.18510  0.24310  0.00000  Biso   1.000  C
  H51      1.0000 0.17670  0.27510  0.00000  Biso   1.000  H
  C153     1.0000 0.10030  0.22440  0.00000  Biso   1.000  C
  O318     1.0000 0.06380  0.35410  0.00000  Biso   1.000  O
  O319     1.0000 0.07030  0.69190  0.50000  Biso   1.000  O
  C154     1.0000 0.15150  0.71020  0.50000  Biso   1.000  C
  C155     1.0000 0.18510  0.74310  0.50000  Biso   1.000  C
  H52      1.0000 0.17670  0.77510  0.50000  Biso   1.000  H
  C156     1.0000 0.10030  0.72440  0.50000  Biso   1.000  C
  O320     1.0000 0.06380  0.85410  0.50000  Biso   1.000  O
  O321     1.0000 0.42970  0.80810  0.50000  Biso   1.000  O
  C157     1.0000 0.34850  0.78980  0.50000  Biso   1.000  C
  C158     1.0000 0.31490  0.75690  0.50000  Biso   1.000  C
  H53      1.0000 0.32330  0.72490  0.50000  Biso   1.000  H
  C159     1.0000 0.39970  0.77560  0.50000  Biso   1.000  C
  O322     1.0000 0.43620  0.64590  0.50000  Biso   1.000  O
  O323     1.0000 0.42970  0.30810  0.00000  Biso   1.000  O
  C160     1.0000 0.34850  0.28980  0.00000  Biso   1.000  C
  C161     1.0000 0.31490  0.25690  0.00000  Biso   1.000  C
  H54      1.0000 0.32330  0.22490  0.00000  Biso   1.000  H
  C162     1.0000 0.39970  0.27560  0.00000  Biso   1.000  C
  O324     1.0000 0.43620  0.14590  0.00000  Biso   1.000  O
  O325     1.0000 0.92970  0.80810  0.00000  Biso   1.000  O
  C163     1.0000 0.84850  0.78980  0.00000  Biso   1.000  C
  C164     1.0000 0.81490  0.75690  0.00000  Biso   1.000  C
  H55      1.0000 0.82330  0.72490  0.00000  Biso   1.000  H
  C165     1.0000 0.89970  0.77560  0.00000  Biso   1.000  C
  O326     1.0000 0.93620  0.64590  0.00000  Biso   1.000  O
  O327     1.0000 0.92970  0.30810  0.50000  Biso   1.000  O
  C166     1.0000 0.84850  0.28980  0.50000  Biso   1.000  C
  C167     1.0000 0.81490  0.25690  0.50000  Biso   1.000  C
  H56      1.0000 0.82330  0.22490  0.50000  Biso   1.000  H
  C168     1.0000 0.89970  0.27560  0.50000  Biso   1.000  C
  O328     1.0000 0.93620  0.14590  0.50000  Biso   1.000  O
  O329     1.0000 0.57030  0.80810  0.50000  Biso   1.000  O
  C169     1.0000 0.65150  0.78980  0.50000  Biso   1.000  C
  C170     1.0000 0.68510  0.75690  0.50000  Biso   1.000  C
  H57      1.0000 0.67670  0.72490  0.50000  Biso   1.000  H
  C171     1.0000 0.60030  0.77560  0.50000  Biso   1.000  C
  O330     1.0000 0.56380  0.64590  0.50000  Biso   1.000  O
  O331     1.0000 0.57030  0.30810  0.00000  Biso   1.000  O
  C172     1.0000 0.65150  0.28980  0.00000  Biso   1.000  C
  C173     1.0000 0.68510  0.25690  0.00000  Biso   1.000  C
  H58      1.0000 0.67670  0.22490  0.00000  Biso   1.000  H
  C174     1.0000 0.60030  0.27560  0.00000  Biso   1.000  C
  O332     1.0000 0.56380  0.14590  0.00000  Biso   1.000  O
  O333     1.0000 0.07030  0.80810  0.00000  Biso   1.000  O
  C175     1.0000 0.15150  0.78980  0.00000  Biso   1.000  C
  C176     1.0000 0.18510  0.75690  0.00000  Biso   1.000  C
  H59      1.0000 0.17670  0.72490  0.00000  Biso   1.000  H
  C177     1.0000 0.10030  0.77560  0.00000  Biso   1.000  C
  O334     1.0000 0.06380  0.64590  0.00000  Biso   1.000  O
  O335     1.0000 0.07030  0.30810  0.50000  Biso   1.000  O
  C178     1.0000 0.15150  0.28980  0.50000  Biso   1.000  C
  C179     1.0000 0.18510  0.25690  0.50000  Biso   1.000  C
  H60      1.0000 0.17670  0.22490  0.50000  Biso   1.000  H
  C180     1.0000 0.10030  0.27560  0.50000  Biso   1.000  C
  O336     1.0000 0.06380  0.14590  0.50000  Biso   1.000  O
  O337     1.0000 0.42970  0.19190  0.50000  Biso   1.000  O
  C181     1.0000 0.34850  0.21020  0.50000  Biso   1.000  C
  C182     1.0000 0.31490  0.24310  0.50000  Biso   1.000  C
  H61      1.0000 0.32330  0.27510  0.50000  Biso   1.000  H
  C183     1.0000 0.39970  0.22440  0.50000  Biso   1.000  C
  O338     1.0000 0.43620  0.35410  0.50000  Biso   1.000  O
  O339     1.0000 0.42970  0.69190  0.00000  Biso   1.000  O
  C184     1.0000 0.34850  0.71020  0.00000  Biso   1.000  C
  C185     1.0000 0.31490  0.74310  0.00000  Biso   1.000  C
  H62      1.0000 0.32330  0.77510  0.00000  Biso   1.000  H
  C186     1.0000 0.39970  0.72440  0.00000  Biso   1.000  C
  O340     1.0000 0.43620  0.85410  0.00000  Biso   1.000  O
  O341     1.0000 0.92970  0.19190  0.00000  Biso   1.000  O
  C187     1.0000 0.84850  0.21020  0.00000  Biso   1.000  C
  C188     1.0000 0.81490  0.24310  0.00000  Biso   1.000  C
  H63      1.0000 0.82330  0.27510  0.00000  Biso   1.000  H
  C189     1.0000 0.89970  0.22440  0.00000  Biso   1.000  C
  O342     1.0000 0.93620  0.35410  0.00000  Biso   1.000  O
  O343     1.0000 0.92970  0.69190  0.50000  Biso   1.000  O
  C190     1.0000 0.84850  0.71020  0.50000  Biso   1.000  C
  C191     1.0000 0.81490  0.74310  0.50000  Biso   1.000  C
  H64      1.0000 0.82330  0.77510  0.50000  Biso   1.000  H
  C192     1.0000 0.89970  0.72440  0.50000  Biso   1.000  C
  O344     1.0000 0.93620  0.85410  0.50000  Biso   1.000  O
  O345     1.0000 0.19190  0.50000  0.42970  Biso   1.000  O
  C193     1.0000 0.21020  0.50000  0.34850  Biso   1.000  C
  C194     1.0000 0.24310  0.50000  0.31490  Biso   1.000  C
  H65      1.0000 0.27510  0.50000  0.32330  Biso   1.000  H
  C195     1.0000 0.22440  0.50000  0.39970  Biso   1.000  C
  O346     1.0000 0.35410  0.50000  0.43620  Biso   1.000  O
  O347     1.0000 0.19190  0.00000  0.92970  Biso   1.000  O
  C196     1.0000 0.21020  0.00000  0.84850  Biso   1.000  C
  C197     1.0000 0.24310  0.00000  0.81490  Biso   1.000  C
  H66      1.0000 0.27510  0.00000  0.82330  Biso   1.000  H
  C198     1.0000 0.22440  0.00000  0.89970  Biso   1.000  C
  O348     1.0000 0.35410  0.00000  0.93620  Biso   1.000  O
  O349     1.0000 0.69190  0.50000  0.92970  Biso   1.000  O
  C199     1.0000 0.71020  0.50000  0.84850  Biso   1.000  C
  C200     1.0000 0.74310  0.50000  0.81490  Biso   1.000  C
  H67      1.0000 0.77510  0.50000  0.82330  Biso   1.000  H
  C201     1.0000 0.72440  0.50000  0.89970  Biso   1.000  C
  O350     1.0000 0.85410  0.50000  0.93620  Biso   1.000  O
  O351     1.0000 0.69190  0.00000  0.42970  Biso   1.000  O
  C202     1.0000 0.71020  0.00000  0.34850  Biso   1.000  C
  C203     1.0000 0.74310  0.00000  0.31490  Biso   1.000  C
  H68      1.0000 0.77510  0.00000  0.32330  Biso   1.000  H
  C204     1.0000 0.72440  0.00000  0.39970  Biso   1.000  C
  O352     1.0000 0.85410  0.00000  0.43620  Biso   1.000  O
  O353     1.0000 0.80810  0.50000  0.57030  Biso   1.000  O
  C205     1.0000 0.78980  0.50000  0.65150  Biso   1.000  C
  C206     1.0000 0.75690  0.50000  0.68510  Biso   1.000  C
  H69      1.0000 0.72490  0.50000  0.67670  Biso   1.000  H
  C207     1.0000 0.77560  0.50000  0.60030  Biso   1.000  C
  O354     1.0000 0.64590  0.50000  0.56380  Biso   1.000  O
  O355     1.0000 0.80810  0.00000  0.07030  Biso   1.000  O
  C208     1.0000 0.78980  0.00000  0.15150  Biso   1.000  C
  C209     1.0000 0.75690  0.00000  0.18510  Biso   1.000  C
  H70      1.0000 0.72490  0.00000  0.17670  Biso   1.000  H
  C210     1.0000 0.77560  0.00000  0.10030  Biso   1.000  C
  O356     1.0000 0.64590  0.00000  0.06380  Biso   1.000  O
  O357     1.0000 0.30810  0.50000  0.07030  Biso   1.000  O
  C211     1.0000 0.28980  0.50000  0.15150  Biso   1.000  C
  C212     1.0000 0.25690  0.50000  0.18510  Biso   1.000  C
  H71      1.0000 0.22490  0.50000  0.17670  Biso   1.000  H
  C213     1.0000 0.27560  0.50000  0.10030  Biso   1.000  C
  O358     1.0000 0.14590  0.50000  0.06380  Biso   1.000  O
  O359     1.0000 0.30810  0.00000  0.57030  Biso   1.000  O
  C214     1.0000 0.28980  0.00000  0.65150  Biso   1.000  C
  C215     1.0000 0.25690  0.00000  0.68510  Biso   1.000  C
  H72      1.0000 0.22490  0.00000  0.67670  Biso   1.000  H
  C216     1.0000 0.27560  0.00000  0.60030  Biso   1.000  C
  O360     1.0000 0.14590  0.00000  0.56380  Biso   1.000  O
  O361     1.0000 0.80810  0.50000  0.42970  Biso   1.000  O
  C217     1.0000 0.78980  0.50000  0.34850  Biso   1.000  C
  C218     1.0000 0.75690  0.50000  0.31490  Biso   1.000  C
  H73      1.0000 0.72490  0.50000  0.32330  Biso   1.000  H
  C219     1.0000 0.77560  0.50000  0.39970  Biso   1.000  C
  O362     1.0000 0.64590  0.50000  0.43620  Biso   1.000  O
  O363     1.0000 0.80810  0.00000  0.92970  Biso   1.000  O
  C220     1.0000 0.78980  0.00000  0.84850  Biso   1.000  C
  C221     1.0000 0.75690  0.00000  0.81490  Biso   1.000  C
  H74      1.0000 0.72490  0.00000  0.82330  Biso   1.000  H
  C222     1.0000 0.77560  0.00000  0.89970  Biso   1.000  C
  O364     1.0000 0.64590  0.00000  0.93620  Biso   1.000  O
  O365     1.0000 0.30810  0.50000  0.92970  Biso   1.000  O
  C223     1.0000 0.28980  0.50000  0.84850  Biso   1.000  C
  C224     1.0000 0.25690  0.50000  0.81490  Biso   1.000  C
  H75      1.0000 0.22490  0.50000  0.82330  Biso   1.000  H
  C225     1.0000 0.27560  0.50000  0.89970  Biso   1.000  C
  O366     1.0000 0.14590  0.50000  0.93620  Biso   1.000  O
  O367     1.0000 0.30810  0.00000  0.42970  Biso   1.000  O
  C226     1.0000 0.28980  0.00000  0.34850  Biso   1.000  C
  C227     1.0000 0.25690  0.00000  0.31490  Biso   1.000  C
  H76      1.0000 0.22490  0.00000  0.32330  Biso   1.000  H
  C228     1.0000 0.27560  0.00000  0.39970  Biso   1.000  C
  O368     1.0000 0.14590  0.00000  0.43620  Biso   1.000  O
  O369     1.0000 0.19190  0.50000  0.57030  Biso   1.000  O
  C229     1.0000 0.21020  0.50000  0.65150  Biso   1.000  C
  C230     1.0000 0.24310  0.50000  0.68510  Biso   1.000  C
  H77      1.0000 0.27510  0.50000  0.67670  Biso   1.000  H
  C231     1.0000 0.22440  0.50000  0.60030  Biso   1.000  C
  O370     1.0000 0.35410  0.50000  0.56380  Biso   1.000  O
  O371     1.0000 0.19190  0.00000  0.07030  Biso   1.000  O
  C232     1.0000 0.21020  0.00000  0.15150  Biso   1.000  C
  C233     1.0000 0.24310  0.00000  0.18510  Biso   1.000  C
  H78      1.0000 0.27510  0.00000  0.17670  Biso   1.000  H
  C234     1.0000 0.22440  0.00000  0.10030  Biso   1.000  C
  O372     1.0000 0.35410  0.00000  0.06380  Biso   1.000  O
  O373     1.0000 0.69190  0.50000  0.07030  Biso   1.000  O
  C235     1.0000 0.71020  0.50000  0.15150  Biso   1.000  C
  C236     1.0000 0.74310  0.50000  0.18510  Biso   1.000  C
  H79      1.0000 0.77510  0.50000  0.17670  Biso   1.000  H
  C237     1.0000 0.72440  0.50000  0.10030  Biso   1.000  C
  O374     1.0000 0.85410  0.50000  0.06380  Biso   1.000  O
  O375     1.0000 0.69190  0.00000  0.57030  Biso   1.000  O
  C238     1.0000 0.71020  0.00000  0.65150  Biso   1.000  C
  C239     1.0000 0.74310  0.00000  0.68510  Biso   1.000  C
  H80      1.0000 0.77510  0.00000  0.67670  Biso   1.000  H
  C240     1.0000 0.72440  0.00000  0.60030  Biso   1.000  C
  O376     1.0000 0.85410  0.00000  0.56380  Biso   1.000  O
  O377     1.0000 0.50000  0.57030  0.80810  Biso   1.000  O
  C241     1.0000 0.50000  0.65150  0.78980  Biso   1.000  C
  C242     1.0000 0.50000  0.68510  0.75690  Biso   1.000  C
  H81      1.0000 0.50000  0.67670  0.72490  Biso   1.000  H
  C243     1.0000 0.50000  0.60030  0.77560  Biso   1.000  C
  O378     1.0000 0.50000  0.56380  0.64590  Biso   1.000  O
  O379     1.0000 0.50000  0.07030  0.30810  Biso   1.000  O
  C244     1.0000 0.50000  0.15150  0.28980  Biso   1.000  C
  C245     1.0000 0.50000  0.18510  0.25690  Biso   1.000  C
  H82      1.0000 0.50000  0.17670  0.22490  Biso   1.000  H
  C246     1.0000 0.50000  0.10030  0.27560  Biso   1.000  C
  O380     1.0000 0.50000  0.06380  0.14590  Biso   1.000  O
  O381     1.0000 0.00000  0.57030  0.30810  Biso   1.000  O
  C247     1.0000 0.00000  0.65150  0.28980  Biso   1.000  C
  C248     1.0000 0.00000  0.68510  0.25690  Biso   1.000  C
  H83      1.0000 0.00000  0.67670  0.22490  Biso   1.000  H
  C249     1.0000 0.00000  0.60030  0.27560  Biso   1.000  C
  O382     1.0000 0.00000  0.56380  0.14590  Biso   1.000  O
  O383     1.0000 0.00000  0.07030  0.80810  Biso   1.000  O
  C250     1.0000 0.00000  0.15150  0.78980  Biso   1.000  C
  C251     1.0000 0.00000  0.18510  0.75690  Biso   1.000  C
  H84      1.0000 0.00000  0.17670  0.72490  Biso   1.000  H
  C252     1.0000 0.00000  0.10030  0.77560  Biso   1.000  C
  O384     1.0000 0.00000  0.06380  0.64590  Biso   1.000  O
  O385     1.0000 0.50000  0.42970  0.19190  Biso   1.000  O
  C253     1.0000 0.50000  0.34850  0.21020  Biso   1.000  C
  C254     1.0000 0.50000  0.31490  0.24310  Biso   1.000  C
  H85      1.0000 0.50000  0.32330  0.27510  Biso   1.000  H
  C255     1.0000 0.50000  0.39970  0.22440  Biso   1.000  C
  O386     1.0000 0.50000  0.43620  0.35410  Biso   1.000  O
  O387     1.0000 0.50000  0.92970  0.69190  Biso   1.000  O
  C256     1.0000 0.50000  0.84850  0.71020  Biso   1.000  C
  C257     1.0000 0.50000  0.81490  0.74310  Biso   1.000  C
  H86      1.0000 0.50000  0.82330  0.77510  Biso   1.000  H
  C258     1.0000 0.50000  0.89970  0.72440  Biso   1.000  C
  O388     1.0000 0.50000  0.93620  0.85410  Biso   1.000  O
  O389     1.0000 0.00000  0.42970  0.69190  Biso   1.000  O
  C259     1.0000 0.00000  0.34850  0.71020  Biso   1.000  C
  C260     1.0000 0.00000  0.31490  0.74310  Biso   1.000  C
  H87      1.0000 0.00000  0.32330  0.77510  Biso   1.000  H
  C261     1.0000 0.00000  0.39970  0.72440  Biso   1.000  C
  O390     1.0000 0.00000  0.43620  0.85410  Biso   1.000  O
  O391     1.0000 0.00000  0.92970  0.19190  Biso   1.000  O
  C262     1.0000 0.00000  0.84850  0.21020  Biso   1.000  C
  C263     1.0000 0.00000  0.81490  0.24310  Biso   1.000  C
  H88      1.0000 0.00000  0.82330  0.27510  Biso   1.000  H
  C264     1.0000 0.00000  0.89970  0.22440  Biso   1.000  C
  O392     1.0000 0.00000  0.93620  0.35410  Biso   1.000  O
  O393     1.0000 0.50000  0.57030  0.19190  Biso   1.000  O
  C265     1.0000 0.50000  0.65150  0.21020  Biso   1.000  C
  C266     1.0000 0.50000  0.68510  0.24310  Biso   1.000  C
  H89      1.0000 0.50000  0.67670  0.27510  Biso   1.000  H
  C267     1.0000 0.50000  0.60030  0.22440  Biso   1.000  C
  O394     1.0000 0.50000  0.56380  0.35410  Biso   1.000  O
  O395     1.0000 0.50000  0.07030  0.69190  Biso   1.000  O
  C268     1.0000 0.50000  0.15150  0.71020  Biso   1.000  C
  C269     1.0000 0.50000  0.18510  0.74310  Biso   1.000  C
  H90      1.0000 0.50000  0.17670  0.77510  Biso   1.000  H
  C270     1.0000 0.50000  0.10030  0.72440  Biso   1.000  C
  O396     1.0000 0.50000  0.06380  0.85410  Biso   1.000  O
  O397     1.0000 0.00000  0.57030  0.69190  Biso   1.000  O
  C271     1.0000 0.00000  0.65150  0.71020  Biso   1.000  C
  C272     1.0000 0.00000  0.68510  0.74310  Biso   1.000  C
  H91      1.0000 0.00000  0.67670  0.77510  Biso   1.000  H
  C273     1.0000 0.00000  0.60030  0.72440  Biso   1.000  C
  O398     1.0000 0.00000  0.56380  0.85410  Biso   1.000  O
  O399     1.0000 0.00000  0.07030  0.19190  Biso   1.000  O
  C274     1.0000 0.00000  0.15150  0.21020  Biso   1.000  C
  C275     1.0000 0.00000  0.18510  0.24310  Biso   1.000  C
  H92      1.0000 0.00000  0.17670  0.27510  Biso   1.000  H
  C276     1.0000 0.00000  0.10030  0.22440  Biso   1.000  C
  O400     1.0000 0.00000  0.06380  0.35410  Biso   1.000  O
  O401     1.0000 0.50000  0.42970  0.80810  Biso   1.000  O
  C277     1.0000 0.50000  0.34850  0.78980  Biso   1.000  C
  C278     1.0000 0.50000  0.31490  0.75690  Biso   1.000  C
  H93      1.0000 0.50000  0.32330  0.72490  Biso   1.000  H
  C279     1.0000 0.50000  0.39970  0.77560  Biso   1.000  C
  O402     1.0000 0.50000  0.43620  0.64590  Biso   1.000  O
  O403     1.0000 0.50000  0.92970  0.30810  Biso   1.000  O
  C280     1.0000 0.50000  0.84850  0.28980  Biso   1.000  C
  C281     1.0000 0.50000  0.81490  0.25690  Biso   1.000  C
  H94      1.0000 0.50000  0.82330  0.22490  Biso   1.000  H
  C282     1.0000 0.50000  0.89970  0.27560  Biso   1.000  C
  O404     1.0000 0.50000  0.93620  0.14590  Biso   1.000  O
  O405     1.0000 0.00000  0.42970  0.30810  Biso   1.000  O
  C283     1.0000 0.00000  0.34850  0.28980  Biso   1.000  C
  C284     1.0000 0.00000  0.31490  0.25690  Biso   1.000  C
  H95      1.0000 0.00000  0.32330  0.22490  Biso   1.000  H
  C285     1.0000 0.00000  0.39970  0.27560  Biso   1.000  C
  O406     1.0000 0.00000  0.43620  0.14590  Biso   1.000  O
  O407     1.0000 0.00000  0.92970  0.80810  Biso   1.000  O
  C286     1.0000 0.00000  0.84850  0.78980  Biso   1.000  C
  C287     1.0000 0.00000  0.81490  0.75690  Biso   1.000  C
  H96      1.0000 0.00000  0.82330  0.72490  Biso   1.000  H
  C288     1.0000 0.00000  0.89970  0.77560  Biso   1.000  C
  O408     1.0000 0.00000  0.93620  0.64590  Biso   1.000  O
  C289     1.0000 0.16290  0.66290  0.50000  Biso   1.000  C
  H97      1.0000 0.13950  0.63950  0.50000  Biso   1.000  H
  C290     1.0000 0.23090  0.73090  0.50000  Biso   1.000  C
  C291     1.0000 0.16290  0.16290  0.00000  Biso   1.000  C
  H98      1.0000 0.13950  0.13950  0.00000  Biso   1.000  H
  C292     1.0000 0.23090  0.23090  0.00000  Biso   1.000  C
  C293     1.0000 0.83710  0.33710  0.50000  Biso   1.000  C
  H99      1.0000 0.86050  0.36050  0.50000  Biso   1.000  H
  C294     1.0000 0.76910  0.26910  0.50000  Biso   1.000  C
  C295     1.0000 0.83710  0.83710  0.00000  Biso   1.000  C
  H100     1.0000 0.86050  0.86050  0.00000  Biso   1.000  H
  C296     1.0000 0.76910  0.76910  0.00000  Biso   1.000  C
  C297     1.0000 0.83710  0.66290  0.50000  Biso   1.000  C
  H101     1.0000 0.86050  0.63950  0.50000  Biso   1.000  H
  C298     1.0000 0.76910  0.73090  0.50000  Biso   1.000  C
  C299     1.0000 0.83710  0.16290  0.00000  Biso   1.000  C
  H102     1.0000 0.86050  0.13950  0.00000  Biso   1.000  H
  C300     1.0000 0.76910  0.23090  0.00000  Biso   1.000  C
  C301     1.0000 0.16290  0.33710  0.50000  Biso   1.000  C
  H103     1.0000 0.13950  0.36050  0.50000  Biso   1.000  H
  C302     1.0000 0.23090  0.26910  0.50000  Biso   1.000  C
  C303     1.0000 0.16290  0.83710  0.00000  Biso   1.000  C
  H104     1.0000 0.13950  0.86050  0.00000  Biso   1.000  H
  C304     1.0000 0.23090  0.76910  0.00000  Biso   1.000  C
  C305     1.0000 0.50000  0.16290  0.66290  Biso   1.000  C
  H105     1.0000 0.50000  0.13950  0.63950  Biso   1.000  H
  C306     1.0000 0.50000  0.23090  0.73090  Biso   1.000  C
  C307     1.0000 0.00000  0.16290  0.16290  Biso   1.000  C
  H106     1.0000 0.00000  0.13950  0.13950  Biso   1.000  H
  C308     1.0000 0.00000  0.23090  0.23090  Biso   1.000  C
  C309     1.0000 0.50000  0.83710  0.33710  Biso   1.000  C
  H107     1.0000 0.50000  0.86050  0.36050  Biso   1.000  H
  C310     1.0000 0.50000  0.76910  0.26910  Biso   1.000  C
  C311     1.0000 0.00000  0.83710  0.83710  Biso   1.000  C
  H108     1.0000 0.00000  0.86050  0.86050  Biso   1.000  H
  C312     1.0000 0.00000  0.76910  0.76910  Biso   1.000  C
  C313     1.0000 0.50000  0.83710  0.66290  Biso   1.000  C
  H109     1.0000 0.50000  0.86050  0.63950  Biso   1.000  H
  C314     1.0000 0.50000  0.76910  0.73090  Biso   1.000  C
  C315     1.0000 0.00000  0.83710  0.16290  Biso   1.000  C
  H110     1.0000 0.00000  0.86050  0.13950  Biso   1.000  H
  C316     1.0000 0.00000  0.76910  0.23090  Biso   1.000  C
  C317     1.0000 0.50000  0.16290  0.33710  Biso   1.000  C
  H111     1.0000 0.50000  0.13950  0.36050  Biso   1.000  H
  C318     1.0000 0.50000  0.23090  0.26910  Biso   1.000  C
  C319     1.0000 0.00000  0.16290  0.83710  Biso   1.000  C
  H112     1.0000 0.00000  0.13950  0.86050  Biso   1.000  H
  C320     1.0000 0.00000  0.23090  0.76910  Biso   1.000  C
  C321     1.0000 0.66290  0.50000  0.16290  Biso   1.000  C
  H113     1.0000 0.63950  0.50000  0.13950  Biso   1.000  H
  C322     1.0000 0.73090  0.50000  0.23090  Biso   1.000  C
  C323     1.0000 0.66290  0.00000  0.66290  Biso   1.000  C
  H114     1.0000 0.63950  0.00000  0.63950  Biso   1.000  H
  C324     1.0000 0.73090  0.00000  0.73090  Biso   1.000  C
  C325     1.0000 0.33710  0.50000  0.83710  Biso   1.000  C
  H115     1.0000 0.36050  0.50000  0.86050  Biso   1.000  H
  C326     1.0000 0.26910  0.50000  0.76910  Biso   1.000  C
  C327     1.0000 0.33710  0.00000  0.33710  Biso   1.000  C
  H116     1.0000 0.36050  0.00000  0.36050  Biso   1.000  H
  C328     1.0000 0.26910  0.00000  0.26910  Biso   1.000  C
  C329     1.0000 0.66290  0.50000  0.83710  Biso   1.000  C
  H117     1.0000 0.63950  0.50000  0.86050  Biso   1.000  H
  C330     1.0000 0.73090  0.50000  0.76910  Biso   1.000  C
  C331     1.0000 0.66290  0.00000  0.33710  Biso   1.000  C
  H118     1.0000 0.63950  0.00000  0.36050  Biso   1.000  H
  C332     1.0000 0.73090  0.00000  0.26910  Biso   1.000  C
  C333     1.0000 0.33710  0.50000  0.16290  Biso   1.000  C
  H119     1.0000 0.36050  0.50000  0.13950  Biso   1.000  H
  C334     1.0000 0.26910  0.50000  0.23090  Biso   1.000  C
  C335     1.0000 0.33710  0.00000  0.66290  Biso   1.000  C
  H120     1.0000 0.36050  0.00000  0.63950  Biso   1.000  H
  C336     1.0000 0.26910  0.00000  0.73090  Biso   1.000  C
  C337     1.0000 0.66290  0.16290  0.50000  Biso   1.000  C
  H121     1.0000 0.63950  0.13950  0.50000  Biso   1.000  H
  C338     1.0000 0.73090  0.23090  0.50000  Biso   1.000  C
  C339     1.0000 0.66290  0.66290  0.00000  Biso   1.000  C
  H122     1.0000 0.63950  0.63950  0.00000  Biso   1.000  H
  C340     1.0000 0.73090  0.73090  0.00000  Biso   1.000  C
  C341     1.0000 0.33710  0.83710  0.50000  Biso   1.000  C
  H123     1.0000 0.36050  0.86050  0.50000  Biso   1.000  H
  C342     1.0000 0.26910  0.76910  0.50000  Biso   1.000  C
  C343     1.0000 0.33710  0.33710  0.00000  Biso   1.000  C
  H124     1.0000 0.36050  0.36050  0.00000  Biso   1.000  H
  C344     1.0000 0.26910  0.26910  0.00000  Biso   1.000  C
  C345     1.0000 0.66290  0.83710  0.50000  Biso   1.000  C
  H125     1.0000 0.63950  0.86050  0.50000  Biso   1.000  H
  C346     1.0000 0.73090  0.76910  0.50000  Biso   1.000  C
  C347     1.0000 0.66290  0.33710  0.00000  Biso   1.000  C
  H126     1.0000 0.63950  0.36050  0.00000  Biso   1.000  H
  C348     1.0000 0.73090  0.26910  0.00000  Biso   1.000  C
  C349     1.0000 0.33710  0.16290  0.50000  Biso   1.000  C
  H127     1.0000 0.36050  0.13950  0.50000  Biso   1.000  H
  C350     1.0000 0.26910  0.23090  0.50000  Biso   1.000  C
  C351     1.0000 0.33710  0.66290  0.00000  Biso   1.000  C
  H128     1.0000 0.36050  0.63950  0.00000  Biso   1.000  H
  C352     1.0000 0.26910  0.73090  0.00000  Biso   1.000  C
  C353     1.0000 0.16290  0.50000  0.33710  Biso   1.000  C
  H129     1.0000 0.13950  0.50000  0.36050  Biso   1.000  H
  C354     1.0000 0.23090  0.50000  0.26910  Biso   1.000  C
  C355     1.0000 0.16290  0.00000  0.83710  Biso   1.000  C
  H130     1.0000 0.13950  0.00000  0.86050  Biso   1.000  H
  C356     1.0000 0.23090  0.00000  0.76910  Biso   1.000  C
  C357     1.0000 0.83710  0.50000  0.66290  Biso   1.000  C
  H131     1.0000 0.86050  0.50000  0.63950  Biso   1.000  H
  C358     1.0000 0.76910  0.50000  0.73090  Biso   1.000  C
  C359     1.0000 0.83710  0.00000  0.16290  Biso   1.000  C
  H132     1.0000 0.86050  0.00000  0.13950  Biso   1.000  H
  C360     1.0000 0.76910  0.00000  0.23090  Biso   1.000  C
  C361     1.0000 0.83710  0.50000  0.33710  Biso   1.000  C
  H133     1.0000 0.86050  0.50000  0.36050  Biso   1.000  H
  C362     1.0000 0.76910  0.50000  0.26910  Biso   1.000  C
  C363     1.0000 0.83710  0.00000  0.83710  Biso   1.000  C
  H134     1.0000 0.86050  0.00000  0.86050  Biso   1.000  H
  C364     1.0000 0.76910  0.00000  0.76910  Biso   1.000  C
  C365     1.0000 0.16290  0.50000  0.66290  Biso   1.000  C
  H135     1.0000 0.13950  0.50000  0.63950  Biso   1.000  H
  C366     1.0000 0.23090  0.50000  0.73090  Biso   1.000  C
  C367     1.0000 0.16290  0.00000  0.16290  Biso   1.000  C
  H136     1.0000 0.13950  0.00000  0.13950  Biso   1.000  H
  C368     1.0000 0.23090  0.00000  0.23090  Biso   1.000  C
  C369     1.0000 0.50000  0.66290  0.83710  Biso   1.000  C
  H137     1.0000 0.50000  0.63950  0.86050  Biso   1.000  H
  C370     1.0000 0.50000  0.73090  0.76910  Biso   1.000  C
  C371     1.0000 0.00000  0.66290  0.33710  Biso   1.000  C
  H138     1.0000 0.00000  0.63950  0.36050  Biso   1.000  H
  C372     1.0000 0.00000  0.73090  0.26910  Biso   1.000  C
  C373     1.0000 0.50000  0.33710  0.16290  Biso   1.000  C
  H139     1.0000 0.50000  0.36050  0.13950  Biso   1.000  H
  C374     1.0000 0.50000  0.26910  0.23090  Biso   1.000  C
  C375     1.0000 0.00000  0.33710  0.66290  Biso   1.000  C
  H140     1.0000 0.00000  0.36050  0.63950  Biso   1.000  H
  C376     1.0000 0.00000  0.26910  0.73090  Biso   1.000  C
  C377     1.0000 0.50000  0.66290  0.16290  Biso   1.000  C
  H141     1.0000 0.50000  0.63950  0.13950  Biso   1.000  H
  C378     1.0000 0.50000  0.73090  0.23090  Biso   1.000  C
  C379     1.0000 0.00000  0.66290  0.66290  Biso   1.000  C
  H142     1.0000 0.00000  0.63950  0.63950  Biso   1.000  H
  C380     1.0000 0.00000  0.73090  0.73090  Biso   1.000  C
  C381     1.0000 0.50000  0.33710  0.83710  Biso   1.000  C
  H143     1.0000 0.50000  0.36050  0.86050  Biso   1.000  H
  C382     1.0000 0.50000  0.26910  0.76910  Biso   1.000  C
  C383     1.0000 0.00000  0.33710  0.33710  Biso   1.000  C
  H144     1.0000 0.00000  0.36050  0.36050  Biso   1.000  H
  C384     1.0000 0.00000  0.26910  0.26910  Biso   1.000  C
