data_image0
_cell_length_a       53.965
_cell_length_b       12.9968
_cell_length_c       21.607
_cell_angle_alpha    90
_cell_angle_beta     107.366
_cell_angle_gamma    90

_symmetry_space_group_name_H-M    "P 1"
_symmetry_int_tables_number       1

loop_
  _symmetry_equiv_pos_as_xyz
  'x, y, z'

loop_
  _atom_site_label
  _atom_site_occupancy
  _atom_site_fract_x
  _atom_site_fract_y
  _atom_site_fract_z
  _atom_site_thermal_displace_type
  _atom_site_B_iso_or_equiv
  _atom_site_type_symbol
  Cd1      1.0000 0.12505  0.46517  0.30894  Biso   1.000  Cd
  Cd2      1.0000 0.17366  0.29698  0.45032  Biso   1.000  Cd
  Cd3      1.0000 0.07503  0.60420  0.15635  Biso   1.000  Cd
  O1       1.0000 0.15534  0.45200  0.41430  Biso   1.000  O
  O2       1.0000 0.19095  0.48250  0.49200  Biso   1.000  O
  O3       1.0000 0.12171  0.61100  0.40520  Biso   1.000  O
  O4       1.0000 0.09986  0.61830  0.27780  Biso   1.000  O
  O5       1.0000 0.05947  0.66730  0.23930  Biso   1.000  O
  O6       1.0000 0.14115  0.29470  0.31200  Biso   1.000  O
  O7       1.0000 0.14326  0.19140  0.39500  Biso   1.000  O
  O8       1.0000 0.10606  0.24770  0.19660  Biso   1.000  O
  O9       1.0000 0.10024  0.45610  0.19580  Biso   1.000  O
  O10      1.0000 0.09964  0.50620  0.09780  Biso   1.000  O
  O11      1.0000 0.17166  0.26530  0.54870  Biso   1.000  O
  O12      1.0000 0.18728  0.12140  0.52420  Biso   1.000  O
  O13      1.0000 0.13029  0.16170  0.58550  Biso   1.000  O
  O14      1.0000 0.09585  0.24680  0.64670  Biso   1.000  O
  O15      1.0000 0.05926  0.26470  0.56980  Biso   1.000  O
  N1       1.0000 0.09083  0.39300  0.33100  Biso   1.000  N
  N2       1.0000 0.06707  0.28690  0.36900  Biso   1.000  N
  N3       1.0000 0.99506  0.40780  0.42340  Biso   1.000  N
  N4       1.0000 0.96055  0.50820  0.39260  Biso   1.000  N
  N5       1.0000 0.25582  0.71260  0.09690  Biso   1.000  N
  N6       1.0000 0.28904  0.77820  0.07150  Biso   1.000  N
  C1       1.0000 0.08830  0.35040  0.38490  Biso   1.000  C
  C2       1.0000 0.05621  0.29200  0.30250  Biso   1.000  C
  H1       1.0000 0.04150  0.25720  0.27800  Biso   1.000  H
  C3       1.0000 0.07084  0.35650  0.28020  Biso   1.000  C
  H2       1.0000 0.06790  0.37400  0.23680  Biso   1.000  H
  C4       1.0000 0.10463  0.36590  0.45250  Biso   1.000  C
  H3       1.0000 0.11070  0.30040  0.47180  Biso   1.000  H
  H4       1.0000 0.09460  0.39880  0.47680  Biso   1.000  H
  H5       1.0000 0.11920  0.40840  0.45300  Biso   1.000  H
  C5       1.0000 0.05975  0.21650  0.41280  Biso   1.000  C
  H6       1.0000 0.06240  0.25020  0.45430  Biso   1.000  H
  H7       1.0000 0.07100  0.15680  0.41980  Biso   1.000  H
  C6       1.0000 0.03246  0.18230  0.38800  Biso   1.000  C
  C7       1.0000 0.02649  0.08600  0.35870  Biso   1.000  C
  H8       1.0000 0.03990  0.04260  0.35680  Biso   1.000  H
  C8       1.0000 0.00162  0.05400  0.33300  Biso   1.000  C
  H9       1.0000 0.99830  0.98960  0.31360  Biso   1.000  H
  C9       1.0000 0.98176  0.11420  0.33520  Biso   1.000  C
  H10      1.0000 0.96480  0.09160  0.31710  Biso   1.000  H
  C10      1.0000 0.98645  0.21090  0.36460  Biso   1.000  C
  H11      1.0000 0.97260  0.25180  0.36710  Biso   1.000  H
  C11      1.0000 0.01193  0.24610  0.39020  Biso   1.000  C
  C12      1.0000 0.01786  0.34980  0.42210  Biso   1.000  C
  H12      1.0000 0.02890  0.34030  0.46620  Biso   1.000  H
  H13      1.0000 0.02750  0.38990  0.39920  Biso   1.000  H
  C13      1.0000 0.98121  0.47440  0.37790  Biso   1.000  C
  C14      1.0000 0.96091  0.45930  0.44900  Biso   1.000  C
  H14      1.0000 0.94840  0.46760  0.47040  Biso   1.000  H
  C15      1.0000 0.98189  0.39740  0.46920  Biso   1.000  C
  H15      1.0000 0.98650  0.35640  0.50610  Biso   1.000  H
  C16      1.0000 0.98869  0.50510  0.31950  Biso   1.000  C
  H16      1.0000 0.97720  0.55820  0.29660  Biso   1.000  H
  H17      1.0000 0.98740  0.44650  0.29160  Biso   1.000  H
  H18      1.0000 0.00620  0.53010  0.33260  Biso   1.000  H
  N7       1.0000 0.15248  0.55200  0.26890  Biso   1.000  N
  C17      1.0000 0.17424  0.50460  0.25620  Biso   1.000  C
  N8       1.0000 0.18125  0.56540  0.20940  Biso   1.000  N
  C18      1.0000 0.16381  0.65030  0.19320  Biso   1.000  C
  H19      1.0000 0.16410  0.70070  0.16220  Biso   1.000  H
  C19      1.0000 0.14670  0.64080  0.23510  Biso   1.000  C
  H20      1.0000 0.13290  0.68770  0.23390  Biso   1.000  H
  C20      1.0000 0.18840  0.40840  0.27860  Biso   1.000  C
  H21      1.0000 0.20250  0.39470  0.26110  Biso   1.000  H
  H22      1.0000 0.19510  0.41570  0.32480  Biso   1.000  H
  H23      1.0000 0.17630  0.35240  0.26830  Biso   1.000  H
  C21      1.0000 0.20062  0.57280  0.18200  Biso   1.000  C
  H24      1.0000 0.19400  0.60540  0.14050  Biso   1.000  H
  H25      1.0000 0.20600  0.50470  0.17480  Biso   1.000  H
  C22      1.0000 0.22404  0.63190  0.22140  Biso   1.000  C
  C23      1.0000 0.22653  0.65780  0.28580  Biso   1.000  C
  H26      1.0000 0.21380  0.63780  0.30450  Biso   1.000  H
  C24      1.0000 0.24687  0.71050  0.32010  Biso   1.000  C
  H27      1.0000 0.24790  0.72870  0.36240  Biso   1.000  H
  C25      1.0000 0.26675  0.73990  0.29560  Biso   1.000  C
  H28      1.0000 0.28160  0.77230  0.32160  Biso   1.000  H
  C26      1.0000 0.26379  0.71970  0.23220  Biso   1.000  C
  H29      1.0000 0.27650  0.74140  0.21400  Biso   1.000  H
  C27      1.0000 0.24253  0.66810  0.19430  Biso   1.000  C
  C28      1.0000 0.23942  0.64810  0.12300  Biso   1.000  C
  H30      1.0000 0.24340  0.57660  0.11760  Biso   1.000  H
  H31      1.0000 0.22140  0.65960  0.09820  Biso   1.000  H
  C29      1.0000 0.27961  0.69730  0.09380  Biso   1.000  C
  C30      1.0000 0.26934  0.85220  0.06000  Biso   1.000  C
  H32      1.0000 0.27010  0.91800  0.04380  Biso   1.000  H
  C31      1.0000 0.24951  0.81360  0.07590  Biso   1.000  C
  H33      1.0000 0.23410  0.84750  0.07360  Biso   1.000  H
  C32      1.0000 0.29423  0.59930  0.11050  Biso   1.000  C
  H34      1.0000 0.30040  0.57840  0.07510  Biso   1.000  H
  H35      1.0000 0.28300  0.54710  0.11880  Biso   1.000  H
  H36      1.0000 0.30880  0.60910  0.14860  Biso   1.000  H
  C33      1.0000 0.17170  0.51530  0.45010  Biso   1.000  C
  C34      1.0000 0.16756  0.62730  0.44180  Biso   1.000  C
  C35      1.0000 0.18966  0.69150  0.46120  Biso   1.000  C
  H37      1.0000 0.20610  0.66220  0.47550  Biso   1.000  H
  C36      1.0000 0.18700  0.80280  0.45930  Biso   1.000  C
  H38      1.0000 0.20130  0.84610  0.47410  Biso   1.000  H
  C37      1.0000 0.16257  0.84020  0.43480  Biso   1.000  C
  H39      1.0000 0.16050  0.91120  0.43110  Biso   1.000  H
  C38      1.0000 0.14074  0.78110  0.41530  Biso   1.000  C
  H40      1.0000 0.12450  0.81130  0.39850  Biso   1.000  H
  C39      1.0000 0.14324  0.67500  0.42090  Biso   1.000  C
  C40      1.0000 0.09830  0.64910  0.40860  Biso   1.000  C
  C41      1.0000 0.09541  0.66250  0.46870  Biso   1.000  C
  H41      1.0000 0.10940  0.64990  0.50530  Biso   1.000  H
  C42      1.0000 0.07243  0.69400  0.47590  Biso   1.000  C
  H42      1.0000 0.07090  0.70360  0.51730  Biso   1.000  H
  C43      1.0000 0.05162  0.71140  0.42290  Biso   1.000  C
  H43      1.0000 0.03590  0.73390  0.42750  Biso   1.000  H
  C44      1.0000 0.05439  0.69480  0.36210  Biso   1.000  C
  H44      1.0000 0.04010  0.70440  0.32570  Biso   1.000  H
  C45      1.0000 0.07782  0.66420  0.35340  Biso   1.000  C
  C46      1.0000 0.07946  0.64870  0.28680  Biso   1.000  C
  C47      1.0000 0.13504  0.21640  0.33540  Biso   1.000  C
  C48      1.0000 0.11652  0.13990  0.29250  Biso   1.000  C
  C49      1.0000 0.11068  0.04830  0.31920  Biso   1.000  C
  H45      1.0000 0.11800  0.03630  0.36340  Biso   1.000  H
  C50      1.0000 0.09434  0.97490  0.28160  Biso   1.000  C
  H46      1.0000 0.09070  0.91470  0.30060  Biso   1.000  H
  C51      1.0000 0.08386  0.99070  0.21830  Biso   1.000  C
  H47      1.0000 0.07310  0.94080  0.19310  Biso   1.000  H
  C52      1.0000 0.08873  0.08090  0.18900  Biso   1.000  C
  H48      1.0000 0.08130  0.09170  0.14470  Biso   1.000  H
  C53      1.0000 0.10496  0.15470  0.22750  Biso   1.000  C
  C54      1.0000 0.12547  0.26580  0.16970  Biso   1.000  C
  C55      1.0000 0.14293  0.19090  0.16460  Biso   1.000  C
  H49      1.0000 0.14240  0.12610  0.18240  Biso   1.000  H
  C56      1.0000 0.16104  0.21190  0.13330  Biso   1.000  C
  H50      1.0000 0.17240  0.16040  0.12940  Biso   1.000  H
  C57      1.0000 0.16266  0.30570  0.10820  Biso   1.000  C
  H51      1.0000 0.17560  0.32020  0.08910  Biso   1.000  H
  C58      1.0000 0.14452  0.38090  0.11140  Biso   1.000  C
  H52      1.0000 0.14490  0.44430  0.09180  Biso   1.000  H
  C59      1.0000 0.12634  0.36390  0.14240  Biso   1.000  C
  C60      1.0000 0.10751  0.44620  0.14540  Biso   1.000  C
  C61      1.0000 0.17835  0.17250  0.55940  Biso   1.000  C
  C62      1.0000 0.17566  0.12820  0.62140  Biso   1.000  C
  C63      1.0000 0.19694  0.09280  0.66850  Biso   1.000  C
  H53      1.0000 0.21320  0.09340  0.66170  Biso   1.000  H
  C64      1.0000 0.19435  0.05620  0.72620  Biso   1.000  C
  H54      1.0000 0.20890  0.03150  0.75790  Biso   1.000  H
  C65      1.0000 0.17071  0.05560  0.73740  Biso   1.000  C
  H55      1.0000 0.16940  0.03330  0.77720  Biso   1.000  H
  C66      1.0000 0.14876  0.08810  0.68990  Biso   1.000  C
  H56      1.0000 0.13250  0.08610  0.69660  Biso   1.000  H
  C67      1.0000 0.15167  0.12350  0.63240  Biso   1.000  C
  C68      1.0000 0.10987  0.09470  0.56080  Biso   1.000  C
  C69      1.0000 0.11417  0.00620  0.53130  Biso   1.000  C
  H57      1.0000 0.13080  0.98950  0.53050  Biso   1.000  H
  C70      1.0000 0.09362  0.94220  0.50290  Biso   1.000  C
  H58      1.0000 0.09630  0.88260  0.48200  Biso   1.000  H
  C71      1.0000 0.06932  0.96600  0.50530  Biso   1.000  C
  H59      1.0000 0.05550  0.92190  0.48690  Biso   1.000  H
  C72      1.0000 0.06525  0.05450  0.53470  Biso   1.000  C
  H60      1.0000 0.04850  0.07040  0.53550  Biso   1.000  H
  C73      1.0000 0.08537  0.12110  0.56320  Biso   1.000  C
  C74      1.0000 0.08025  0.21790  0.59630  Biso   1.000  C
  N9       1.0000 0.15990  0.49750  0.27490  Biso   1.000  N
  C75      1.0000 0.16680  0.55160  0.24070  Biso   1.000  C
  C76      1.0000 0.19710  0.44450  0.25540  Biso   1.000  C
  H61      1.0000 0.21210  0.40720  0.25320  Biso   1.000  H
  N10      1.0000 0.18450  0.54000  0.21860  Biso   1.000  N
  C77      1.0000 0.18180  0.41490  0.28820  Biso   1.000  C
  H62      1.0000 0.18370  0.35780  0.31740  Biso   1.000  H
  C78      1.0000 0.15010  0.64490  0.21190  Biso   1.000  C
  H63      1.0000 0.13600  0.65700  0.22970  Biso   1.000  H
  H64      1.0000 0.16190  0.70200  0.22190  Biso   1.000  H
  H65      1.0000 0.14330  0.63730  0.16570  Biso   1.000  H
  Cd4      1.0000 0.62505  0.96517  0.30894  Biso   1.000  Cd
  Cd5      1.0000 0.67366  0.79698  0.45032  Biso   1.000  Cd
  Cd6      1.0000 0.57503  0.10420  0.15635  Biso   1.000  Cd
  O16      1.0000 0.65534  0.95200  0.41430  Biso   1.000  O
  O17      1.0000 0.69095  0.98250  0.49200  Biso   1.000  O
  O18      1.0000 0.62171  0.11100  0.40520  Biso   1.000  O
  O19      1.0000 0.59986  0.11830  0.27780  Biso   1.000  O
  O20      1.0000 0.55947  0.16730  0.23930  Biso   1.000  O
  O21      1.0000 0.64115  0.79470  0.31200  Biso   1.000  O
  O22      1.0000 0.64326  0.69140  0.39500  Biso   1.000  O
  O23      1.0000 0.60606  0.74770  0.19660  Biso   1.000  O
  O24      1.0000 0.60024  0.95610  0.19580  Biso   1.000  O
  O25      1.0000 0.59964  0.00620  0.09780  Biso   1.000  O
  O26      1.0000 0.67166  0.76530  0.54870  Biso   1.000  O
  O27      1.0000 0.68728  0.62140  0.52420  Biso   1.000  O
  O28      1.0000 0.63029  0.66170  0.58550  Biso   1.000  O
  O29      1.0000 0.59585  0.74680  0.64670  Biso   1.000  O
  O30      1.0000 0.55926  0.76470  0.56980  Biso   1.000  O
  N11      1.0000 0.59083  0.89300  0.33100  Biso   1.000  N
  N12      1.0000 0.56707  0.78690  0.36900  Biso   1.000  N
  N13      1.0000 0.49506  0.90780  0.42340  Biso   1.000  N
  N14      1.0000 0.46055  0.00820  0.39260  Biso   1.000  N
  N15      1.0000 0.75582  0.21260  0.09690  Biso   1.000  N
  N16      1.0000 0.78904  0.27820  0.07150  Biso   1.000  N
  C79      1.0000 0.58830  0.85040  0.38490  Biso   1.000  C
  C80      1.0000 0.55621  0.79200  0.30250  Biso   1.000  C
  H66      1.0000 0.54150  0.75720  0.27800  Biso   1.000  H
  C81      1.0000 0.57084  0.85650  0.28020  Biso   1.000  C
  H67      1.0000 0.56790  0.87400  0.23680  Biso   1.000  H
  C82      1.0000 0.60463  0.86590  0.45250  Biso   1.000  C
  H68      1.0000 0.61070  0.80040  0.47180  Biso   1.000  H
  H69      1.0000 0.59460  0.89880  0.47680  Biso   1.000  H
  H70      1.0000 0.61920  0.90840  0.45300  Biso   1.000  H
  C83      1.0000 0.55975  0.71650  0.41280  Biso   1.000  C
  H71      1.0000 0.56240  0.75020  0.45430  Biso   1.000  H
  H72      1.0000 0.57100  0.65680  0.41980  Biso   1.000  H
  C84      1.0000 0.53246  0.68230  0.38800  Biso   1.000  C
  C85      1.0000 0.52649  0.58600  0.35870  Biso   1.000  C
  H73      1.0000 0.53990  0.54260  0.35680  Biso   1.000  H
  C86      1.0000 0.50162  0.55400  0.33300  Biso   1.000  C
  H74      1.0000 0.49830  0.48960  0.31360  Biso   1.000  H
  C87      1.0000 0.48176  0.61420  0.33520  Biso   1.000  C
  H75      1.0000 0.46480  0.59160  0.31710  Biso   1.000  H
  C88      1.0000 0.48645  0.71090  0.36460  Biso   1.000  C
  H76      1.0000 0.47260  0.75180  0.36710  Biso   1.000  H
  C89      1.0000 0.51193  0.74610  0.39020  Biso   1.000  C
  C90      1.0000 0.51786  0.84980  0.42210  Biso   1.000  C
  H77      1.0000 0.52890  0.84030  0.46620  Biso   1.000  H
  H78      1.0000 0.52750  0.88990  0.39920  Biso   1.000  H
  C91      1.0000 0.48121  0.97440  0.37790  Biso   1.000  C
  C92      1.0000 0.46091  0.95930  0.44900  Biso   1.000  C
  H79      1.0000 0.44840  0.96760  0.47040  Biso   1.000  H
  C93      1.0000 0.48189  0.89740  0.46920  Biso   1.000  C
  H80      1.0000 0.48650  0.85640  0.50610  Biso   1.000  H
  C94      1.0000 0.48869  0.00510  0.31950  Biso   1.000  C
  H81      1.0000 0.47720  0.05820  0.29660  Biso   1.000  H
  H82      1.0000 0.48740  0.94650  0.29160  Biso   1.000  H
  H83      1.0000 0.50620  0.03010  0.33260  Biso   1.000  H
  N17      1.0000 0.65248  0.05200  0.26890  Biso   1.000  N
  C95      1.0000 0.67424  0.00460  0.25620  Biso   1.000  C
  N18      1.0000 0.68125  0.06540  0.20940  Biso   1.000  N
  C96      1.0000 0.66381  0.15030  0.19320  Biso   1.000  C
  H84      1.0000 0.66410  0.20070  0.16220  Biso   1.000  H
  C97      1.0000 0.64670  0.14080  0.23510  Biso   1.000  C
  H85      1.0000 0.63290  0.18770  0.23390  Biso   1.000  H
  C98      1.0000 0.68840  0.90840  0.27860  Biso   1.000  C
  H86      1.0000 0.70250  0.89470  0.26110  Biso   1.000  H
  H87      1.0000 0.69510  0.91570  0.32480  Biso   1.000  H
  H88      1.0000 0.67630  0.85240  0.26830  Biso   1.000  H
  C99      1.0000 0.70062  0.07280  0.18200  Biso   1.000  C
  H89      1.0000 0.69400  0.10540  0.14050  Biso   1.000  H
  H90      1.0000 0.70600  0.00470  0.17480  Biso   1.000  H
  C100     1.0000 0.72404  0.13190  0.22140  Biso   1.000  C
  C101     1.0000 0.72653  0.15780  0.28580  Biso   1.000  C
  H91      1.0000 0.71380  0.13780  0.30450  Biso   1.000  H
  C102     1.0000 0.74687  0.21050  0.32010  Biso   1.000  C
  H92      1.0000 0.74790  0.22870  0.36240  Biso   1.000  H
  C103     1.0000 0.76675  0.23990  0.29560  Biso   1.000  C
  H93      1.0000 0.78160  0.27230  0.32160  Biso   1.000  H
  C104     1.0000 0.76379  0.21970  0.23220  Biso   1.000  C
  H94      1.0000 0.77650  0.24140  0.21400  Biso   1.000  H
  C105     1.0000 0.74253  0.16810  0.19430  Biso   1.000  C
  C106     1.0000 0.73942  0.14810  0.12300  Biso   1.000  C
  H95      1.0000 0.74340  0.07660  0.11760  Biso   1.000  H
  H96      1.0000 0.72140  0.15960  0.09820  Biso   1.000  H
  C107     1.0000 0.77961  0.19730  0.09380  Biso   1.000  C
  C108     1.0000 0.76934  0.35220  0.06000  Biso   1.000  C
  H97      1.0000 0.77010  0.41800  0.04380  Biso   1.000  H
  C109     1.0000 0.74951  0.31360  0.07590  Biso   1.000  C
  H98      1.0000 0.73410  0.34750  0.07360  Biso   1.000  H
  C110     1.0000 0.79423  0.09930  0.11050  Biso   1.000  C
  H99      1.0000 0.80040  0.07840  0.07510  Biso   1.000  H
  H100     1.0000 0.78300  0.04710  0.11880  Biso   1.000  H
  H101     1.0000 0.80880  0.10910  0.14860  Biso   1.000  H
  C111     1.0000 0.67170  0.01530  0.45010  Biso   1.000  C
  C112     1.0000 0.66756  0.12730  0.44180  Biso   1.000  C
  C113     1.0000 0.68966  0.19150  0.46120  Biso   1.000  C
  H102     1.0000 0.70610  0.16220  0.47550  Biso   1.000  H
  C114     1.0000 0.68700  0.30280  0.45930  Biso   1.000  C
  H103     1.0000 0.70130  0.34610  0.47410  Biso   1.000  H
  C115     1.0000 0.66257  0.34020  0.43480  Biso   1.000  C
  H104     1.0000 0.66050  0.41120  0.43110  Biso   1.000  H
  C116     1.0000 0.64074  0.28110  0.41530  Biso   1.000  C
  H105     1.0000 0.62450  0.31130  0.39850  Biso   1.000  H
  C117     1.0000 0.64324  0.17500  0.42090  Biso   1.000  C
  C118     1.0000 0.59830  0.14910  0.40860  Biso   1.000  C
  C119     1.0000 0.59541  0.16250  0.46870  Biso   1.000  C
  H106     1.0000 0.60940  0.14990  0.50530  Biso   1.000  H
  C120     1.0000 0.57243  0.19400  0.47590  Biso   1.000  C
  H107     1.0000 0.57090  0.20360  0.51730  Biso   1.000  H
  C121     1.0000 0.55162  0.21140  0.42290  Biso   1.000  C
  H108     1.0000 0.53590  0.23390  0.42750  Biso   1.000  H
  C122     1.0000 0.55439  0.19480  0.36210  Biso   1.000  C
  H109     1.0000 0.54010  0.20440  0.32570  Biso   1.000  H
  C123     1.0000 0.57782  0.16420  0.35340  Biso   1.000  C
  C124     1.0000 0.57946  0.14870  0.28680  Biso   1.000  C
  C125     1.0000 0.63504  0.71640  0.33540  Biso   1.000  C
  C126     1.0000 0.61652  0.63990  0.29250  Biso   1.000  C
  C127     1.0000 0.61068  0.54830  0.31920  Biso   1.000  C
  H110     1.0000 0.61800  0.53630  0.36340  Biso   1.000  H
  C128     1.0000 0.59434  0.47490  0.28160  Biso   1.000  C
  H111     1.0000 0.59070  0.41470  0.30060  Biso   1.000  H
  C129     1.0000 0.58386  0.49070  0.21830  Biso   1.000  C
  H112     1.0000 0.57310  0.44080  0.19310  Biso   1.000  H
  C130     1.0000 0.58873  0.58090  0.18900  Biso   1.000  C
  H113     1.0000 0.58130  0.59170  0.14470  Biso   1.000  H
  C131     1.0000 0.60496  0.65470  0.22750  Biso   1.000  C
  C132     1.0000 0.62547  0.76580  0.16970  Biso   1.000  C
  C133     1.0000 0.64293  0.69090  0.16460  Biso   1.000  C
  H114     1.0000 0.64240  0.62610  0.18240  Biso   1.000  H
  C134     1.0000 0.66104  0.71190  0.13330  Biso   1.000  C
  H115     1.0000 0.67240  0.66040  0.12940  Biso   1.000  H
  C135     1.0000 0.66266  0.80570  0.10820  Biso   1.000  C
  H116     1.0000 0.67560  0.82020  0.08910  Biso   1.000  H
  C136     1.0000 0.64452  0.88090  0.11140  Biso   1.000  C
  H117     1.0000 0.64490  0.94430  0.09180  Biso   1.000  H
  C137     1.0000 0.62634  0.86390  0.14240  Biso   1.000  C
  C138     1.0000 0.60751  0.94620  0.14540  Biso   1.000  C
  C139     1.0000 0.67835  0.67250  0.55940  Biso   1.000  C
  C140     1.0000 0.67566  0.62820  0.62140  Biso   1.000  C
  C141     1.0000 0.69694  0.59280  0.66850  Biso   1.000  C
  H118     1.0000 0.71320  0.59340  0.66170  Biso   1.000  H
  C142     1.0000 0.69435  0.55620  0.72620  Biso   1.000  C
  H119     1.0000 0.70890  0.53150  0.75790  Biso   1.000  H
  C143     1.0000 0.67071  0.55560  0.73740  Biso   1.000  C
  H120     1.0000 0.66940  0.53330  0.77720  Biso   1.000  H
  C144     1.0000 0.64876  0.58810  0.68990  Biso   1.000  C
  H121     1.0000 0.63250  0.58610  0.69660  Biso   1.000  H
  C145     1.0000 0.65167  0.62350  0.63240  Biso   1.000  C
  C146     1.0000 0.60987  0.59470  0.56080  Biso   1.000  C
  C147     1.0000 0.61417  0.50620  0.53130  Biso   1.000  C
  H122     1.0000 0.63080  0.48950  0.53050  Biso   1.000  H
  C148     1.0000 0.59362  0.44220  0.50290  Biso   1.000  C
  H123     1.0000 0.59630  0.38260  0.48200  Biso   1.000  H
  C149     1.0000 0.56932  0.46600  0.50530  Biso   1.000  C
  H124     1.0000 0.55550  0.42190  0.48690  Biso   1.000  H
  C150     1.0000 0.56525  0.55450  0.53470  Biso   1.000  C
  H125     1.0000 0.54850  0.57040  0.53550  Biso   1.000  H
  C151     1.0000 0.58537  0.62110  0.56320  Biso   1.000  C
  C152     1.0000 0.58025  0.71790  0.59630  Biso   1.000  C
  N19      1.0000 0.65990  0.99750  0.27490  Biso   1.000  N
  C153     1.0000 0.66680  0.05160  0.24070  Biso   1.000  C
  C154     1.0000 0.69710  0.94450  0.25540  Biso   1.000  C
  H126     1.0000 0.71210  0.90720  0.25320  Biso   1.000  H
  N20      1.0000 0.68450  0.04000  0.21860  Biso   1.000  N
  C155     1.0000 0.68180  0.91490  0.28820  Biso   1.000  C
  H127     1.0000 0.68370  0.85780  0.31740  Biso   1.000  H
  C156     1.0000 0.65010  0.14490  0.21190  Biso   1.000  C
  H128     1.0000 0.63600  0.15700  0.22970  Biso   1.000  H
  H129     1.0000 0.66190  0.20200  0.22190  Biso   1.000  H
  H130     1.0000 0.64330  0.13730  0.16570  Biso   1.000  H
  Cd7      1.0000 0.87495  0.46517  0.19106  Biso   1.000  Cd
  Cd8      1.0000 0.82634  0.29698  0.04968  Biso   1.000  Cd
  Cd9      1.0000 0.92497  0.60420  0.34365  Biso   1.000  Cd
  O31      1.0000 0.84466  0.45200  0.08570  Biso   1.000  O
  O32      1.0000 0.80905  0.48250  0.00800  Biso   1.000  O
  O33      1.0000 0.87829  0.61100  0.09480  Biso   1.000  O
  O34      1.0000 0.90014  0.61830  0.22220  Biso   1.000  O
  O35      1.0000 0.94053  0.66730  0.26070  Biso   1.000  O
  O36      1.0000 0.85885  0.29470  0.18800  Biso   1.000  O
  O37      1.0000 0.85674  0.19140  0.10500  Biso   1.000  O
  O38      1.0000 0.89394  0.24770  0.30340  Biso   1.000  O
  O39      1.0000 0.89976  0.45610  0.30420  Biso   1.000  O
  O40      1.0000 0.90036  0.50620  0.40220  Biso   1.000  O
  O41      1.0000 0.82834  0.26530  0.95130  Biso   1.000  O
  O42      1.0000 0.81272  0.12140  0.97580  Biso   1.000  O
  O43      1.0000 0.86971  0.16170  0.91450  Biso   1.000  O
  O44      1.0000 0.90415  0.24680  0.85330  Biso   1.000  O
  O45      1.0000 0.94074  0.26470  0.93020  Biso   1.000  O
  N21      1.0000 0.90917  0.39300  0.16900  Biso   1.000  N
  N22      1.0000 0.93293  0.28690  0.13100  Biso   1.000  N
  N23      1.0000 0.00494  0.40780  0.07660  Biso   1.000  N
  N24      1.0000 0.03945  0.50820  0.10740  Biso   1.000  N
  N25      1.0000 0.74418  0.71260  0.40310  Biso   1.000  N
  N26      1.0000 0.71096  0.77820  0.42850  Biso   1.000  N
  C157     1.0000 0.91170  0.35040  0.11510  Biso   1.000  C
  C158     1.0000 0.94379  0.29200  0.19750  Biso   1.000  C
  H131     1.0000 0.95850  0.25720  0.22200  Biso   1.000  H
  C159     1.0000 0.92916  0.35650  0.21980  Biso   1.000  C
  H132     1.0000 0.93210  0.37400  0.26320  Biso   1.000  H
  C160     1.0000 0.89537  0.36590  0.04750  Biso   1.000  C
  H133     1.0000 0.88930  0.30040  0.02820  Biso   1.000  H
  H134     1.0000 0.90540  0.39880  0.02320  Biso   1.000  H
  H135     1.0000 0.88080  0.40840  0.04700  Biso   1.000  H
  C161     1.0000 0.94025  0.21650  0.08720  Biso   1.000  C
  H136     1.0000 0.93760  0.25020  0.04570  Biso   1.000  H
  H137     1.0000 0.92900  0.15680  0.08020  Biso   1.000  H
  C162     1.0000 0.96754  0.18230  0.11200  Biso   1.000  C
  C163     1.0000 0.97351  0.08600  0.14130  Biso   1.000  C
  H138     1.0000 0.96010  0.04260  0.14320  Biso   1.000  H
  C164     1.0000 0.99838  0.05400  0.16700  Biso   1.000  C
  H139     1.0000 0.00170  0.98960  0.18640  Biso   1.000  H
  C165     1.0000 0.01824  0.11420  0.16480  Biso   1.000  C
  H140     1.0000 0.03520  0.09160  0.18290  Biso   1.000  H
  C166     1.0000 0.01355  0.21090  0.13540  Biso   1.000  C
  H141     1.0000 0.02740  0.25180  0.13290  Biso   1.000  H
  C167     1.0000 0.98807  0.24610  0.10980  Biso   1.000  C
  C168     1.0000 0.98214  0.34980  0.07790  Biso   1.000  C
  H142     1.0000 0.97110  0.34030  0.03380  Biso   1.000  H
  H143     1.0000 0.97250  0.38990  0.10080  Biso   1.000  H
  C169     1.0000 0.01879  0.47440  0.12210  Biso   1.000  C
  C170     1.0000 0.03909  0.45930  0.05100  Biso   1.000  C
  H144     1.0000 0.05160  0.46760  0.02960  Biso   1.000  H
  C171     1.0000 0.01811  0.39740  0.03080  Biso   1.000  C
  H145     1.0000 0.01350  0.35640  0.99390  Biso   1.000  H
  C172     1.0000 0.01131  0.50510  0.18050  Biso   1.000  C
  H146     1.0000 0.02280  0.55820  0.20340  Biso   1.000  H
  H147     1.0000 0.01260  0.44650  0.20840  Biso   1.000  H
  H148     1.0000 0.99380  0.53010  0.16740  Biso   1.000  H
  N27      1.0000 0.84752  0.55200  0.23110  Biso   1.000  N
  C173     1.0000 0.82576  0.50460  0.24380  Biso   1.000  C
  N28      1.0000 0.81875  0.56540  0.29060  Biso   1.000  N
  C174     1.0000 0.83619  0.65030  0.30680  Biso   1.000  C
  H149     1.0000 0.83590  0.70070  0.33780  Biso   1.000  H
  C175     1.0000 0.85330  0.64080  0.26490  Biso   1.000  C
  H150     1.0000 0.86710  0.68770  0.26610  Biso   1.000  H
  C176     1.0000 0.81160  0.40840  0.22140  Biso   1.000  C
  H151     1.0000 0.79750  0.39470  0.23890  Biso   1.000  H
  H152     1.0000 0.80490  0.41570  0.17520  Biso   1.000  H
  H153     1.0000 0.82370  0.35240  0.23170  Biso   1.000  H
  C177     1.0000 0.79938  0.57280  0.31800  Biso   1.000  C
  H154     1.0000 0.80600  0.60540  0.35950  Biso   1.000  H
  H155     1.0000 0.79400  0.50470  0.32520  Biso   1.000  H
  C178     1.0000 0.77596  0.63190  0.27860  Biso   1.000  C
  C179     1.0000 0.77347  0.65780  0.21420  Biso   1.000  C
  H156     1.0000 0.78620  0.63780  0.19550  Biso   1.000  H
  C180     1.0000 0.75313  0.71050  0.17990  Biso   1.000  C
  H157     1.0000 0.75210  0.72870  0.13760  Biso   1.000  H
  C181     1.0000 0.73325  0.73990  0.20440  Biso   1.000  C
  H158     1.0000 0.71840  0.77230  0.17840  Biso   1.000  H
  C182     1.0000 0.73621  0.71970  0.26780  Biso   1.000  C
  H159     1.0000 0.72350  0.74140  0.28600  Biso   1.000  H
  C183     1.0000 0.75747  0.66810  0.30570  Biso   1.000  C
  C184     1.0000 0.76058  0.64810  0.37700  Biso   1.000  C
  H160     1.0000 0.75660  0.57660  0.38240  Biso   1.000  H
  H161     1.0000 0.77860  0.65960  0.40180  Biso   1.000  H
  C185     1.0000 0.72039  0.69730  0.40620  Biso   1.000  C
  C186     1.0000 0.73066  0.85220  0.44000  Biso   1.000  C
  H162     1.0000 0.72990  0.91800  0.45620  Biso   1.000  H
  C187     1.0000 0.75049  0.81360  0.42410  Biso   1.000  C
  H163     1.0000 0.76590  0.84750  0.42640  Biso   1.000  H
  C188     1.0000 0.70577  0.59930  0.38950  Biso   1.000  C
  H164     1.0000 0.69960  0.57840  0.42490  Biso   1.000  H
  H165     1.0000 0.71700  0.54710  0.38120  Biso   1.000  H
  H166     1.0000 0.69120  0.60910  0.35140  Biso   1.000  H
  C189     1.0000 0.82830  0.51530  0.04990  Biso   1.000  C
  C190     1.0000 0.83244  0.62730  0.05820  Biso   1.000  C
  C191     1.0000 0.81034  0.69150  0.03880  Biso   1.000  C
  H167     1.0000 0.79390  0.66220  0.02450  Biso   1.000  H
  C192     1.0000 0.81300  0.80280  0.04070  Biso   1.000  C
  H168     1.0000 0.79870  0.84610  0.02590  Biso   1.000  H
  C193     1.0000 0.83743  0.84020  0.06520  Biso   1.000  C
  H169     1.0000 0.83950  0.91120  0.06890  Biso   1.000  H
  C194     1.0000 0.85926  0.78110  0.08470  Biso   1.000  C
  H170     1.0000 0.87550  0.81130  0.10150  Biso   1.000  H
  C195     1.0000 0.85676  0.67500  0.07910  Biso   1.000  C
  C196     1.0000 0.90170  0.64910  0.09140  Biso   1.000  C
  C197     1.0000 0.90459  0.66250  0.03130  Biso   1.000  C
  H171     1.0000 0.89060  0.64990  0.99470  Biso   1.000  H
  C198     1.0000 0.92757  0.69400  0.02410  Biso   1.000  C
  H172     1.0000 0.92910  0.70360  0.98270  Biso   1.000  H
  C199     1.0000 0.94838  0.71140  0.07710  Biso   1.000  C
  H173     1.0000 0.96410  0.73390  0.07250  Biso   1.000  H
  C200     1.0000 0.94561  0.69480  0.13790  Biso   1.000  C
  H174     1.0000 0.95990  0.70440  0.17430  Biso   1.000  H
  C201     1.0000 0.92218  0.66420  0.14660  Biso   1.000  C
  C202     1.0000 0.92054  0.64870  0.21320  Biso   1.000  C
  C203     1.0000 0.86496  0.21640  0.16460  Biso   1.000  C
  C204     1.0000 0.88348  0.13990  0.20750  Biso   1.000  C
  C205     1.0000 0.88932  0.04830  0.18080  Biso   1.000  C
  H175     1.0000 0.88200  0.03630  0.13660  Biso   1.000  H
  C206     1.0000 0.90566  0.97490  0.21840  Biso   1.000  C
  H176     1.0000 0.90930  0.91470  0.19940  Biso   1.000  H
  C207     1.0000 0.91614  0.99070  0.28170  Biso   1.000  C
  H177     1.0000 0.92690  0.94080  0.30690  Biso   1.000  H
  C208     1.0000 0.91127  0.08090  0.31100  Biso   1.000  C
  H178     1.0000 0.91870  0.09170  0.35530  Biso   1.000  H
  C209     1.0000 0.89504  0.15470  0.27250  Biso   1.000  C
  C210     1.0000 0.87453  0.26580  0.33030  Biso   1.000  C
  C211     1.0000 0.85707  0.19090  0.33540  Biso   1.000  C
  H179     1.0000 0.85760  0.12610  0.31760  Biso   1.000  H
  C212     1.0000 0.83896  0.21190  0.36670  Biso   1.000  C
  H180     1.0000 0.82760  0.16040  0.37060  Biso   1.000  H
  C213     1.0000 0.83734  0.30570  0.39180  Biso   1.000  C
  H181     1.0000 0.82440  0.32020  0.41090  Biso   1.000  H
  C214     1.0000 0.85548  0.38090  0.38860  Biso   1.000  C
  H182     1.0000 0.85510  0.44430  0.40820  Biso   1.000  H
  C215     1.0000 0.87366  0.36390  0.35760  Biso   1.000  C
  C216     1.0000 0.89249  0.44620  0.35460  Biso   1.000  C
  C217     1.0000 0.82165  0.17250  0.94060  Biso   1.000  C
  C218     1.0000 0.82434  0.12820  0.87860  Biso   1.000  C
  C219     1.0000 0.80306  0.09280  0.83150  Biso   1.000  C
  H183     1.0000 0.78680  0.09340  0.83830  Biso   1.000  H
  C220     1.0000 0.80565  0.05620  0.77380  Biso   1.000  C
  H184     1.0000 0.79110  0.03150  0.74210  Biso   1.000  H
  C221     1.0000 0.82929  0.05560  0.76260  Biso   1.000  C
  H185     1.0000 0.83060  0.03330  0.72280  Biso   1.000  H
  C222     1.0000 0.85124  0.08810  0.81010  Biso   1.000  C
  H186     1.0000 0.86750  0.08610  0.80340  Biso   1.000  H
  C223     1.0000 0.84833  0.12350  0.86760  Biso   1.000  C
  C224     1.0000 0.89013  0.09470  0.93920  Biso   1.000  C
  C225     1.0000 0.88583  0.00620  0.96870  Biso   1.000  C
  H187     1.0000 0.86920  0.98950  0.96950  Biso   1.000  H
  C226     1.0000 0.90638  0.94220  0.99710  Biso   1.000  C
  H188     1.0000 0.90370  0.88260  0.01800  Biso   1.000  H
  C227     1.0000 0.93068  0.96600  0.99470  Biso   1.000  C
  H189     1.0000 0.94450  0.92190  0.01310  Biso   1.000  H
  C228     1.0000 0.93475  0.05450  0.96530  Biso   1.000  C
  H190     1.0000 0.95150  0.07040  0.96450  Biso   1.000  H
  C229     1.0000 0.91463  0.12110  0.93680  Biso   1.000  C
  C230     1.0000 0.91975  0.21790  0.90370  Biso   1.000  C
  N29      1.0000 0.84010  0.49750  0.22510  Biso   1.000  N
  C231     1.0000 0.83320  0.55160  0.25930  Biso   1.000  C
  C232     1.0000 0.80290  0.44450  0.24460  Biso   1.000  C
  H191     1.0000 0.78790  0.40720  0.24680  Biso   1.000  H
  N30      1.0000 0.81550  0.54000  0.28140  Biso   1.000  N
  C233     1.0000 0.81820  0.41490  0.21180  Biso   1.000  C
  H192     1.0000 0.81630  0.35780  0.18260  Biso   1.000  H
  C234     1.0000 0.84990  0.64490  0.28810  Biso   1.000  C
  H193     1.0000 0.86400  0.65700  0.27030  Biso   1.000  H
  H194     1.0000 0.83810  0.70200  0.27810  Biso   1.000  H
  H195     1.0000 0.85670  0.63730  0.33430  Biso   1.000  H
  Cd10     1.0000 0.37495  0.96517  0.19106  Biso   1.000  Cd
  Cd11     1.0000 0.32634  0.79698  0.04968  Biso   1.000  Cd
  Cd12     1.0000 0.42497  0.10420  0.34365  Biso   1.000  Cd
  O46      1.0000 0.34466  0.95200  0.08570  Biso   1.000  O
  O47      1.0000 0.30905  0.98250  0.00800  Biso   1.000  O
  O48      1.0000 0.37829  0.11100  0.09480  Biso   1.000  O
  O49      1.0000 0.40014  0.11830  0.22220  Biso   1.000  O
  O50      1.0000 0.44053  0.16730  0.26070  Biso   1.000  O
  O51      1.0000 0.35885  0.79470  0.18800  Biso   1.000  O
  O52      1.0000 0.35674  0.69140  0.10500  Biso   1.000  O
  O53      1.0000 0.39394  0.74770  0.30340  Biso   1.000  O
  O54      1.0000 0.39976  0.95610  0.30420  Biso   1.000  O
  O55      1.0000 0.40036  0.00620  0.40220  Biso   1.000  O
  O56      1.0000 0.32834  0.76530  0.95130  Biso   1.000  O
  O57      1.0000 0.31272  0.62140  0.97580  Biso   1.000  O
  O58      1.0000 0.36971  0.66170  0.91450  Biso   1.000  O
  O59      1.0000 0.40415  0.74680  0.85330  Biso   1.000  O
  O60      1.0000 0.44074  0.76470  0.93020  Biso   1.000  O
  N31      1.0000 0.40917  0.89300  0.16900  Biso   1.000  N
  N32      1.0000 0.43293  0.78690  0.13100  Biso   1.000  N
  N33      1.0000 0.50494  0.90780  0.07660  Biso   1.000  N
  N34      1.0000 0.53945  0.00820  0.10740  Biso   1.000  N
  N35      1.0000 0.24418  0.21260  0.40310  Biso   1.000  N
  N36      1.0000 0.21096  0.27820  0.42850  Biso   1.000  N
  C235     1.0000 0.41170  0.85040  0.11510  Biso   1.000  C
  C236     1.0000 0.44379  0.79200  0.19750  Biso   1.000  C
  H196     1.0000 0.45850  0.75720  0.22200  Biso   1.000  H
  C237     1.0000 0.42916  0.85650  0.21980  Biso   1.000  C
  H197     1.0000 0.43210  0.87400  0.26320  Biso   1.000  H
  C238     1.0000 0.39537  0.86590  0.04750  Biso   1.000  C
  H198     1.0000 0.38930  0.80040  0.02820  Biso   1.000  H
  H199     1.0000 0.40540  0.89880  0.02320  Biso   1.000  H
  H200     1.0000 0.38080  0.90840  0.04700  Biso   1.000  H
  C239     1.0000 0.44025  0.71650  0.08720  Biso   1.000  C
  H201     1.0000 0.43760  0.75020  0.04570  Biso   1.000  H
  H202     1.0000 0.42900  0.65680  0.08020  Biso   1.000  H
  C240     1.0000 0.46754  0.68230  0.11200  Biso   1.000  C
  C241     1.0000 0.47351  0.58600  0.14130  Biso   1.000  C
  H203     1.0000 0.46010  0.54260  0.14320  Biso   1.000  H
  C242     1.0000 0.49838  0.55400  0.16700  Biso   1.000  C
  H204     1.0000 0.50170  0.48960  0.18640  Biso   1.000  H
  C243     1.0000 0.51824  0.61420  0.16480  Biso   1.000  C
  H205     1.0000 0.53520  0.59160  0.18290  Biso   1.000  H
  C244     1.0000 0.51355  0.71090  0.13540  Biso   1.000  C
  H206     1.0000 0.52740  0.75180  0.13290  Biso   1.000  H
  C245     1.0000 0.48807  0.74610  0.10980  Biso   1.000  C
  C246     1.0000 0.48214  0.84980  0.07790  Biso   1.000  C
  H207     1.0000 0.47110  0.84030  0.03380  Biso   1.000  H
  H208     1.0000 0.47250  0.88990  0.10080  Biso   1.000  H
  C247     1.0000 0.51879  0.97440  0.12210  Biso   1.000  C
  C248     1.0000 0.53909  0.95930  0.05100  Biso   1.000  C
  H209     1.0000 0.55160  0.96760  0.02960  Biso   1.000  H
  C249     1.0000 0.51811  0.89740  0.03080  Biso   1.000  C
  H210     1.0000 0.51350  0.85640  0.99390  Biso   1.000  H
  C250     1.0000 0.51131  0.00510  0.18050  Biso   1.000  C
  H211     1.0000 0.52280  0.05820  0.20340  Biso   1.000  H
  H212     1.0000 0.51260  0.94650  0.20840  Biso   1.000  H
  H213     1.0000 0.49380  0.03010  0.16740  Biso   1.000  H
  N37      1.0000 0.34752  0.05200  0.23110  Biso   1.000  N
  C251     1.0000 0.32576  0.00460  0.24380  Biso   1.000  C
  N38      1.0000 0.31875  0.06540  0.29060  Biso   1.000  N
  C252     1.0000 0.33619  0.15030  0.30680  Biso   1.000  C
  H214     1.0000 0.33590  0.20070  0.33780  Biso   1.000  H
  C253     1.0000 0.35330  0.14080  0.26490  Biso   1.000  C
  H215     1.0000 0.36710  0.18770  0.26610  Biso   1.000  H
  C254     1.0000 0.31160  0.90840  0.22140  Biso   1.000  C
  H216     1.0000 0.29750  0.89470  0.23890  Biso   1.000  H
  H217     1.0000 0.30490  0.91570  0.17520  Biso   1.000  H
  H218     1.0000 0.32370  0.85240  0.23170  Biso   1.000  H
  C255     1.0000 0.29938  0.07280  0.31800  Biso   1.000  C
  H219     1.0000 0.30600  0.10540  0.35950  Biso   1.000  H
  H220     1.0000 0.29400  0.00470  0.32520  Biso   1.000  H
  C256     1.0000 0.27596  0.13190  0.27860  Biso   1.000  C
  C257     1.0000 0.27347  0.15780  0.21420  Biso   1.000  C
  H221     1.0000 0.28620  0.13780  0.19550  Biso   1.000  H
  C258     1.0000 0.25313  0.21050  0.17990  Biso   1.000  C
  H222     1.0000 0.25210  0.22870  0.13760  Biso   1.000  H
  C259     1.0000 0.23325  0.23990  0.20440  Biso   1.000  C
  H223     1.0000 0.21840  0.27230  0.17840  Biso   1.000  H
  C260     1.0000 0.23621  0.21970  0.26780  Biso   1.000  C
  H224     1.0000 0.22350  0.24140  0.28600  Biso   1.000  H
  C261     1.0000 0.25747  0.16810  0.30570  Biso   1.000  C
  C262     1.0000 0.26058  0.14810  0.37700  Biso   1.000  C
  H225     1.0000 0.25660  0.07660  0.38240  Biso   1.000  H
  H226     1.0000 0.27860  0.15960  0.40180  Biso   1.000  H
  C263     1.0000 0.22039  0.19730  0.40620  Biso   1.000  C
  C264     1.0000 0.23066  0.35220  0.44000  Biso   1.000  C
  H227     1.0000 0.22990  0.41800  0.45620  Biso   1.000  H
  C265     1.0000 0.25049  0.31360  0.42410  Biso   1.000  C
  H228     1.0000 0.26590  0.34750  0.42640  Biso   1.000  H
  C266     1.0000 0.20577  0.09930  0.38950  Biso   1.000  C
  H229     1.0000 0.19960  0.07840  0.42490  Biso   1.000  H
  H230     1.0000 0.21700  0.04710  0.38120  Biso   1.000  H
  H231     1.0000 0.19120  0.10910  0.35140  Biso   1.000  H
  C267     1.0000 0.32830  0.01530  0.04990  Biso   1.000  C
  C268     1.0000 0.33244  0.12730  0.05820  Biso   1.000  C
  C269     1.0000 0.31034  0.19150  0.03880  Biso   1.000  C
  H232     1.0000 0.29390  0.16220  0.02450  Biso   1.000  H
  C270     1.0000 0.31300  0.30280  0.04070  Biso   1.000  C
  H233     1.0000 0.29870  0.34610  0.02590  Biso   1.000  H
  C271     1.0000 0.33743  0.34020  0.06520  Biso   1.000  C
  H234     1.0000 0.33950  0.41120  0.06890  Biso   1.000  H
  C272     1.0000 0.35926  0.28110  0.08470  Biso   1.000  C
  H235     1.0000 0.37550  0.31130  0.10150  Biso   1.000  H
  C273     1.0000 0.35676  0.17500  0.07910  Biso   1.000  C
  C274     1.0000 0.40170  0.14910  0.09140  Biso   1.000  C
  C275     1.0000 0.40459  0.16250  0.03130  Biso   1.000  C
  H236     1.0000 0.39060  0.14990  0.99470  Biso   1.000  H
  C276     1.0000 0.42757  0.19400  0.02410  Biso   1.000  C
  H237     1.0000 0.42910  0.20360  0.98270  Biso   1.000  H
  C277     1.0000 0.44838  0.21140  0.07710  Biso   1.000  C
  H238     1.0000 0.46410  0.23390  0.07250  Biso   1.000  H
  C278     1.0000 0.44561  0.19480  0.13790  Biso   1.000  C
  H239     1.0000 0.45990  0.20440  0.17430  Biso   1.000  H
  C279     1.0000 0.42218  0.16420  0.14660  Biso   1.000  C
  C280     1.0000 0.42054  0.14870  0.21320  Biso   1.000  C
  C281     1.0000 0.36496  0.71640  0.16460  Biso   1.000  C
  C282     1.0000 0.38348  0.63990  0.20750  Biso   1.000  C
  C283     1.0000 0.38932  0.54830  0.18080  Biso   1.000  C
  H240     1.0000 0.38200  0.53630  0.13660  Biso   1.000  H
  C284     1.0000 0.40566  0.47490  0.21840  Biso   1.000  C
  H241     1.0000 0.40930  0.41470  0.19940  Biso   1.000  H
  C285     1.0000 0.41614  0.49070  0.28170  Biso   1.000  C
  H242     1.0000 0.42690  0.44080  0.30690  Biso   1.000  H
  C286     1.0000 0.41127  0.58090  0.31100  Biso   1.000  C
  H243     1.0000 0.41870  0.59170  0.35530  Biso   1.000  H
  C287     1.0000 0.39504  0.65470  0.27250  Biso   1.000  C
  C288     1.0000 0.37453  0.76580  0.33030  Biso   1.000  C
  C289     1.0000 0.35707  0.69090  0.33540  Biso   1.000  C
  H244     1.0000 0.35760  0.62610  0.31760  Biso   1.000  H
  C290     1.0000 0.33896  0.71190  0.36670  Biso   1.000  C
  H245     1.0000 0.32760  0.66040  0.37060  Biso   1.000  H
  C291     1.0000 0.33734  0.80570  0.39180  Biso   1.000  C
  H246     1.0000 0.32440  0.82020  0.41090  Biso   1.000  H
  C292     1.0000 0.35548  0.88090  0.38860  Biso   1.000  C
  H247     1.0000 0.35510  0.94430  0.40820  Biso   1.000  H
  C293     1.0000 0.37366  0.86390  0.35760  Biso   1.000  C
  C294     1.0000 0.39249  0.94620  0.35460  Biso   1.000  C
  C295     1.0000 0.32165  0.67250  0.94060  Biso   1.000  C
  C296     1.0000 0.32434  0.62820  0.87860  Biso   1.000  C
  C297     1.0000 0.30306  0.59280  0.83150  Biso   1.000  C
  H248     1.0000 0.28680  0.59340  0.83830  Biso   1.000  H
  C298     1.0000 0.30565  0.55620  0.77380  Biso   1.000  C
  H249     1.0000 0.29110  0.53150  0.74210  Biso   1.000  H
  C299     1.0000 0.32929  0.55560  0.76260  Biso   1.000  C
  H250     1.0000 0.33060  0.53330  0.72280  Biso   1.000  H
  C300     1.0000 0.35124  0.58810  0.81010  Biso   1.000  C
  H251     1.0000 0.36750  0.58610  0.80340  Biso   1.000  H
  C301     1.0000 0.34833  0.62350  0.86760  Biso   1.000  C
  C302     1.0000 0.39013  0.59470  0.93920  Biso   1.000  C
  C303     1.0000 0.38583  0.50620  0.96870  Biso   1.000  C
  H252     1.0000 0.36920  0.48950  0.96950  Biso   1.000  H
  C304     1.0000 0.40638  0.44220  0.99710  Biso   1.000  C
  H253     1.0000 0.40370  0.38260  0.01800  Biso   1.000  H
  C305     1.0000 0.43068  0.46600  0.99470  Biso   1.000  C
  H254     1.0000 0.44450  0.42190  0.01310  Biso   1.000  H
  C306     1.0000 0.43475  0.55450  0.96530  Biso   1.000  C
  H255     1.0000 0.45150  0.57040  0.96450  Biso   1.000  H
  C307     1.0000 0.41463  0.62110  0.93680  Biso   1.000  C
  C308     1.0000 0.41975  0.71790  0.90370  Biso   1.000  C
  N39      1.0000 0.34010  0.99750  0.22510  Biso   1.000  N
  C309     1.0000 0.33320  0.05160  0.25930  Biso   1.000  C
  C310     1.0000 0.30290  0.94450  0.24460  Biso   1.000  C
  H256     1.0000 0.28790  0.90720  0.24680  Biso   1.000  H
  N40      1.0000 0.31550  0.04000  0.28140  Biso   1.000  N
  C311     1.0000 0.31820  0.91490  0.21180  Biso   1.000  C
  H257     1.0000 0.31630  0.85780  0.18260  Biso   1.000  H
  C312     1.0000 0.34990  0.14490  0.28810  Biso   1.000  C
  H258     1.0000 0.36400  0.15700  0.27030  Biso   1.000  H
  H259     1.0000 0.33810  0.20200  0.27810  Biso   1.000  H
  H260     1.0000 0.35670  0.13730  0.33430  Biso   1.000  H
  Cd13     1.0000 0.87495  0.53483  0.69106  Biso   1.000  Cd
  Cd14     1.0000 0.82634  0.70302  0.54968  Biso   1.000  Cd
  Cd15     1.0000 0.92497  0.39580  0.84365  Biso   1.000  Cd
  O61      1.0000 0.84466  0.54800  0.58570  Biso   1.000  O
  O62      1.0000 0.80905  0.51750  0.50800  Biso   1.000  O
  O63      1.0000 0.87829  0.38900  0.59480  Biso   1.000  O
  O64      1.0000 0.90014  0.38170  0.72220  Biso   1.000  O
  O65      1.0000 0.94053  0.33270  0.76070  Biso   1.000  O
  O66      1.0000 0.85885  0.70530  0.68800  Biso   1.000  O
  O67      1.0000 0.85674  0.80860  0.60500  Biso   1.000  O
  O68      1.0000 0.89394  0.75230  0.80340  Biso   1.000  O
  O69      1.0000 0.89976  0.54390  0.80420  Biso   1.000  O
  O70      1.0000 0.90036  0.49380  0.90220  Biso   1.000  O
  O71      1.0000 0.82834  0.73470  0.45130  Biso   1.000  O
  O72      1.0000 0.81272  0.87860  0.47580  Biso   1.000  O
  O73      1.0000 0.86971  0.83830  0.41450  Biso   1.000  O
  O74      1.0000 0.90415  0.75320  0.35330  Biso   1.000  O
  O75      1.0000 0.94074  0.73530  0.43020  Biso   1.000  O
  N41      1.0000 0.90917  0.60700  0.66900  Biso   1.000  N
  N42      1.0000 0.93293  0.71310  0.63100  Biso   1.000  N
  N43      1.0000 0.00494  0.59220  0.57660  Biso   1.000  N
  N44      1.0000 0.03945  0.49180  0.60740  Biso   1.000  N
  N45      1.0000 0.74418  0.28740  0.90310  Biso   1.000  N
  N46      1.0000 0.71096  0.22180  0.92850  Biso   1.000  N
  C313     1.0000 0.91170  0.64960  0.61510  Biso   1.000  C
  C314     1.0000 0.94379  0.70800  0.69750  Biso   1.000  C
  H261     1.0000 0.95850  0.74280  0.72200  Biso   1.000  H
  C315     1.0000 0.92916  0.64350  0.71980  Biso   1.000  C
  H262     1.0000 0.93210  0.62600  0.76320  Biso   1.000  H
  C316     1.0000 0.89537  0.63410  0.54750  Biso   1.000  C
  H263     1.0000 0.88930  0.69960  0.52820  Biso   1.000  H
  H264     1.0000 0.90540  0.60120  0.52320  Biso   1.000  H
  H265     1.0000 0.88080  0.59160  0.54700  Biso   1.000  H
  C317     1.0000 0.94025  0.78350  0.58720  Biso   1.000  C
  H266     1.0000 0.93760  0.74980  0.54570  Biso   1.000  H
  H267     1.0000 0.92900  0.84320  0.58020  Biso   1.000  H
  C318     1.0000 0.96754  0.81770  0.61200  Biso   1.000  C
  C319     1.0000 0.97351  0.91400  0.64130  Biso   1.000  C
  H268     1.0000 0.96010  0.95740  0.64320  Biso   1.000  H
  C320     1.0000 0.99838  0.94600  0.66700  Biso   1.000  C
  H269     1.0000 0.00170  0.01040  0.68640  Biso   1.000  H
  C321     1.0000 0.01824  0.88580  0.66480  Biso   1.000  C
  H270     1.0000 0.03520  0.90840  0.68290  Biso   1.000  H
  C322     1.0000 0.01355  0.78910  0.63540  Biso   1.000  C
  H271     1.0000 0.02740  0.74820  0.63290  Biso   1.000  H
  C323     1.0000 0.98807  0.75390  0.60980  Biso   1.000  C
  C324     1.0000 0.98214  0.65020  0.57790  Biso   1.000  C
  H272     1.0000 0.97110  0.65970  0.53380  Biso   1.000  H
  H273     1.0000 0.97250  0.61010  0.60080  Biso   1.000  H
  C325     1.0000 0.01879  0.52560  0.62210  Biso   1.000  C
  C326     1.0000 0.03909  0.54070  0.55100  Biso   1.000  C
  H274     1.0000 0.05160  0.53240  0.52960  Biso   1.000  H
  C327     1.0000 0.01811  0.60260  0.53080  Biso   1.000  C
  H275     1.0000 0.01350  0.64360  0.49390  Biso   1.000  H
  C328     1.0000 0.01131  0.49490  0.68050  Biso   1.000  C
  H276     1.0000 0.02280  0.44180  0.70340  Biso   1.000  H
  H277     1.0000 0.01260  0.55350  0.70840  Biso   1.000  H
  H278     1.0000 0.99380  0.46990  0.66740  Biso   1.000  H
  N47      1.0000 0.84752  0.44800  0.73110  Biso   1.000  N
  C329     1.0000 0.82576  0.49540  0.74380  Biso   1.000  C
  N48      1.0000 0.81875  0.43460  0.79060  Biso   1.000  N
  C330     1.0000 0.83619  0.34970  0.80680  Biso   1.000  C
  H279     1.0000 0.83590  0.29930  0.83780  Biso   1.000  H
  C331     1.0000 0.85330  0.35920  0.76490  Biso   1.000  C
  H280     1.0000 0.86710  0.31230  0.76610  Biso   1.000  H
  C332     1.0000 0.81160  0.59160  0.72140  Biso   1.000  C
  H281     1.0000 0.79750  0.60530  0.73890  Biso   1.000  H
  H282     1.0000 0.80490  0.58430  0.67520  Biso   1.000  H
  H283     1.0000 0.82370  0.64760  0.73170  Biso   1.000  H
  C333     1.0000 0.79938  0.42720  0.81800  Biso   1.000  C
  H284     1.0000 0.80600  0.39460  0.85950  Biso   1.000  H
  H285     1.0000 0.79400  0.49530  0.82520  Biso   1.000  H
  C334     1.0000 0.77596  0.36810  0.77860  Biso   1.000  C
  C335     1.0000 0.77347  0.34220  0.71420  Biso   1.000  C
  H286     1.0000 0.78620  0.36220  0.69550  Biso   1.000  H
  C336     1.0000 0.75313  0.28950  0.67990  Biso   1.000  C
  H287     1.0000 0.75210  0.27130  0.63760  Biso   1.000  H
  C337     1.0000 0.73325  0.26010  0.70440  Biso   1.000  C
  H288     1.0000 0.71840  0.22770  0.67840  Biso   1.000  H
  C338     1.0000 0.73621  0.28030  0.76780  Biso   1.000  C
  H289     1.0000 0.72350  0.25860  0.78600  Biso   1.000  H
  C339     1.0000 0.75747  0.33190  0.80570  Biso   1.000  C
  C340     1.0000 0.76058  0.35190  0.87700  Biso   1.000  C
  H290     1.0000 0.75660  0.42340  0.88240  Biso   1.000  H
  H291     1.0000 0.77860  0.34040  0.90180  Biso   1.000  H
  C341     1.0000 0.72039  0.30270  0.90620  Biso   1.000  C
  C342     1.0000 0.73066  0.14780  0.94000  Biso   1.000  C
  H292     1.0000 0.72990  0.08200  0.95620  Biso   1.000  H
  C343     1.0000 0.75049  0.18640  0.92410  Biso   1.000  C
  H293     1.0000 0.76590  0.15250  0.92640  Biso   1.000  H
  C344     1.0000 0.70577  0.40070  0.88950  Biso   1.000  C
  H294     1.0000 0.69960  0.42160  0.92490  Biso   1.000  H
  H295     1.0000 0.71700  0.45290  0.88120  Biso   1.000  H
  H296     1.0000 0.69120  0.39090  0.85140  Biso   1.000  H
  C345     1.0000 0.82830  0.48470  0.54990  Biso   1.000  C
  C346     1.0000 0.83244  0.37270  0.55820  Biso   1.000  C
  C347     1.0000 0.81034  0.30850  0.53880  Biso   1.000  C
  H297     1.0000 0.79390  0.33780  0.52450  Biso   1.000  H
  C348     1.0000 0.81300  0.19720  0.54070  Biso   1.000  C
  H298     1.0000 0.79870  0.15390  0.52590  Biso   1.000  H
  C349     1.0000 0.83743  0.15980  0.56520  Biso   1.000  C
  H299     1.0000 0.83950  0.08880  0.56890  Biso   1.000  H
  C350     1.0000 0.85926  0.21890  0.58470  Biso   1.000  C
  H300     1.0000 0.87550  0.18870  0.60150  Biso   1.000  H
  C351     1.0000 0.85676  0.32500  0.57910  Biso   1.000  C
  C352     1.0000 0.90170  0.35090  0.59140  Biso   1.000  C
  C353     1.0000 0.90459  0.33750  0.53130  Biso   1.000  C
  H301     1.0000 0.89060  0.35010  0.49470  Biso   1.000  H
  C354     1.0000 0.92757  0.30600  0.52410  Biso   1.000  C
  H302     1.0000 0.92910  0.29640  0.48270  Biso   1.000  H
  C355     1.0000 0.94838  0.28860  0.57710  Biso   1.000  C
  H303     1.0000 0.96410  0.26610  0.57250  Biso   1.000  H
  C356     1.0000 0.94561  0.30520  0.63790  Biso   1.000  C
  H304     1.0000 0.95990  0.29560  0.67430  Biso   1.000  H
  C357     1.0000 0.92218  0.33580  0.64660  Biso   1.000  C
  C358     1.0000 0.92054  0.35130  0.71320  Biso   1.000  C
  C359     1.0000 0.86496  0.78360  0.66460  Biso   1.000  C
  C360     1.0000 0.88348  0.86010  0.70750  Biso   1.000  C
  C361     1.0000 0.88932  0.95170  0.68080  Biso   1.000  C
  H305     1.0000 0.88200  0.96370  0.63660  Biso   1.000  H
  C362     1.0000 0.90566  0.02510  0.71840  Biso   1.000  C
  H306     1.0000 0.90930  0.08530  0.69940  Biso   1.000  H
  C363     1.0000 0.91614  0.00930  0.78170  Biso   1.000  C
  H307     1.0000 0.92690  0.05920  0.80690  Biso   1.000  H
  C364     1.0000 0.91127  0.91910  0.81100  Biso   1.000  C
  H308     1.0000 0.91870  0.90830  0.85530  Biso   1.000  H
  C365     1.0000 0.89504  0.84530  0.77250  Biso   1.000  C
  C366     1.0000 0.87453  0.73420  0.83030  Biso   1.000  C
  C367     1.0000 0.85707  0.80910  0.83540  Biso   1.000  C
  H309     1.0000 0.85760  0.87390  0.81760  Biso   1.000  H
  C368     1.0000 0.83896  0.78810  0.86670  Biso   1.000  C
  H310     1.0000 0.82760  0.83960  0.87060  Biso   1.000  H
  C369     1.0000 0.83734  0.69430  0.89180  Biso   1.000  C
  H311     1.0000 0.82440  0.67980  0.91090  Biso   1.000  H
  C370     1.0000 0.85548  0.61910  0.88860  Biso   1.000  C
  H312     1.0000 0.85510  0.55570  0.90820  Biso   1.000  H
  C371     1.0000 0.87366  0.63610  0.85760  Biso   1.000  C
  C372     1.0000 0.89249  0.55380  0.85460  Biso   1.000  C
  C373     1.0000 0.82165  0.82750  0.44060  Biso   1.000  C
  C374     1.0000 0.82434  0.87180  0.37860  Biso   1.000  C
  C375     1.0000 0.80306  0.90720  0.33150  Biso   1.000  C
  H313     1.0000 0.78680  0.90660  0.33830  Biso   1.000  H
  C376     1.0000 0.80565  0.94380  0.27380  Biso   1.000  C
  H314     1.0000 0.79110  0.96850  0.24210  Biso   1.000  H
  C377     1.0000 0.82929  0.94440  0.26260  Biso   1.000  C
  H315     1.0000 0.83060  0.96670  0.22280  Biso   1.000  H
  C378     1.0000 0.85124  0.91190  0.31010  Biso   1.000  C
  H316     1.0000 0.86750  0.91390  0.30340  Biso   1.000  H
  C379     1.0000 0.84833  0.87650  0.36760  Biso   1.000  C
  C380     1.0000 0.89013  0.90530  0.43920  Biso   1.000  C
  C381     1.0000 0.88583  0.99380  0.46870  Biso   1.000  C
  H317     1.0000 0.86920  0.01050  0.46950  Biso   1.000  H
  C382     1.0000 0.90638  0.05780  0.49710  Biso   1.000  C
  H318     1.0000 0.90370  0.11740  0.51800  Biso   1.000  H
  C383     1.0000 0.93068  0.03400  0.49470  Biso   1.000  C
  H319     1.0000 0.94450  0.07810  0.51310  Biso   1.000  H
  C384     1.0000 0.93475  0.94550  0.46530  Biso   1.000  C
  H320     1.0000 0.95150  0.92960  0.46450  Biso   1.000  H
  C385     1.0000 0.91463  0.87890  0.43680  Biso   1.000  C
  C386     1.0000 0.91975  0.78210  0.40370  Biso   1.000  C
  N49      1.0000 0.84010  0.50250  0.72510  Biso   1.000  N
  C387     1.0000 0.83320  0.44840  0.75930  Biso   1.000  C
  C388     1.0000 0.80290  0.55550  0.74460  Biso   1.000  C
  H321     1.0000 0.78790  0.59280  0.74680  Biso   1.000  H
  N50      1.0000 0.81550  0.46000  0.78140  Biso   1.000  N
  C389     1.0000 0.81820  0.58510  0.71180  Biso   1.000  C
  H322     1.0000 0.81630  0.64220  0.68260  Biso   1.000  H
  C390     1.0000 0.84990  0.35510  0.78810  Biso   1.000  C
  H323     1.0000 0.86400  0.34300  0.77030  Biso   1.000  H
  H324     1.0000 0.83810  0.29800  0.77810  Biso   1.000  H
  H325     1.0000 0.85670  0.36270  0.83430  Biso   1.000  H
  Cd16     1.0000 0.37495  0.03483  0.69106  Biso   1.000  Cd
  Cd17     1.0000 0.32634  0.20302  0.54968  Biso   1.000  Cd
  Cd18     1.0000 0.42497  0.89580  0.84365  Biso   1.000  Cd
  O76      1.0000 0.34466  0.04800  0.58570  Biso   1.000  O
  O77      1.0000 0.30905  0.01750  0.50800  Biso   1.000  O
  O78      1.0000 0.37829  0.88900  0.59480  Biso   1.000  O
  O79      1.0000 0.40014  0.88170  0.72220  Biso   1.000  O
  O80      1.0000 0.44053  0.83270  0.76070  Biso   1.000  O
  O81      1.0000 0.35885  0.20530  0.68800  Biso   1.000  O
  O82      1.0000 0.35674  0.30860  0.60500  Biso   1.000  O
  O83      1.0000 0.39394  0.25230  0.80340  Biso   1.000  O
  O84      1.0000 0.39976  0.04390  0.80420  Biso   1.000  O
  O85      1.0000 0.40036  0.99380  0.90220  Biso   1.000  O
  O86      1.0000 0.32834  0.23470  0.45130  Biso   1.000  O
  O87      1.0000 0.31272  0.37860  0.47580  Biso   1.000  O
  O88      1.0000 0.36971  0.33830  0.41450  Biso   1.000  O
  O89      1.0000 0.40415  0.25320  0.35330  Biso   1.000  O
  O90      1.0000 0.44074  0.23530  0.43020  Biso   1.000  O
  N51      1.0000 0.40917  0.10700  0.66900  Biso   1.000  N
  N52      1.0000 0.43293  0.21310  0.63100  Biso   1.000  N
  N53      1.0000 0.50494  0.09220  0.57660  Biso   1.000  N
  N54      1.0000 0.53945  0.99180  0.60740  Biso   1.000  N
  N55      1.0000 0.24418  0.78740  0.90310  Biso   1.000  N
  N56      1.0000 0.21096  0.72180  0.92850  Biso   1.000  N
  C391     1.0000 0.41170  0.14960  0.61510  Biso   1.000  C
  C392     1.0000 0.44379  0.20800  0.69750  Biso   1.000  C
  H326     1.0000 0.45850  0.24280  0.72200  Biso   1.000  H
  C393     1.0000 0.42916  0.14350  0.71980  Biso   1.000  C
  H327     1.0000 0.43210  0.12600  0.76320  Biso   1.000  H
  C394     1.0000 0.39537  0.13410  0.54750  Biso   1.000  C
  H328     1.0000 0.38930  0.19960  0.52820  Biso   1.000  H
  H329     1.0000 0.40540  0.10120  0.52320  Biso   1.000  H
  H330     1.0000 0.38080  0.09160  0.54700  Biso   1.000  H
  C395     1.0000 0.44025  0.28350  0.58720  Biso   1.000  C
  H331     1.0000 0.43760  0.24980  0.54570  Biso   1.000  H
  H332     1.0000 0.42900  0.34320  0.58020  Biso   1.000  H
  C396     1.0000 0.46754  0.31770  0.61200  Biso   1.000  C
  C397     1.0000 0.47351  0.41400  0.64130  Biso   1.000  C
  H333     1.0000 0.46010  0.45740  0.64320  Biso   1.000  H
  C398     1.0000 0.49838  0.44600  0.66700  Biso   1.000  C
  H334     1.0000 0.50170  0.51040  0.68640  Biso   1.000  H
  C399     1.0000 0.51824  0.38580  0.66480  Biso   1.000  C
  H335     1.0000 0.53520  0.40840  0.68290  Biso   1.000  H
  C400     1.0000 0.51355  0.28910  0.63540  Biso   1.000  C
  H336     1.0000 0.52740  0.24820  0.63290  Biso   1.000  H
  C401     1.0000 0.48807  0.25390  0.60980  Biso   1.000  C
  C402     1.0000 0.48214  0.15020  0.57790  Biso   1.000  C
  H337     1.0000 0.47110  0.15970  0.53380  Biso   1.000  H
  H338     1.0000 0.47250  0.11010  0.60080  Biso   1.000  H
  C403     1.0000 0.51879  0.02560  0.62210  Biso   1.000  C
  C404     1.0000 0.53909  0.04070  0.55100  Biso   1.000  C
  H339     1.0000 0.55160  0.03240  0.52960  Biso   1.000  H
  C405     1.0000 0.51811  0.10260  0.53080  Biso   1.000  C
  H340     1.0000 0.51350  0.14360  0.49390  Biso   1.000  H
  C406     1.0000 0.51131  0.99490  0.68050  Biso   1.000  C
  H341     1.0000 0.52280  0.94180  0.70340  Biso   1.000  H
  H342     1.0000 0.51260  0.05350  0.70840  Biso   1.000  H
  H343     1.0000 0.49380  0.96990  0.66740  Biso   1.000  H
  N57      1.0000 0.34752  0.94800  0.73110  Biso   1.000  N
  C407     1.0000 0.32576  0.99540  0.74380  Biso   1.000  C
  N58      1.0000 0.31875  0.93460  0.79060  Biso   1.000  N
  C408     1.0000 0.33619  0.84970  0.80680  Biso   1.000  C
  H344     1.0000 0.33590  0.79930  0.83780  Biso   1.000  H
  C409     1.0000 0.35330  0.85920  0.76490  Biso   1.000  C
  H345     1.0000 0.36710  0.81230  0.76610  Biso   1.000  H
  C410     1.0000 0.31160  0.09160  0.72140  Biso   1.000  C
  H346     1.0000 0.29750  0.10530  0.73890  Biso   1.000  H
  H347     1.0000 0.30490  0.08430  0.67520  Biso   1.000  H
  H348     1.0000 0.32370  0.14760  0.73170  Biso   1.000  H
  C411     1.0000 0.29938  0.92720  0.81800  Biso   1.000  C
  H349     1.0000 0.30600  0.89460  0.85950  Biso   1.000  H
  H350     1.0000 0.29400  0.99530  0.82520  Biso   1.000  H
  C412     1.0000 0.27596  0.86810  0.77860  Biso   1.000  C
  C413     1.0000 0.27347  0.84220  0.71420  Biso   1.000  C
  H351     1.0000 0.28620  0.86220  0.69550  Biso   1.000  H
  C414     1.0000 0.25313  0.78950  0.67990  Biso   1.000  C
  H352     1.0000 0.25210  0.77130  0.63760  Biso   1.000  H
  C415     1.0000 0.23325  0.76010  0.70440  Biso   1.000  C
  H353     1.0000 0.21840  0.72770  0.67840  Biso   1.000  H
  C416     1.0000 0.23621  0.78030  0.76780  Biso   1.000  C
  H354     1.0000 0.22350  0.75860  0.78600  Biso   1.000  H
  C417     1.0000 0.25747  0.83190  0.80570  Biso   1.000  C
  C418     1.0000 0.26058  0.85190  0.87700  Biso   1.000  C
  H355     1.0000 0.25660  0.92340  0.88240  Biso   1.000  H
  H356     1.0000 0.27860  0.84040  0.90180  Biso   1.000  H
  C419     1.0000 0.22039  0.80270  0.90620  Biso   1.000  C
  C420     1.0000 0.23066  0.64780  0.94000  Biso   1.000  C
  H357     1.0000 0.22990  0.58200  0.95620  Biso   1.000  H
  C421     1.0000 0.25049  0.68640  0.92410  Biso   1.000  C
  H358     1.0000 0.26590  0.65250  0.92640  Biso   1.000  H
  C422     1.0000 0.20577  0.90070  0.88950  Biso   1.000  C
  H359     1.0000 0.19960  0.92160  0.92490  Biso   1.000  H
  H360     1.0000 0.21700  0.95290  0.88120  Biso   1.000  H
  H361     1.0000 0.19120  0.89090  0.85140  Biso   1.000  H
  C423     1.0000 0.32830  0.98470  0.54990  Biso   1.000  C
  C424     1.0000 0.33244  0.87270  0.55820  Biso   1.000  C
  C425     1.0000 0.31034  0.80850  0.53880  Biso   1.000  C
  H362     1.0000 0.29390  0.83780  0.52450  Biso   1.000  H
  C426     1.0000 0.31300  0.69720  0.54070  Biso   1.000  C
  H363     1.0000 0.29870  0.65390  0.52590  Biso   1.000  H
  C427     1.0000 0.33743  0.65980  0.56520  Biso   1.000  C
  H364     1.0000 0.33950  0.58880  0.56890  Biso   1.000  H
  C428     1.0000 0.35926  0.71890  0.58470  Biso   1.000  C
  H365     1.0000 0.37550  0.68870  0.60150  Biso   1.000  H
  C429     1.0000 0.35676  0.82500  0.57910  Biso   1.000  C
  C430     1.0000 0.40170  0.85090  0.59140  Biso   1.000  C
  C431     1.0000 0.40459  0.83750  0.53130  Biso   1.000  C
  H366     1.0000 0.39060  0.85010  0.49470  Biso   1.000  H
  C432     1.0000 0.42757  0.80600  0.52410  Biso   1.000  C
  H367     1.0000 0.42910  0.79640  0.48270  Biso   1.000  H
  C433     1.0000 0.44838  0.78860  0.57710  Biso   1.000  C
  H368     1.0000 0.46410  0.76610  0.57250  Biso   1.000  H
  C434     1.0000 0.44561  0.80520  0.63790  Biso   1.000  C
  H369     1.0000 0.45990  0.79560  0.67430  Biso   1.000  H
  C435     1.0000 0.42218  0.83580  0.64660  Biso   1.000  C
  C436     1.0000 0.42054  0.85130  0.71320  Biso   1.000  C
  C437     1.0000 0.36496  0.28360  0.66460  Biso   1.000  C
  C438     1.0000 0.38348  0.36010  0.70750  Biso   1.000  C
  C439     1.0000 0.38932  0.45170  0.68080  Biso   1.000  C
  H370     1.0000 0.38200  0.46370  0.63660  Biso   1.000  H
  C440     1.0000 0.40566  0.52510  0.71840  Biso   1.000  C
  H371     1.0000 0.40930  0.58530  0.69940  Biso   1.000  H
  C441     1.0000 0.41614  0.50930  0.78170  Biso   1.000  C
  H372     1.0000 0.42690  0.55920  0.80690  Biso   1.000  H
  C442     1.0000 0.41127  0.41910  0.81100  Biso   1.000  C
  H373     1.0000 0.41870  0.40830  0.85530  Biso   1.000  H
  C443     1.0000 0.39504  0.34530  0.77250  Biso   1.000  C
  C444     1.0000 0.37453  0.23420  0.83030  Biso   1.000  C
  C445     1.0000 0.35707  0.30910  0.83540  Biso   1.000  C
  H374     1.0000 0.35760  0.37390  0.81760  Biso   1.000  H
  C446     1.0000 0.33896  0.28810  0.86670  Biso   1.000  C
  H375     1.0000 0.32760  0.33960  0.87060  Biso   1.000  H
  C447     1.0000 0.33734  0.19430  0.89180  Biso   1.000  C
  H376     1.0000 0.32440  0.17980  0.91090  Biso   1.000  H
  C448     1.0000 0.35548  0.11910  0.88860  Biso   1.000  C
  H377     1.0000 0.35510  0.05570  0.90820  Biso   1.000  H
  C449     1.0000 0.37366  0.13610  0.85760  Biso   1.000  C
  C450     1.0000 0.39249  0.05380  0.85460  Biso   1.000  C
  C451     1.0000 0.32165  0.32750  0.44060  Biso   1.000  C
  C452     1.0000 0.32434  0.37180  0.37860  Biso   1.000  C
  C453     1.0000 0.30306  0.40720  0.33150  Biso   1.000  C
  H378     1.0000 0.28680  0.40660  0.33830  Biso   1.000  H
  C454     1.0000 0.30565  0.44380  0.27380  Biso   1.000  C
  H379     1.0000 0.29110  0.46850  0.24210  Biso   1.000  H
  C455     1.0000 0.32929  0.44440  0.26260  Biso   1.000  C
  H380     1.0000 0.33060  0.46670  0.22280  Biso   1.000  H
  C456     1.0000 0.35124  0.41190  0.31010  Biso   1.000  C
  H381     1.0000 0.36750  0.41390  0.30340  Biso   1.000  H
  C457     1.0000 0.34833  0.37650  0.36760  Biso   1.000  C
  C458     1.0000 0.39013  0.40530  0.43920  Biso   1.000  C
  C459     1.0000 0.38583  0.49380  0.46870  Biso   1.000  C
  H382     1.0000 0.36920  0.51050  0.46950  Biso   1.000  H
  C460     1.0000 0.40638  0.55780  0.49710  Biso   1.000  C
  H383     1.0000 0.40370  0.61740  0.51800  Biso   1.000  H
  C461     1.0000 0.43068  0.53400  0.49470  Biso   1.000  C
  H384     1.0000 0.44450  0.57810  0.51310  Biso   1.000  H
  C462     1.0000 0.43475  0.44550  0.46530  Biso   1.000  C
  H385     1.0000 0.45150  0.42960  0.46450  Biso   1.000  H
  C463     1.0000 0.41463  0.37890  0.43680  Biso   1.000  C
  C464     1.0000 0.41975  0.28210  0.40370  Biso   1.000  C
  N59      1.0000 0.34010  0.00250  0.72510  Biso   1.000  N
  C465     1.0000 0.33320  0.94840  0.75930  Biso   1.000  C
  C466     1.0000 0.30290  0.05550  0.74460  Biso   1.000  C
  H386     1.0000 0.28790  0.09280  0.74680  Biso   1.000  H
  N60      1.0000 0.31550  0.96000  0.78140  Biso   1.000  N
  C467     1.0000 0.31820  0.08510  0.71180  Biso   1.000  C
  H387     1.0000 0.31630  0.14220  0.68260  Biso   1.000  H
  C468     1.0000 0.34990  0.85510  0.78810  Biso   1.000  C
  H388     1.0000 0.36400  0.84300  0.77030  Biso   1.000  H
  H389     1.0000 0.33810  0.79800  0.77810  Biso   1.000  H
  H390     1.0000 0.35670  0.86270  0.83430  Biso   1.000  H
  Cd19     1.0000 0.12505  0.53483  0.80894  Biso   1.000  Cd
  Cd20     1.0000 0.17366  0.70302  0.95032  Biso   1.000  Cd
  Cd21     1.0000 0.07503  0.39580  0.65635  Biso   1.000  Cd
  O91      1.0000 0.15534  0.54800  0.91430  Biso   1.000  O
  O92      1.0000 0.19095  0.51750  0.99200  Biso   1.000  O
  O93      1.0000 0.12171  0.38900  0.90520  Biso   1.000  O
  O94      1.0000 0.09986  0.38170  0.77780  Biso   1.000  O
  O95      1.0000 0.05947  0.33270  0.73930  Biso   1.000  O
  O96      1.0000 0.14115  0.70530  0.81200  Biso   1.000  O
  O97      1.0000 0.14326  0.80860  0.89500  Biso   1.000  O
  O98      1.0000 0.10606  0.75230  0.69660  Biso   1.000  O
  O99      1.0000 0.10024  0.54390  0.69580  Biso   1.000  O
  O100     1.0000 0.09964  0.49380  0.59780  Biso   1.000  O
  O101     1.0000 0.17166  0.73470  0.04870  Biso   1.000  O
  O102     1.0000 0.18728  0.87860  0.02420  Biso   1.000  O
  O103     1.0000 0.13029  0.83830  0.08550  Biso   1.000  O
  O104     1.0000 0.09585  0.75320  0.14670  Biso   1.000  O
  O105     1.0000 0.05926  0.73530  0.06980  Biso   1.000  O
  N61      1.0000 0.09083  0.60700  0.83100  Biso   1.000  N
  N62      1.0000 0.06707  0.71310  0.86900  Biso   1.000  N
  N63      1.0000 0.99506  0.59220  0.92340  Biso   1.000  N
  N64      1.0000 0.96055  0.49180  0.89260  Biso   1.000  N
  N65      1.0000 0.25582  0.28740  0.59690  Biso   1.000  N
  N66      1.0000 0.28904  0.22180  0.57150  Biso   1.000  N
  C469     1.0000 0.08830  0.64960  0.88490  Biso   1.000  C
  C470     1.0000 0.05621  0.70800  0.80250  Biso   1.000  C
  H391     1.0000 0.04150  0.74280  0.77800  Biso   1.000  H
  C471     1.0000 0.07084  0.64350  0.78020  Biso   1.000  C
  H392     1.0000 0.06790  0.62600  0.73680  Biso   1.000  H
  C472     1.0000 0.10463  0.63410  0.95250  Biso   1.000  C
  H393     1.0000 0.11070  0.69960  0.97180  Biso   1.000  H
  H394     1.0000 0.09460  0.60120  0.97680  Biso   1.000  H
  H395     1.0000 0.11920  0.59160  0.95300  Biso   1.000  H
  C473     1.0000 0.05975  0.78350  0.91280  Biso   1.000  C
  H396     1.0000 0.06240  0.74980  0.95430  Biso   1.000  H
  H397     1.0000 0.07100  0.84320  0.91980  Biso   1.000  H
  C474     1.0000 0.03246  0.81770  0.88800  Biso   1.000  C
  C475     1.0000 0.02649  0.91400  0.85870  Biso   1.000  C
  H398     1.0000 0.03990  0.95740  0.85680  Biso   1.000  H
  C476     1.0000 0.00162  0.94600  0.83300  Biso   1.000  C
  H399     1.0000 0.99830  0.01040  0.81360  Biso   1.000  H
  C477     1.0000 0.98176  0.88580  0.83520  Biso   1.000  C
  H400     1.0000 0.96480  0.90840  0.81710  Biso   1.000  H
  C478     1.0000 0.98645  0.78910  0.86460  Biso   1.000  C
  H401     1.0000 0.97260  0.74820  0.86710  Biso   1.000  H
  C479     1.0000 0.01193  0.75390  0.89020  Biso   1.000  C
  C480     1.0000 0.01786  0.65020  0.92210  Biso   1.000  C
  H402     1.0000 0.02890  0.65970  0.96620  Biso   1.000  H
  H403     1.0000 0.02750  0.61010  0.89920  Biso   1.000  H
  C481     1.0000 0.98121  0.52560  0.87790  Biso   1.000  C
  C482     1.0000 0.96091  0.54070  0.94900  Biso   1.000  C
  H404     1.0000 0.94840  0.53240  0.97040  Biso   1.000  H
  C483     1.0000 0.98189  0.60260  0.96920  Biso   1.000  C
  H405     1.0000 0.98650  0.64360  0.00610  Biso   1.000  H
  C484     1.0000 0.98869  0.49490  0.81950  Biso   1.000  C
  H406     1.0000 0.97720  0.44180  0.79660  Biso   1.000  H
  H407     1.0000 0.98740  0.55350  0.79160  Biso   1.000  H
  H408     1.0000 0.00620  0.46990  0.83260  Biso   1.000  H
  N67      1.0000 0.15248  0.44800  0.76890  Biso   1.000  N
  C485     1.0000 0.17424  0.49540  0.75620  Biso   1.000  C
  N68      1.0000 0.18125  0.43460  0.70940  Biso   1.000  N
  C486     1.0000 0.16381  0.34970  0.69320  Biso   1.000  C
  H409     1.0000 0.16410  0.29930  0.66220  Biso   1.000  H
  C487     1.0000 0.14670  0.35920  0.73510  Biso   1.000  C
  H410     1.0000 0.13290  0.31230  0.73390  Biso   1.000  H
  C488     1.0000 0.18840  0.59160  0.77860  Biso   1.000  C
  H411     1.0000 0.20250  0.60530  0.76110  Biso   1.000  H
  H412     1.0000 0.19510  0.58430  0.82480  Biso   1.000  H
  H413     1.0000 0.17630  0.64760  0.76830  Biso   1.000  H
  C489     1.0000 0.20062  0.42720  0.68200  Biso   1.000  C
  H414     1.0000 0.19400  0.39460  0.64050  Biso   1.000  H
  H415     1.0000 0.20600  0.49530  0.67480  Biso   1.000  H
  C490     1.0000 0.22404  0.36810  0.72140  Biso   1.000  C
  C491     1.0000 0.22653  0.34220  0.78580  Biso   1.000  C
  H416     1.0000 0.21380  0.36220  0.80450  Biso   1.000  H
  C492     1.0000 0.24687  0.28950  0.82010  Biso   1.000  C
  H417     1.0000 0.24790  0.27130  0.86240  Biso   1.000  H
  C493     1.0000 0.26675  0.26010  0.79560  Biso   1.000  C
  H418     1.0000 0.28160  0.22770  0.82160  Biso   1.000  H
  C494     1.0000 0.26379  0.28030  0.73220  Biso   1.000  C
  H419     1.0000 0.27650  0.25860  0.71400  Biso   1.000  H
  C495     1.0000 0.24253  0.33190  0.69430  Biso   1.000  C
  C496     1.0000 0.23942  0.35190  0.62300  Biso   1.000  C
  H420     1.0000 0.24340  0.42340  0.61760  Biso   1.000  H
  H421     1.0000 0.22140  0.34040  0.59820  Biso   1.000  H
  C497     1.0000 0.27961  0.30270  0.59380  Biso   1.000  C
  C498     1.0000 0.26934  0.14780  0.56000  Biso   1.000  C
  H422     1.0000 0.27010  0.08200  0.54380  Biso   1.000  H
  C499     1.0000 0.24951  0.18640  0.57590  Biso   1.000  C
  H423     1.0000 0.23410  0.15250  0.57360  Biso   1.000  H
  C500     1.0000 0.29423  0.40070  0.61050  Biso   1.000  C
  H424     1.0000 0.30040  0.42160  0.57510  Biso   1.000  H
  H425     1.0000 0.28300  0.45290  0.61880  Biso   1.000  H
  H426     1.0000 0.30880  0.39090  0.64860  Biso   1.000  H
  C501     1.0000 0.17170  0.48470  0.95010  Biso   1.000  C
  C502     1.0000 0.16756  0.37270  0.94180  Biso   1.000  C
  C503     1.0000 0.18966  0.30850  0.96120  Biso   1.000  C
  H427     1.0000 0.20610  0.33780  0.97550  Biso   1.000  H
  C504     1.0000 0.18700  0.19720  0.95930  Biso   1.000  C
  H428     1.0000 0.20130  0.15390  0.97410  Biso   1.000  H
  C505     1.0000 0.16257  0.15980  0.93480  Biso   1.000  C
  H429     1.0000 0.16050  0.08880  0.93110  Biso   1.000  H
  C506     1.0000 0.14074  0.21890  0.91530  Biso   1.000  C
  H430     1.0000 0.12450  0.18870  0.89850  Biso   1.000  H
  C507     1.0000 0.14324  0.32500  0.92090  Biso   1.000  C
  C508     1.0000 0.09830  0.35090  0.90860  Biso   1.000  C
  C509     1.0000 0.09541  0.33750  0.96870  Biso   1.000  C
  H431     1.0000 0.10940  0.35010  0.00530  Biso   1.000  H
  C510     1.0000 0.07243  0.30600  0.97590  Biso   1.000  C
  H432     1.0000 0.07090  0.29640  0.01730  Biso   1.000  H
  C511     1.0000 0.05162  0.28860  0.92290  Biso   1.000  C
  H433     1.0000 0.03590  0.26610  0.92750  Biso   1.000  H
  C512     1.0000 0.05439  0.30520  0.86210  Biso   1.000  C
  H434     1.0000 0.04010  0.29560  0.82570  Biso   1.000  H
  C513     1.0000 0.07782  0.33580  0.85340  Biso   1.000  C
  C514     1.0000 0.07946  0.35130  0.78680  Biso   1.000  C
  C515     1.0000 0.13504  0.78360  0.83540  Biso   1.000  C
  C516     1.0000 0.11652  0.86010  0.79250  Biso   1.000  C
  C517     1.0000 0.11068  0.95170  0.81920  Biso   1.000  C
  H435     1.0000 0.11800  0.96370  0.86340  Biso   1.000  H
  C518     1.0000 0.09434  0.02510  0.78160  Biso   1.000  C
  H436     1.0000 0.09070  0.08530  0.80060  Biso   1.000  H
  C519     1.0000 0.08386  0.00930  0.71830  Biso   1.000  C
  H437     1.0000 0.07310  0.05920  0.69310  Biso   1.000  H
  C520     1.0000 0.08873  0.91910  0.68900  Biso   1.000  C
  H438     1.0000 0.08130  0.90830  0.64470  Biso   1.000  H
  C521     1.0000 0.10496  0.84530  0.72750  Biso   1.000  C
  C522     1.0000 0.12547  0.73420  0.66970  Biso   1.000  C
  C523     1.0000 0.14293  0.80910  0.66460  Biso   1.000  C
  H439     1.0000 0.14240  0.87390  0.68240  Biso   1.000  H
  C524     1.0000 0.16104  0.78810  0.63330  Biso   1.000  C
  H440     1.0000 0.17240  0.83960  0.62940  Biso   1.000  H
  C525     1.0000 0.16266  0.69430  0.60820  Biso   1.000  C
  H441     1.0000 0.17560  0.67980  0.58910  Biso   1.000  H
  C526     1.0000 0.14452  0.61910  0.61140  Biso   1.000  C
  H442     1.0000 0.14490  0.55570  0.59180  Biso   1.000  H
  C527     1.0000 0.12634  0.63610  0.64240  Biso   1.000  C
  C528     1.0000 0.10751  0.55380  0.64540  Biso   1.000  C
  C529     1.0000 0.17835  0.82750  0.05940  Biso   1.000  C
  C530     1.0000 0.17566  0.87180  0.12140  Biso   1.000  C
  C531     1.0000 0.19694  0.90720  0.16850  Biso   1.000  C
  H443     1.0000 0.21320  0.90660  0.16170  Biso   1.000  H
  C532     1.0000 0.19435  0.94380  0.22620  Biso   1.000  C
  H444     1.0000 0.20890  0.96850  0.25790  Biso   1.000  H
  C533     1.0000 0.17071  0.94440  0.23740  Biso   1.000  C
  H445     1.0000 0.16940  0.96670  0.27720  Biso   1.000  H
  C534     1.0000 0.14876  0.91190  0.18990  Biso   1.000  C
  H446     1.0000 0.13250  0.91390  0.19660  Biso   1.000  H
  C535     1.0000 0.15167  0.87650  0.13240  Biso   1.000  C
  C536     1.0000 0.10987  0.90530  0.06080  Biso   1.000  C
  C537     1.0000 0.11417  0.99380  0.03130  Biso   1.000  C
  H447     1.0000 0.13080  0.01050  0.03050  Biso   1.000  H
  C538     1.0000 0.09362  0.05780  0.00290  Biso   1.000  C
  H448     1.0000 0.09630  0.11740  0.98200  Biso   1.000  H
  C539     1.0000 0.06932  0.03400  0.00530  Biso   1.000  C
  H449     1.0000 0.05550  0.07810  0.98690  Biso   1.000  H
  C540     1.0000 0.06525  0.94550  0.03470  Biso   1.000  C
  H450     1.0000 0.04850  0.92960  0.03550  Biso   1.000  H
  C541     1.0000 0.08537  0.87890  0.06320  Biso   1.000  C
  C542     1.0000 0.08025  0.78210  0.09630  Biso   1.000  C
  N69      1.0000 0.15990  0.50250  0.77490  Biso   1.000  N
  C543     1.0000 0.16680  0.44840  0.74070  Biso   1.000  C
  C544     1.0000 0.19710  0.55550  0.75540  Biso   1.000  C
  H451     1.0000 0.21210  0.59280  0.75320  Biso   1.000  H
  N70      1.0000 0.18450  0.46000  0.71860  Biso   1.000  N
  C545     1.0000 0.18180  0.58510  0.78820  Biso   1.000  C
  H452     1.0000 0.18370  0.64220  0.81740  Biso   1.000  H
  C546     1.0000 0.15010  0.35510  0.71190  Biso   1.000  C
  H453     1.0000 0.13600  0.34300  0.72970  Biso   1.000  H
  H454     1.0000 0.16190  0.29800  0.72190  Biso   1.000  H
  H455     1.0000 0.14330  0.36270  0.66570  Biso   1.000  H
  Cd22     1.0000 0.62505  0.03483  0.80894  Biso   1.000  Cd
  Cd23     1.0000 0.67366  0.20302  0.95032  Biso   1.000  Cd
  Cd24     1.0000 0.57503  0.89580  0.65635  Biso   1.000  Cd
  O106     1.0000 0.65534  0.04800  0.91430  Biso   1.000  O
  O107     1.0000 0.69095  0.01750  0.99200  Biso   1.000  O
  O108     1.0000 0.62171  0.88900  0.90520  Biso   1.000  O
  O109     1.0000 0.59986  0.88170  0.77780  Biso   1.000  O
  O110     1.0000 0.55947  0.83270  0.73930  Biso   1.000  O
  O111     1.0000 0.64115  0.20530  0.81200  Biso   1.000  O
  O112     1.0000 0.64326  0.30860  0.89500  Biso   1.000  O
  O113     1.0000 0.60606  0.25230  0.69660  Biso   1.000  O
  O114     1.0000 0.60024  0.04390  0.69580  Biso   1.000  O
  O115     1.0000 0.59964  0.99380  0.59780  Biso   1.000  O
  O116     1.0000 0.67166  0.23470  0.04870  Biso   1.000  O
  O117     1.0000 0.68728  0.37860  0.02420  Biso   1.000  O
  O118     1.0000 0.63029  0.33830  0.08550  Biso   1.000  O
  O119     1.0000 0.59585  0.25320  0.14670  Biso   1.000  O
  O120     1.0000 0.55926  0.23530  0.06980  Biso   1.000  O
  N71      1.0000 0.59083  0.10700  0.83100  Biso   1.000  N
  N72      1.0000 0.56707  0.21310  0.86900  Biso   1.000  N
  N73      1.0000 0.49506  0.09220  0.92340  Biso   1.000  N
  N74      1.0000 0.46055  0.99180  0.89260  Biso   1.000  N
  N75      1.0000 0.75582  0.78740  0.59690  Biso   1.000  N
  N76      1.0000 0.78904  0.72180  0.57150  Biso   1.000  N
  C547     1.0000 0.58830  0.14960  0.88490  Biso   1.000  C
  C548     1.0000 0.55621  0.20800  0.80250  Biso   1.000  C
  H456     1.0000 0.54150  0.24280  0.77800  Biso   1.000  H
  C549     1.0000 0.57084  0.14350  0.78020  Biso   1.000  C
  H457     1.0000 0.56790  0.12600  0.73680  Biso   1.000  H
  C550     1.0000 0.60463  0.13410  0.95250  Biso   1.000  C
  H458     1.0000 0.61070  0.19960  0.97180  Biso   1.000  H
  H459     1.0000 0.59460  0.10120  0.97680  Biso   1.000  H
  H460     1.0000 0.61920  0.09160  0.95300  Biso   1.000  H
  C551     1.0000 0.55975  0.28350  0.91280  Biso   1.000  C
  H461     1.0000 0.56240  0.24980  0.95430  Biso   1.000  H
  H462     1.0000 0.57100  0.34320  0.91980  Biso   1.000  H
  C552     1.0000 0.53246  0.31770  0.88800  Biso   1.000  C
  C553     1.0000 0.52649  0.41400  0.85870  Biso   1.000  C
  H463     1.0000 0.53990  0.45740  0.85680  Biso   1.000  H
  C554     1.0000 0.50162  0.44600  0.83300  Biso   1.000  C
  H464     1.0000 0.49830  0.51040  0.81360  Biso   1.000  H
  C555     1.0000 0.48176  0.38580  0.83520  Biso   1.000  C
  H465     1.0000 0.46480  0.40840  0.81710  Biso   1.000  H
  C556     1.0000 0.48645  0.28910  0.86460  Biso   1.000  C
  H466     1.0000 0.47260  0.24820  0.86710  Biso   1.000  H
  C557     1.0000 0.51193  0.25390  0.89020  Biso   1.000  C
  C558     1.0000 0.51786  0.15020  0.92210  Biso   1.000  C
  H467     1.0000 0.52890  0.15970  0.96620  Biso   1.000  H
  H468     1.0000 0.52750  0.11010  0.89920  Biso   1.000  H
  C559     1.0000 0.48121  0.02560  0.87790  Biso   1.000  C
  C560     1.0000 0.46091  0.04070  0.94900  Biso   1.000  C
  H469     1.0000 0.44840  0.03240  0.97040  Biso   1.000  H
  C561     1.0000 0.48189  0.10260  0.96920  Biso   1.000  C
  H470     1.0000 0.48650  0.14360  0.00610  Biso   1.000  H
  C562     1.0000 0.48869  0.99490  0.81950  Biso   1.000  C
  H471     1.0000 0.47720  0.94180  0.79660  Biso   1.000  H
  H472     1.0000 0.48740  0.05350  0.79160  Biso   1.000  H
  H473     1.0000 0.50620  0.96990  0.83260  Biso   1.000  H
  N77      1.0000 0.65248  0.94800  0.76890  Biso   1.000  N
  C563     1.0000 0.67424  0.99540  0.75620  Biso   1.000  C
  N78      1.0000 0.68125  0.93460  0.70940  Biso   1.000  N
  C564     1.0000 0.66381  0.84970  0.69320  Biso   1.000  C
  H474     1.0000 0.66410  0.79930  0.66220  Biso   1.000  H
  C565     1.0000 0.64670  0.85920  0.73510  Biso   1.000  C
  H475     1.0000 0.63290  0.81230  0.73390  Biso   1.000  H
  C566     1.0000 0.68840  0.09160  0.77860  Biso   1.000  C
  H476     1.0000 0.70250  0.10530  0.76110  Biso   1.000  H
  H477     1.0000 0.69510  0.08430  0.82480  Biso   1.000  H
  H478     1.0000 0.67630  0.14760  0.76830  Biso   1.000  H
  C567     1.0000 0.70062  0.92720  0.68200  Biso   1.000  C
  H479     1.0000 0.69400  0.89460  0.64050  Biso   1.000  H
  H480     1.0000 0.70600  0.99530  0.67480  Biso   1.000  H
  C568     1.0000 0.72404  0.86810  0.72140  Biso   1.000  C
  C569     1.0000 0.72653  0.84220  0.78580  Biso   1.000  C
  H481     1.0000 0.71380  0.86220  0.80450  Biso   1.000  H
  C570     1.0000 0.74687  0.78950  0.82010  Biso   1.000  C
  H482     1.0000 0.74790  0.77130  0.86240  Biso   1.000  H
  C571     1.0000 0.76675  0.76010  0.79560  Biso   1.000  C
  H483     1.0000 0.78160  0.72770  0.82160  Biso   1.000  H
  C572     1.0000 0.76379  0.78030  0.73220  Biso   1.000  C
  H484     1.0000 0.77650  0.75860  0.71400  Biso   1.000  H
  C573     1.0000 0.74253  0.83190  0.69430  Biso   1.000  C
  C574     1.0000 0.73942  0.85190  0.62300  Biso   1.000  C
  H485     1.0000 0.74340  0.92340  0.61760  Biso   1.000  H
  H486     1.0000 0.72140  0.84040  0.59820  Biso   1.000  H
  C575     1.0000 0.77961  0.80270  0.59380  Biso   1.000  C
  C576     1.0000 0.76934  0.64780  0.56000  Biso   1.000  C
  H487     1.0000 0.77010  0.58200  0.54380  Biso   1.000  H
  C577     1.0000 0.74951  0.68640  0.57590  Biso   1.000  C
  H488     1.0000 0.73410  0.65250  0.57360  Biso   1.000  H
  C578     1.0000 0.79423  0.90070  0.61050  Biso   1.000  C
  H489     1.0000 0.80040  0.92160  0.57510  Biso   1.000  H
  H490     1.0000 0.78300  0.95290  0.61880  Biso   1.000  H
  H491     1.0000 0.80880  0.89090  0.64860  Biso   1.000  H
  C579     1.0000 0.67170  0.98470  0.95010  Biso   1.000  C
  C580     1.0000 0.66756  0.87270  0.94180  Biso   1.000  C
  C581     1.0000 0.68966  0.80850  0.96120  Biso   1.000  C
  H492     1.0000 0.70610  0.83780  0.97550  Biso   1.000  H
  C582     1.0000 0.68700  0.69720  0.95930  Biso   1.000  C
  H493     1.0000 0.70130  0.65390  0.97410  Biso   1.000  H
  C583     1.0000 0.66257  0.65980  0.93480  Biso   1.000  C
  H494     1.0000 0.66050  0.58880  0.93110  Biso   1.000  H
  C584     1.0000 0.64074  0.71890  0.91530  Biso   1.000  C
  H495     1.0000 0.62450  0.68870  0.89850  Biso   1.000  H
  C585     1.0000 0.64324  0.82500  0.92090  Biso   1.000  C
  C586     1.0000 0.59830  0.85090  0.90860  Biso   1.000  C
  C587     1.0000 0.59541  0.83750  0.96870  Biso   1.000  C
  H496     1.0000 0.60940  0.85010  0.00530  Biso   1.000  H
  C588     1.0000 0.57243  0.80600  0.97590  Biso   1.000  C
  H497     1.0000 0.57090  0.79640  0.01730  Biso   1.000  H
  C589     1.0000 0.55162  0.78860  0.92290  Biso   1.000  C
  H498     1.0000 0.53590  0.76610  0.92750  Biso   1.000  H
  C590     1.0000 0.55439  0.80520  0.86210  Biso   1.000  C
  H499     1.0000 0.54010  0.79560  0.82570  Biso   1.000  H
  C591     1.0000 0.57782  0.83580  0.85340  Biso   1.000  C
  C592     1.0000 0.57946  0.85130  0.78680  Biso   1.000  C
  C593     1.0000 0.63504  0.28360  0.83540  Biso   1.000  C
  C594     1.0000 0.61652  0.36010  0.79250  Biso   1.000  C
  C595     1.0000 0.61068  0.45170  0.81920  Biso   1.000  C
  H500     1.0000 0.61800  0.46370  0.86340  Biso   1.000  H
  C596     1.0000 0.59434  0.52510  0.78160  Biso   1.000  C
  H501     1.0000 0.59070  0.58530  0.80060  Biso   1.000  H
  C597     1.0000 0.58386  0.50930  0.71830  Biso   1.000  C
  H502     1.0000 0.57310  0.55920  0.69310  Biso   1.000  H
  C598     1.0000 0.58873  0.41910  0.68900  Biso   1.000  C
  H503     1.0000 0.58130  0.40830  0.64470  Biso   1.000  H
  C599     1.0000 0.60496  0.34530  0.72750  Biso   1.000  C
  C600     1.0000 0.62547  0.23420  0.66970  Biso   1.000  C
  C601     1.0000 0.64293  0.30910  0.66460  Biso   1.000  C
  H504     1.0000 0.64240  0.37390  0.68240  Biso   1.000  H
  C602     1.0000 0.66104  0.28810  0.63330  Biso   1.000  C
  H505     1.0000 0.67240  0.33960  0.62940  Biso   1.000  H
  C603     1.0000 0.66266  0.19430  0.60820  Biso   1.000  C
  H506     1.0000 0.67560  0.17980  0.58910  Biso   1.000  H
  C604     1.0000 0.64452  0.11910  0.61140  Biso   1.000  C
  H507     1.0000 0.64490  0.05570  0.59180  Biso   1.000  H
  C605     1.0000 0.62634  0.13610  0.64240  Biso   1.000  C
  C606     1.0000 0.60751  0.05380  0.64540  Biso   1.000  C
  C607     1.0000 0.67835  0.32750  0.05940  Biso   1.000  C
  C608     1.0000 0.67566  0.37180  0.12140  Biso   1.000  C
  C609     1.0000 0.69694  0.40720  0.16850  Biso   1.000  C
  H508     1.0000 0.71320  0.40660  0.16170  Biso   1.000  H
  C610     1.0000 0.69435  0.44380  0.22620  Biso   1.000  C
  H509     1.0000 0.70890  0.46850  0.25790  Biso   1.000  H
  C611     1.0000 0.67071  0.44440  0.23740  Biso   1.000  C
  H510     1.0000 0.66940  0.46670  0.27720  Biso   1.000  H
  C612     1.0000 0.64876  0.41190  0.18990  Biso   1.000  C
  H511     1.0000 0.63250  0.41390  0.19660  Biso   1.000  H
  C613     1.0000 0.65167  0.37650  0.13240  Biso   1.000  C
  C614     1.0000 0.60987  0.40530  0.06080  Biso   1.000  C
  C615     1.0000 0.61417  0.49380  0.03130  Biso   1.000  C
  H512     1.0000 0.63080  0.51050  0.03050  Biso   1.000  H
  C616     1.0000 0.59362  0.55780  0.00290  Biso   1.000  C
  H513     1.0000 0.59630  0.61740  0.98200  Biso   1.000  H
  C617     1.0000 0.56932  0.53400  0.00530  Biso   1.000  C
  H514     1.0000 0.55550  0.57810  0.98690  Biso   1.000  H
  C618     1.0000 0.56525  0.44550  0.03470  Biso   1.000  C
  H515     1.0000 0.54850  0.42960  0.03550  Biso   1.000  H
  C619     1.0000 0.58537  0.37890  0.06320  Biso   1.000  C
  C620     1.0000 0.58025  0.28210  0.09630  Biso   1.000  C
  N79      1.0000 0.65990  0.00250  0.77490  Biso   1.000  N
  C621     1.0000 0.66680  0.94840  0.74070  Biso   1.000  C
  C622     1.0000 0.69710  0.05550  0.75540  Biso   1.000  C
  H516     1.0000 0.71210  0.09280  0.75320  Biso   1.000  H
  N80      1.0000 0.68450  0.96000  0.71860  Biso   1.000  N
  C623     1.0000 0.68180  0.08510  0.78820  Biso   1.000  C
  H517     1.0000 0.68370  0.14220  0.81740  Biso   1.000  H
  C624     1.0000 0.65010  0.85510  0.71190  Biso   1.000  C
  H518     1.0000 0.63600  0.84300  0.72970  Biso   1.000  H
  H519     1.0000 0.66190  0.79800  0.72190  Biso   1.000  H
  H520     1.0000 0.64330  0.86270  0.66570  Biso   1.000  H
