data_image0
_cell_length_a       19.7757
_cell_length_b       44.7064
_cell_length_c       28.6303
_cell_angle_alpha    90
_cell_angle_beta     90
_cell_angle_gamma    90

_symmetry_space_group_name_H-M    "P 1"
_symmetry_int_tables_number       1

loop_
  _symmetry_equiv_pos_as_xyz
  'x, y, z'

loop_
  _atom_site_label
  _atom_site_occupancy
  _atom_site_fract_x
  _atom_site_fract_y
  _atom_site_fract_z
  _atom_site_thermal_displace_type
  _atom_site_B_iso_or_equiv
  _atom_site_type_symbol
  Zn1      1.0000 0.57498  0.26662  0.24687  Biso   1.000  Zn
  Zn2      1.0000 0.24271  0.38382  0.43394  Biso   1.000  Zn
  O1       1.0000 0.39030  0.40031  0.45000  Biso   1.000  O
  O2       1.0000 0.43950  0.29926  0.30064  Biso   1.000  O
  O3       1.0000 0.93980  0.26423  0.30560  Biso   1.000  O
  O4       1.0000 0.55300  0.29727  0.29809  Biso   1.000  O
  O5       1.0000 0.32730  0.36561  0.41520  Biso   1.000  O
  O6       1.0000 0.27750  0.56025  0.45220  Biso   1.000  O
  O7       1.0000 0.06510  0.52467  0.30203  Biso   1.000  O
  O8       1.0000 0.22710  0.42370  0.40698  Biso   1.000  O
  O9       1.0000 0.07770  0.47571  0.29608  Biso   1.000  O
  O10      1.0000 0.05190  0.26574  0.29322  Biso   1.000  O
  O11      1.0000 0.15770  0.36272  0.43090  Biso   1.000  O
  O12      1.0000 0.63450  0.39102  0.45210  Biso   1.000  O
  O13      1.0000 0.91190  0.37155  0.44890  Biso   1.000  O
  C1       1.0000 0.02450  0.34443  0.41310  Biso   1.000  C
  H1       1.0000 0.03010  0.36020  0.43510  Biso   1.000  H
  C2       1.0000 0.50830  0.37274  0.42270  Biso   1.000  C
  H2       1.0000 0.51060  0.38740  0.44670  Biso   1.000  H
  C3       1.0000 0.00660  0.29808  0.34980  Biso   1.000  C
  C4       1.0000 0.44200  0.34238  0.37020  Biso   1.000  C
  H3       1.0000 0.39940  0.33600  0.35850  Biso   1.000  H
  C5       1.0000 0.95980  0.33391  0.40300  Biso   1.000  C
  C6       1.0000 0.56370  0.33861  0.37010  Biso   1.000  C
  H4       1.0000 0.60390  0.32950  0.35860  Biso   1.000  H
  C7       1.0000 0.22310  0.47608  0.40140  Biso   1.000  C
  C8       1.0000 0.44550  0.36374  0.40530  Biso   1.000  C
  C9       1.0000 0.56760  0.36030  0.40490  Biso   1.000  C
  C10      1.0000 0.50180  0.33027  0.35230  Biso   1.000  C
  C11      1.0000 0.16450  0.52822  0.36870  Biso   1.000  C
  H5       1.0000 0.14520  0.54610  0.35660  Biso   1.000  H
  C12      1.0000 0.38340  0.37786  0.42620  Biso   1.000  C
  C13      1.0000 0.15050  0.34404  0.39890  Biso   1.000  C
  C14      1.0000 0.08070  0.33212  0.39160  Biso   1.000  C
  C15      1.0000 0.99830  0.27411  0.31400  Biso   1.000  C
  C16      1.0000 0.17420  0.47493  0.36610  Biso   1.000  C
  H6       1.0000 0.16130  0.45630  0.35270  Biso   1.000  H
  C17      1.0000 0.07100  0.30829  0.36000  Biso   1.000  C
  H7       1.0000 0.10910  0.29920  0.34550  Biso   1.000  H
  C18      1.0000 0.95130  0.31109  0.37080  Biso   1.000  C
  H8       1.0000 0.90700  0.30440  0.36320  Biso   1.000  H
  C19      1.0000 0.24170  0.50352  0.42010  Biso   1.000  C
  H9       1.0000 0.27480  0.50450  0.44410  Biso   1.000  H
  C20      1.0000 0.21070  0.53007  0.40320  Biso   1.000  C
  C21      1.0000 0.49780  0.30700  0.31360  Biso   1.000  C
  C22      1.0000 0.25080  0.44767  0.42120  Biso   1.000  C
  C23      1.0000 0.90050  0.35060  0.42380  Biso   1.000  C
  C24      1.0000 0.09310  0.50045  0.31280  Biso   1.000  C
  C25      1.0000 0.14480  0.50148  0.35100  Biso   1.000  C
  C26      1.0000 0.63500  0.36925  0.42530  Biso   1.000  C
  C27      1.0000 0.22890  0.55920  0.42700  Biso   1.000  C
  O14      1.0000 0.21040  0.58481  0.40110  Biso   1.000  O
  O15      1.0000 0.84400  0.34900  0.40010  Biso   1.000  O
  O16      1.0000 0.19260  0.34390  0.36540  Biso   1.000  O
  O17      1.0000 0.29740  0.45082  0.45130  Biso   1.000  O
  O18      1.0000 0.68550  0.35760  0.40970  Biso   1.000  O
  Zn3      1.0000 0.76466  0.34558  0.53587  Biso   1.000  Zn
  O19      1.0000 0.17310  0.57470  0.43560  Biso   1.000  O
  O20      1.0000 0.19920  0.32660  0.39120  Biso   1.000  O
  O21      1.0000 0.84460  0.33790  0.42200  Biso   1.000  O
  Zn4      1.0000 0.77434  0.37411  0.57258  Biso   1.000  Zn
  Zn5      1.0000 0.07498  0.76662  0.74687  Biso   1.000  Zn
  Zn6      1.0000 0.74271  0.88382  0.93394  Biso   1.000  Zn
  O22      1.0000 0.89030  0.90031  0.95000  Biso   1.000  O
  O23      1.0000 0.93950  0.79926  0.80064  Biso   1.000  O
  O24      1.0000 0.43980  0.76423  0.80560  Biso   1.000  O
  O25      1.0000 0.05300  0.79727  0.79809  Biso   1.000  O
  O26      1.0000 0.82730  0.86561  0.91520  Biso   1.000  O
  O27      1.0000 0.77750  0.06025  0.95220  Biso   1.000  O
  O28      1.0000 0.56510  0.02467  0.80203  Biso   1.000  O
  O29      1.0000 0.72710  0.92370  0.90698  Biso   1.000  O
  O30      1.0000 0.57770  0.97571  0.79608  Biso   1.000  O
  O31      1.0000 0.55190  0.76574  0.79322  Biso   1.000  O
  O32      1.0000 0.65770  0.86272  0.93090  Biso   1.000  O
  O33      1.0000 0.13450  0.89102  0.95210  Biso   1.000  O
  O34      1.0000 0.41190  0.87155  0.94890  Biso   1.000  O
  C28      1.0000 0.52450  0.84443  0.91310  Biso   1.000  C
  H10      1.0000 0.53010  0.86020  0.93510  Biso   1.000  H
  C29      1.0000 0.00830  0.87274  0.92270  Biso   1.000  C
  H11      1.0000 0.01060  0.88740  0.94670  Biso   1.000  H
  C30      1.0000 0.50660  0.79808  0.84980  Biso   1.000  C
  C31      1.0000 0.94200  0.84238  0.87020  Biso   1.000  C
  H12      1.0000 0.89940  0.83600  0.85850  Biso   1.000  H
  C32      1.0000 0.45980  0.83391  0.90300  Biso   1.000  C
  C33      1.0000 0.06370  0.83861  0.87010  Biso   1.000  C
  H13      1.0000 0.10390  0.82950  0.85860  Biso   1.000  H
  C34      1.0000 0.72310  0.97608  0.90140  Biso   1.000  C
  C35      1.0000 0.94550  0.86374  0.90530  Biso   1.000  C
  C36      1.0000 0.06760  0.86030  0.90490  Biso   1.000  C
  C37      1.0000 0.00180  0.83027  0.85230  Biso   1.000  C
  C38      1.0000 0.66450  0.02822  0.86870  Biso   1.000  C
  H14      1.0000 0.64520  0.04610  0.85660  Biso   1.000  H
  C39      1.0000 0.88340  0.87786  0.92620  Biso   1.000  C
  C40      1.0000 0.65050  0.84404  0.89890  Biso   1.000  C
  C41      1.0000 0.58070  0.83212  0.89160  Biso   1.000  C
  C42      1.0000 0.49830  0.77411  0.81400  Biso   1.000  C
  C43      1.0000 0.67420  0.97493  0.86610  Biso   1.000  C
  H15      1.0000 0.66130  0.95630  0.85270  Biso   1.000  H
  C44      1.0000 0.57100  0.80829  0.86000  Biso   1.000  C
  H16      1.0000 0.60910  0.79920  0.84550  Biso   1.000  H
  C45      1.0000 0.45130  0.81109  0.87080  Biso   1.000  C
  H17      1.0000 0.40700  0.80440  0.86320  Biso   1.000  H
  C46      1.0000 0.74170  0.00352  0.92010  Biso   1.000  C
  H18      1.0000 0.77480  0.00450  0.94410  Biso   1.000  H
  C47      1.0000 0.71070  0.03007  0.90320  Biso   1.000  C
  C48      1.0000 0.99780  0.80700  0.81360  Biso   1.000  C
  C49      1.0000 0.75080  0.94767  0.92120  Biso   1.000  C
  C50      1.0000 0.40050  0.85060  0.92380  Biso   1.000  C
  C51      1.0000 0.59310  0.00045  0.81280  Biso   1.000  C
  C52      1.0000 0.64480  0.00148  0.85100  Biso   1.000  C
  C53      1.0000 0.13500  0.86925  0.92530  Biso   1.000  C
  C54      1.0000 0.72890  0.05920  0.92700  Biso   1.000  C
  O35      1.0000 0.71040  0.08481  0.90110  Biso   1.000  O
  O36      1.0000 0.34400  0.84900  0.90010  Biso   1.000  O
  O37      1.0000 0.69260  0.84390  0.86540  Biso   1.000  O
  O38      1.0000 0.79740  0.95082  0.95130  Biso   1.000  O
  O39      1.0000 0.18550  0.85760  0.90970  Biso   1.000  O
  Zn7      1.0000 0.26466  0.84558  0.03587  Biso   1.000  Zn
  O40      1.0000 0.67310  0.07470  0.93560  Biso   1.000  O
  O41      1.0000 0.69920  0.82660  0.89120  Biso   1.000  O
  O42      1.0000 0.34460  0.83790  0.92200  Biso   1.000  O
  Zn8      1.0000 0.27434  0.87411  0.07258  Biso   1.000  Zn
  Zn9      1.0000 0.42502  0.73338  0.24687  Biso   1.000  Zn
  Zn10     1.0000 0.75729  0.61618  0.43394  Biso   1.000  Zn
  O43      1.0000 0.60970  0.59969  0.45000  Biso   1.000  O
  O44      1.0000 0.56050  0.70074  0.30064  Biso   1.000  O
  O45      1.0000 0.06020  0.73577  0.30560  Biso   1.000  O
  O46      1.0000 0.44700  0.70273  0.29809  Biso   1.000  O
  O47      1.0000 0.67270  0.63439  0.41520  Biso   1.000  O
  O48      1.0000 0.72250  0.43975  0.45220  Biso   1.000  O
  O49      1.0000 0.93490  0.47533  0.30203  Biso   1.000  O
  O50      1.0000 0.77290  0.57630  0.40698  Biso   1.000  O
  O51      1.0000 0.92230  0.52429  0.29608  Biso   1.000  O
  O52      1.0000 0.94810  0.73426  0.29322  Biso   1.000  O
  O53      1.0000 0.84230  0.63728  0.43090  Biso   1.000  O
  O54      1.0000 0.36550  0.60898  0.45210  Biso   1.000  O
  O55      1.0000 0.08810  0.62845  0.44890  Biso   1.000  O
  C55      1.0000 0.97550  0.65557  0.41310  Biso   1.000  C
  H19      1.0000 0.96990  0.63980  0.43510  Biso   1.000  H
  C56      1.0000 0.49170  0.62726  0.42270  Biso   1.000  C
  H20      1.0000 0.48940  0.61260  0.44670  Biso   1.000  H
  C57      1.0000 0.99340  0.70192  0.34980  Biso   1.000  C
  C58      1.0000 0.55800  0.65762  0.37020  Biso   1.000  C
  H21      1.0000 0.60060  0.66400  0.35850  Biso   1.000  H
  C59      1.0000 0.04020  0.66609  0.40300  Biso   1.000  C
  C60      1.0000 0.43630  0.66139  0.37010  Biso   1.000  C
  H22      1.0000 0.39610  0.67050  0.35860  Biso   1.000  H
  C61      1.0000 0.77690  0.52392  0.40140  Biso   1.000  C
  C62      1.0000 0.55450  0.63626  0.40530  Biso   1.000  C
  C63      1.0000 0.43240  0.63970  0.40490  Biso   1.000  C
  C64      1.0000 0.49820  0.66973  0.35230  Biso   1.000  C
  C65      1.0000 0.83550  0.47178  0.36870  Biso   1.000  C
  H23      1.0000 0.85480  0.45390  0.35660  Biso   1.000  H
  C66      1.0000 0.61660  0.62214  0.42620  Biso   1.000  C
  C67      1.0000 0.84950  0.65596  0.39890  Biso   1.000  C
  C68      1.0000 0.91930  0.66788  0.39160  Biso   1.000  C
  C69      1.0000 0.00170  0.72589  0.31400  Biso   1.000  C
  C70      1.0000 0.82580  0.52507  0.36610  Biso   1.000  C
  H24      1.0000 0.83870  0.54370  0.35270  Biso   1.000  H
  C71      1.0000 0.92900  0.69171  0.36000  Biso   1.000  C
  H25      1.0000 0.89090  0.70080  0.34550  Biso   1.000  H
  C72      1.0000 0.04870  0.68891  0.37080  Biso   1.000  C
  H26      1.0000 0.09300  0.69560  0.36320  Biso   1.000  H
  C73      1.0000 0.75830  0.49648  0.42010  Biso   1.000  C
  H27      1.0000 0.72520  0.49550  0.44410  Biso   1.000  H
  C74      1.0000 0.78930  0.46993  0.40320  Biso   1.000  C
  C75      1.0000 0.50220  0.69300  0.31360  Biso   1.000  C
  C76      1.0000 0.74920  0.55233  0.42120  Biso   1.000  C
  C77      1.0000 0.09950  0.64940  0.42380  Biso   1.000  C
  C78      1.0000 0.90690  0.49955  0.31280  Biso   1.000  C
  C79      1.0000 0.85520  0.49852  0.35100  Biso   1.000  C
  C80      1.0000 0.36500  0.63075  0.42530  Biso   1.000  C
  C81      1.0000 0.77110  0.44080  0.42700  Biso   1.000  C
  O56      1.0000 0.78960  0.41519  0.40110  Biso   1.000  O
  O57      1.0000 0.15600  0.65100  0.40010  Biso   1.000  O
  O58      1.0000 0.80740  0.65610  0.36540  Biso   1.000  O
  O59      1.0000 0.70260  0.54918  0.45130  Biso   1.000  O
  O60      1.0000 0.31450  0.64240  0.40970  Biso   1.000  O
  Zn11     1.0000 0.23534  0.65442  0.53587  Biso   1.000  Zn
  O61      1.0000 0.82690  0.42530  0.43560  Biso   1.000  O
  O62      1.0000 0.80080  0.67340  0.39120  Biso   1.000  O
  O63      1.0000 0.15540  0.66210  0.42200  Biso   1.000  O
  Zn12     1.0000 0.22566  0.62589  0.57258  Biso   1.000  Zn
  Zn13     1.0000 0.92502  0.23338  0.74687  Biso   1.000  Zn
  Zn14     1.0000 0.25729  0.11618  0.93394  Biso   1.000  Zn
  O64      1.0000 0.10970  0.09969  0.95000  Biso   1.000  O
  O65      1.0000 0.06050  0.20074  0.80064  Biso   1.000  O
  O66      1.0000 0.56020  0.23577  0.80560  Biso   1.000  O
  O67      1.0000 0.94700  0.20273  0.79809  Biso   1.000  O
  O68      1.0000 0.17270  0.13439  0.91520  Biso   1.000  O
  O69      1.0000 0.22250  0.93975  0.95220  Biso   1.000  O
  O70      1.0000 0.43490  0.97533  0.80203  Biso   1.000  O
  O71      1.0000 0.27290  0.07630  0.90698  Biso   1.000  O
  O72      1.0000 0.42230  0.02429  0.79608  Biso   1.000  O
  O73      1.0000 0.44810  0.23426  0.79322  Biso   1.000  O
  O74      1.0000 0.34230  0.13728  0.93090  Biso   1.000  O
  O75      1.0000 0.86550  0.10898  0.95210  Biso   1.000  O
  O76      1.0000 0.58810  0.12845  0.94890  Biso   1.000  O
  C82      1.0000 0.47550  0.15557  0.91310  Biso   1.000  C
  H28      1.0000 0.46990  0.13980  0.93510  Biso   1.000  H
  C83      1.0000 0.99170  0.12726  0.92270  Biso   1.000  C
  H29      1.0000 0.98940  0.11260  0.94670  Biso   1.000  H
  C84      1.0000 0.49340  0.20192  0.84980  Biso   1.000  C
  C85      1.0000 0.05800  0.15762  0.87020  Biso   1.000  C
  H30      1.0000 0.10060  0.16400  0.85850  Biso   1.000  H
  C86      1.0000 0.54020  0.16609  0.90300  Biso   1.000  C
  C87      1.0000 0.93630  0.16139  0.87010  Biso   1.000  C
  H31      1.0000 0.89610  0.17050  0.85860  Biso   1.000  H
  C88      1.0000 0.27690  0.02392  0.90140  Biso   1.000  C
  C89      1.0000 0.05450  0.13626  0.90530  Biso   1.000  C
  C90      1.0000 0.93240  0.13970  0.90490  Biso   1.000  C
  C91      1.0000 0.99820  0.16973  0.85230  Biso   1.000  C
  C92      1.0000 0.33550  0.97178  0.86870  Biso   1.000  C
  H32      1.0000 0.35480  0.95390  0.85660  Biso   1.000  H
  C93      1.0000 0.11660  0.12214  0.92620  Biso   1.000  C
  C94      1.0000 0.34950  0.15596  0.89890  Biso   1.000  C
  C95      1.0000 0.41930  0.16788  0.89160  Biso   1.000  C
  C96      1.0000 0.50170  0.22589  0.81400  Biso   1.000  C
  C97      1.0000 0.32580  0.02507  0.86610  Biso   1.000  C
  H33      1.0000 0.33870  0.04370  0.85270  Biso   1.000  H
  C98      1.0000 0.42900  0.19171  0.86000  Biso   1.000  C
  H34      1.0000 0.39090  0.20080  0.84550  Biso   1.000  H
  C99      1.0000 0.54870  0.18891  0.87080  Biso   1.000  C
  H35      1.0000 0.59300  0.19560  0.86320  Biso   1.000  H
  C100     1.0000 0.25830  0.99648  0.92010  Biso   1.000  C
  H36      1.0000 0.22520  0.99550  0.94410  Biso   1.000  H
  C101     1.0000 0.28930  0.96993  0.90320  Biso   1.000  C
  C102     1.0000 0.00220  0.19300  0.81360  Biso   1.000  C
  C103     1.0000 0.24920  0.05233  0.92120  Biso   1.000  C
  C104     1.0000 0.59950  0.14940  0.92380  Biso   1.000  C
  C105     1.0000 0.40690  0.99955  0.81280  Biso   1.000  C
  C106     1.0000 0.35520  0.99852  0.85100  Biso   1.000  C
  C107     1.0000 0.86500  0.13075  0.92530  Biso   1.000  C
  C108     1.0000 0.27110  0.94080  0.92700  Biso   1.000  C
  O77      1.0000 0.28960  0.91519  0.90110  Biso   1.000  O
  O78      1.0000 0.65600  0.15100  0.90010  Biso   1.000  O
  O79      1.0000 0.30740  0.15610  0.86540  Biso   1.000  O
  O80      1.0000 0.20260  0.04918  0.95130  Biso   1.000  O
  O81      1.0000 0.81450  0.14240  0.90970  Biso   1.000  O
  Zn15     1.0000 0.73534  0.15442  0.03587  Biso   1.000  Zn
  O82      1.0000 0.32690  0.92530  0.93560  Biso   1.000  O
  O83      1.0000 0.30080  0.17340  0.89120  Biso   1.000  O
  O84      1.0000 0.65540  0.16210  0.92200  Biso   1.000  O
  Zn16     1.0000 0.72566  0.12589  0.07258  Biso   1.000  Zn
  Zn17     1.0000 0.92502  0.76662  0.75313  Biso   1.000  Zn
  Zn18     1.0000 0.25729  0.88382  0.56606  Biso   1.000  Zn
  O85      1.0000 0.10970  0.90031  0.55000  Biso   1.000  O
  O86      1.0000 0.06050  0.79926  0.69936  Biso   1.000  O
  O87      1.0000 0.56020  0.76423  0.69440  Biso   1.000  O
  O88      1.0000 0.94700  0.79727  0.70191  Biso   1.000  O
  O89      1.0000 0.17270  0.86561  0.58480  Biso   1.000  O
  O90      1.0000 0.22250  0.06025  0.54780  Biso   1.000  O
  O91      1.0000 0.43490  0.02467  0.69797  Biso   1.000  O
  O92      1.0000 0.27290  0.92370  0.59302  Biso   1.000  O
  O93      1.0000 0.42230  0.97571  0.70392  Biso   1.000  O
  O94      1.0000 0.44810  0.76574  0.70678  Biso   1.000  O
  O95      1.0000 0.34230  0.86272  0.56910  Biso   1.000  O
  O96      1.0000 0.86550  0.89102  0.54790  Biso   1.000  O
  O97      1.0000 0.58810  0.87155  0.55110  Biso   1.000  O
  C109     1.0000 0.47550  0.84443  0.58690  Biso   1.000  C
  H37      1.0000 0.46990  0.86020  0.56490  Biso   1.000  H
  C110     1.0000 0.99170  0.87274  0.57730  Biso   1.000  C
  H38      1.0000 0.98940  0.88740  0.55330  Biso   1.000  H
  C111     1.0000 0.49340  0.79808  0.65020  Biso   1.000  C
  C112     1.0000 0.05800  0.84238  0.62980  Biso   1.000  C
  H39      1.0000 0.10060  0.83600  0.64150  Biso   1.000  H
  C113     1.0000 0.54020  0.83391  0.59700  Biso   1.000  C
  C114     1.0000 0.93630  0.83861  0.62990  Biso   1.000  C
  H40      1.0000 0.89610  0.82950  0.64140  Biso   1.000  H
  C115     1.0000 0.27690  0.97608  0.59860  Biso   1.000  C
  C116     1.0000 0.05450  0.86374  0.59470  Biso   1.000  C
  C117     1.0000 0.93240  0.86030  0.59510  Biso   1.000  C
  C118     1.0000 0.99820  0.83027  0.64770  Biso   1.000  C
  C119     1.0000 0.33550  0.02822  0.63130  Biso   1.000  C
  H41      1.0000 0.35480  0.04610  0.64340  Biso   1.000  H
  C120     1.0000 0.11660  0.87786  0.57380  Biso   1.000  C
  C121     1.0000 0.34950  0.84404  0.60110  Biso   1.000  C
  C122     1.0000 0.41930  0.83212  0.60840  Biso   1.000  C
  C123     1.0000 0.50170  0.77411  0.68600  Biso   1.000  C
  C124     1.0000 0.32580  0.97493  0.63390  Biso   1.000  C
  H42      1.0000 0.33870  0.95630  0.64730  Biso   1.000  H
  C125     1.0000 0.42900  0.80829  0.64000  Biso   1.000  C
  H43      1.0000 0.39090  0.79920  0.65450  Biso   1.000  H
  C126     1.0000 0.54870  0.81109  0.62920  Biso   1.000  C
  H44      1.0000 0.59300  0.80440  0.63680  Biso   1.000  H
  C127     1.0000 0.25830  0.00352  0.57990  Biso   1.000  C
  H45      1.0000 0.22520  0.00450  0.55590  Biso   1.000  H
  C128     1.0000 0.28930  0.03007  0.59680  Biso   1.000  C
  C129     1.0000 0.00220  0.80700  0.68640  Biso   1.000  C
  C130     1.0000 0.24920  0.94767  0.57880  Biso   1.000  C
  C131     1.0000 0.59950  0.85060  0.57620  Biso   1.000  C
  C132     1.0000 0.40690  0.00045  0.68720  Biso   1.000  C
  C133     1.0000 0.35520  0.00148  0.64900  Biso   1.000  C
  C134     1.0000 0.86500  0.86925  0.57470  Biso   1.000  C
  C135     1.0000 0.27110  0.05920  0.57300  Biso   1.000  C
  O98      1.0000 0.28960  0.08481  0.59890  Biso   1.000  O
  O99      1.0000 0.65600  0.84900  0.59990  Biso   1.000  O
  O100     1.0000 0.30740  0.84390  0.63460  Biso   1.000  O
  O101     1.0000 0.20260  0.95082  0.54870  Biso   1.000  O
  O102     1.0000 0.81450  0.85760  0.59030  Biso   1.000  O
  Zn19     1.0000 0.73534  0.84558  0.46413  Biso   1.000  Zn
  O103     1.0000 0.32690  0.07470  0.56440  Biso   1.000  O
  O104     1.0000 0.30080  0.82660  0.60880  Biso   1.000  O
  O105     1.0000 0.65540  0.83790  0.57800  Biso   1.000  O
  Zn20     1.0000 0.72566  0.87411  0.42742  Biso   1.000  Zn
  Zn21     1.0000 0.42502  0.26662  0.25313  Biso   1.000  Zn
  Zn22     1.0000 0.75729  0.38382  0.06606  Biso   1.000  Zn
  O106     1.0000 0.60970  0.40031  0.05000  Biso   1.000  O
  O107     1.0000 0.56050  0.29926  0.19936  Biso   1.000  O
  O108     1.0000 0.06020  0.26423  0.19440  Biso   1.000  O
  O109     1.0000 0.44700  0.29727  0.20191  Biso   1.000  O
  O110     1.0000 0.67270  0.36561  0.08480  Biso   1.000  O
  O111     1.0000 0.72250  0.56025  0.04780  Biso   1.000  O
  O112     1.0000 0.93490  0.52467  0.19797  Biso   1.000  O
  O113     1.0000 0.77290  0.42370  0.09302  Biso   1.000  O
  O114     1.0000 0.92230  0.47571  0.20392  Biso   1.000  O
  O115     1.0000 0.94810  0.26574  0.20678  Biso   1.000  O
  O116     1.0000 0.84230  0.36272  0.06910  Biso   1.000  O
  O117     1.0000 0.36550  0.39102  0.04790  Biso   1.000  O
  O118     1.0000 0.08810  0.37155  0.05110  Biso   1.000  O
  C136     1.0000 0.97550  0.34443  0.08690  Biso   1.000  C
  H46      1.0000 0.96990  0.36020  0.06490  Biso   1.000  H
  C137     1.0000 0.49170  0.37274  0.07730  Biso   1.000  C
  H47      1.0000 0.48940  0.38740  0.05330  Biso   1.000  H
  C138     1.0000 0.99340  0.29808  0.15020  Biso   1.000  C
  C139     1.0000 0.55800  0.34238  0.12980  Biso   1.000  C
  H48      1.0000 0.60060  0.33600  0.14150  Biso   1.000  H
  C140     1.0000 0.04020  0.33391  0.09700  Biso   1.000  C
  C141     1.0000 0.43630  0.33861  0.12990  Biso   1.000  C
  H49      1.0000 0.39610  0.32950  0.14140  Biso   1.000  H
  C142     1.0000 0.77690  0.47608  0.09860  Biso   1.000  C
  C143     1.0000 0.55450  0.36374  0.09470  Biso   1.000  C
  C144     1.0000 0.43240  0.36030  0.09510  Biso   1.000  C
  C145     1.0000 0.49820  0.33027  0.14770  Biso   1.000  C
  C146     1.0000 0.83550  0.52822  0.13130  Biso   1.000  C
  H50      1.0000 0.85480  0.54610  0.14340  Biso   1.000  H
  C147     1.0000 0.61660  0.37786  0.07380  Biso   1.000  C
  C148     1.0000 0.84950  0.34404  0.10110  Biso   1.000  C
  C149     1.0000 0.91930  0.33212  0.10840  Biso   1.000  C
  C150     1.0000 0.00170  0.27411  0.18600  Biso   1.000  C
  C151     1.0000 0.82580  0.47493  0.13390  Biso   1.000  C
  H51      1.0000 0.83870  0.45630  0.14730  Biso   1.000  H
  C152     1.0000 0.92900  0.30829  0.14000  Biso   1.000  C
  H52      1.0000 0.89090  0.29920  0.15450  Biso   1.000  H
  C153     1.0000 0.04870  0.31109  0.12920  Biso   1.000  C
  H53      1.0000 0.09300  0.30440  0.13680  Biso   1.000  H
  C154     1.0000 0.75830  0.50352  0.07990  Biso   1.000  C
  H54      1.0000 0.72520  0.50450  0.05590  Biso   1.000  H
  C155     1.0000 0.78930  0.53007  0.09680  Biso   1.000  C
  C156     1.0000 0.50220  0.30700  0.18640  Biso   1.000  C
  C157     1.0000 0.74920  0.44767  0.07880  Biso   1.000  C
  C158     1.0000 0.09950  0.35060  0.07620  Biso   1.000  C
  C159     1.0000 0.90690  0.50045  0.18720  Biso   1.000  C
  C160     1.0000 0.85520  0.50148  0.14900  Biso   1.000  C
  C161     1.0000 0.36500  0.36925  0.07470  Biso   1.000  C
  C162     1.0000 0.77110  0.55920  0.07300  Biso   1.000  C
  O119     1.0000 0.78960  0.58481  0.09890  Biso   1.000  O
  O120     1.0000 0.15600  0.34900  0.09990  Biso   1.000  O
  O121     1.0000 0.80740  0.34390  0.13460  Biso   1.000  O
  O122     1.0000 0.70260  0.45082  0.04870  Biso   1.000  O
  O123     1.0000 0.31450  0.35760  0.09030  Biso   1.000  O
  Zn23     1.0000 0.23534  0.34558  0.96413  Biso   1.000  Zn
  O124     1.0000 0.82690  0.57470  0.06440  Biso   1.000  O
  O125     1.0000 0.80080  0.32660  0.10880  Biso   1.000  O
  O126     1.0000 0.15540  0.33790  0.07800  Biso   1.000  O
  Zn24     1.0000 0.22566  0.37411  0.92742  Biso   1.000  Zn
  Zn25     1.0000 0.07498  0.23338  0.75313  Biso   1.000  Zn
  Zn26     1.0000 0.74271  0.11618  0.56606  Biso   1.000  Zn
  O127     1.0000 0.89030  0.09969  0.55000  Biso   1.000  O
  O128     1.0000 0.93950  0.20074  0.69936  Biso   1.000  O
  O129     1.0000 0.43980  0.23577  0.69440  Biso   1.000  O
  O130     1.0000 0.05300  0.20273  0.70191  Biso   1.000  O
  O131     1.0000 0.82730  0.13439  0.58480  Biso   1.000  O
  O132     1.0000 0.77750  0.93975  0.54780  Biso   1.000  O
  O133     1.0000 0.56510  0.97533  0.69797  Biso   1.000  O
  O134     1.0000 0.72710  0.07630  0.59302  Biso   1.000  O
  O135     1.0000 0.57770  0.02429  0.70392  Biso   1.000  O
  O136     1.0000 0.55190  0.23426  0.70678  Biso   1.000  O
  O137     1.0000 0.65770  0.13728  0.56910  Biso   1.000  O
  O138     1.0000 0.13450  0.10898  0.54790  Biso   1.000  O
  O139     1.0000 0.41190  0.12845  0.55110  Biso   1.000  O
  C163     1.0000 0.52450  0.15557  0.58690  Biso   1.000  C
  H55      1.0000 0.53010  0.13980  0.56490  Biso   1.000  H
  C164     1.0000 0.00830  0.12726  0.57730  Biso   1.000  C
  H56      1.0000 0.01060  0.11260  0.55330  Biso   1.000  H
  C165     1.0000 0.50660  0.20192  0.65020  Biso   1.000  C
  C166     1.0000 0.94200  0.15762  0.62980  Biso   1.000  C
  H57      1.0000 0.89940  0.16400  0.64150  Biso   1.000  H
  C167     1.0000 0.45980  0.16609  0.59700  Biso   1.000  C
  C168     1.0000 0.06370  0.16139  0.62990  Biso   1.000  C
  H58      1.0000 0.10390  0.17050  0.64140  Biso   1.000  H
  C169     1.0000 0.72310  0.02392  0.59860  Biso   1.000  C
  C170     1.0000 0.94550  0.13626  0.59470  Biso   1.000  C
  C171     1.0000 0.06760  0.13970  0.59510  Biso   1.000  C
  C172     1.0000 0.00180  0.16973  0.64770  Biso   1.000  C
  C173     1.0000 0.66450  0.97178  0.63130  Biso   1.000  C
  H59      1.0000 0.64520  0.95390  0.64340  Biso   1.000  H
  C174     1.0000 0.88340  0.12214  0.57380  Biso   1.000  C
  C175     1.0000 0.65050  0.15596  0.60110  Biso   1.000  C
  C176     1.0000 0.58070  0.16788  0.60840  Biso   1.000  C
  C177     1.0000 0.49830  0.22589  0.68600  Biso   1.000  C
  C178     1.0000 0.67420  0.02507  0.63390  Biso   1.000  C
  H60      1.0000 0.66130  0.04370  0.64730  Biso   1.000  H
  C179     1.0000 0.57100  0.19171  0.64000  Biso   1.000  C
  H61      1.0000 0.60910  0.20080  0.65450  Biso   1.000  H
  C180     1.0000 0.45130  0.18891  0.62920  Biso   1.000  C
  H62      1.0000 0.40700  0.19560  0.63680  Biso   1.000  H
  C181     1.0000 0.74170  0.99648  0.57990  Biso   1.000  C
  H63      1.0000 0.77480  0.99550  0.55590  Biso   1.000  H
  C182     1.0000 0.71070  0.96993  0.59680  Biso   1.000  C
  C183     1.0000 0.99780  0.19300  0.68640  Biso   1.000  C
  C184     1.0000 0.75080  0.05233  0.57880  Biso   1.000  C
  C185     1.0000 0.40050  0.14940  0.57620  Biso   1.000  C
  C186     1.0000 0.59310  0.99955  0.68720  Biso   1.000  C
  C187     1.0000 0.64480  0.99852  0.64900  Biso   1.000  C
  C188     1.0000 0.13500  0.13075  0.57470  Biso   1.000  C
  C189     1.0000 0.72890  0.94080  0.57300  Biso   1.000  C
  O140     1.0000 0.71040  0.91519  0.59890  Biso   1.000  O
  O141     1.0000 0.34400  0.15100  0.59990  Biso   1.000  O
  O142     1.0000 0.69260  0.15610  0.63460  Biso   1.000  O
  O143     1.0000 0.79740  0.04918  0.54870  Biso   1.000  O
  O144     1.0000 0.18550  0.14240  0.59030  Biso   1.000  O
  Zn27     1.0000 0.26466  0.15442  0.46413  Biso   1.000  Zn
  O145     1.0000 0.67310  0.92530  0.56440  Biso   1.000  O
  O146     1.0000 0.69920  0.17340  0.60880  Biso   1.000  O
  O147     1.0000 0.34460  0.16210  0.57800  Biso   1.000  O
  Zn28     1.0000 0.27434  0.12589  0.42742  Biso   1.000  Zn
  Zn29     1.0000 0.57498  0.73338  0.25313  Biso   1.000  Zn
  Zn30     1.0000 0.24271  0.61618  0.06606  Biso   1.000  Zn
  O148     1.0000 0.39030  0.59969  0.05000  Biso   1.000  O
  O149     1.0000 0.43950  0.70074  0.19936  Biso   1.000  O
  O150     1.0000 0.93980  0.73577  0.19440  Biso   1.000  O
  O151     1.0000 0.55300  0.70273  0.20191  Biso   1.000  O
  O152     1.0000 0.32730  0.63439  0.08480  Biso   1.000  O
  O153     1.0000 0.27750  0.43975  0.04780  Biso   1.000  O
  O154     1.0000 0.06510  0.47533  0.19797  Biso   1.000  O
  O155     1.0000 0.22710  0.57630  0.09302  Biso   1.000  O
  O156     1.0000 0.07770  0.52429  0.20392  Biso   1.000  O
  O157     1.0000 0.05190  0.73426  0.20678  Biso   1.000  O
  O158     1.0000 0.15770  0.63728  0.06910  Biso   1.000  O
  O159     1.0000 0.63450  0.60898  0.04790  Biso   1.000  O
  O160     1.0000 0.91190  0.62845  0.05110  Biso   1.000  O
  C190     1.0000 0.02450  0.65557  0.08690  Biso   1.000  C
  H64      1.0000 0.03010  0.63980  0.06490  Biso   1.000  H
  C191     1.0000 0.50830  0.62726  0.07730  Biso   1.000  C
  H65      1.0000 0.51060  0.61260  0.05330  Biso   1.000  H
  C192     1.0000 0.00660  0.70192  0.15020  Biso   1.000  C
  C193     1.0000 0.44200  0.65762  0.12980  Biso   1.000  C
  H66      1.0000 0.39940  0.66400  0.14150  Biso   1.000  H
  C194     1.0000 0.95980  0.66609  0.09700  Biso   1.000  C
  C195     1.0000 0.56370  0.66139  0.12990  Biso   1.000  C
  H67      1.0000 0.60390  0.67050  0.14140  Biso   1.000  H
  C196     1.0000 0.22310  0.52392  0.09860  Biso   1.000  C
  C197     1.0000 0.44550  0.63626  0.09470  Biso   1.000  C
  C198     1.0000 0.56760  0.63970  0.09510  Biso   1.000  C
  C199     1.0000 0.50180  0.66973  0.14770  Biso   1.000  C
  C200     1.0000 0.16450  0.47178  0.13130  Biso   1.000  C
  H68      1.0000 0.14520  0.45390  0.14340  Biso   1.000  H
  C201     1.0000 0.38340  0.62214  0.07380  Biso   1.000  C
  C202     1.0000 0.15050  0.65596  0.10110  Biso   1.000  C
  C203     1.0000 0.08070  0.66788  0.10840  Biso   1.000  C
  C204     1.0000 0.99830  0.72589  0.18600  Biso   1.000  C
  C205     1.0000 0.17420  0.52507  0.13390  Biso   1.000  C
  H69      1.0000 0.16130  0.54370  0.14730  Biso   1.000  H
  C206     1.0000 0.07100  0.69171  0.14000  Biso   1.000  C
  H70      1.0000 0.10910  0.70080  0.15450  Biso   1.000  H
  C207     1.0000 0.95130  0.68891  0.12920  Biso   1.000  C
  H71      1.0000 0.90700  0.69560  0.13680  Biso   1.000  H
  C208     1.0000 0.24170  0.49648  0.07990  Biso   1.000  C
  H72      1.0000 0.27480  0.49550  0.05590  Biso   1.000  H
  C209     1.0000 0.21070  0.46993  0.09680  Biso   1.000  C
  C210     1.0000 0.49780  0.69300  0.18640  Biso   1.000  C
  C211     1.0000 0.25080  0.55233  0.07880  Biso   1.000  C
  C212     1.0000 0.90050  0.64940  0.07620  Biso   1.000  C
  C213     1.0000 0.09310  0.49955  0.18720  Biso   1.000  C
  C214     1.0000 0.14480  0.49852  0.14900  Biso   1.000  C
  C215     1.0000 0.63500  0.63075  0.07470  Biso   1.000  C
  C216     1.0000 0.22890  0.44080  0.07300  Biso   1.000  C
  O161     1.0000 0.21040  0.41519  0.09890  Biso   1.000  O
  O162     1.0000 0.84400  0.65100  0.09990  Biso   1.000  O
  O163     1.0000 0.19260  0.65610  0.13460  Biso   1.000  O
  O164     1.0000 0.29740  0.54918  0.04870  Biso   1.000  O
  O165     1.0000 0.68550  0.64240  0.09030  Biso   1.000  O
  Zn31     1.0000 0.76466  0.65442  0.96413  Biso   1.000  Zn
  O166     1.0000 0.17310  0.42530  0.06440  Biso   1.000  O
  O167     1.0000 0.19920  0.67340  0.10880  Biso   1.000  O
  O168     1.0000 0.84460  0.66210  0.07800  Biso   1.000  O
  Zn32     1.0000 0.77434  0.62589  0.92742  Biso   1.000  Zn
  Zn33     1.0000 0.42502  0.73338  0.75313  Biso   1.000  Zn
  Zn34     1.0000 0.75729  0.61618  0.56606  Biso   1.000  Zn
  O169     1.0000 0.60970  0.59969  0.55000  Biso   1.000  O
  O170     1.0000 0.56050  0.70074  0.69936  Biso   1.000  O
  O171     1.0000 0.06020  0.73577  0.69440  Biso   1.000  O
  O172     1.0000 0.44700  0.70273  0.70191  Biso   1.000  O
  O173     1.0000 0.67270  0.63439  0.58480  Biso   1.000  O
  O174     1.0000 0.72250  0.43975  0.54780  Biso   1.000  O
  O175     1.0000 0.93490  0.47533  0.69797  Biso   1.000  O
  O176     1.0000 0.77290  0.57630  0.59302  Biso   1.000  O
  O177     1.0000 0.92230  0.52429  0.70392  Biso   1.000  O
  O178     1.0000 0.94810  0.73426  0.70678  Biso   1.000  O
  O179     1.0000 0.84230  0.63728  0.56910  Biso   1.000  O
  O180     1.0000 0.36550  0.60898  0.54790  Biso   1.000  O
  O181     1.0000 0.08810  0.62845  0.55110  Biso   1.000  O
  C217     1.0000 0.97550  0.65557  0.58690  Biso   1.000  C
  H73      1.0000 0.96990  0.63980  0.56490  Biso   1.000  H
  C218     1.0000 0.49170  0.62726  0.57730  Biso   1.000  C
  H74      1.0000 0.48940  0.61260  0.55330  Biso   1.000  H
  C219     1.0000 0.99340  0.70192  0.65020  Biso   1.000  C
  C220     1.0000 0.55800  0.65762  0.62980  Biso   1.000  C
  H75      1.0000 0.60060  0.66400  0.64150  Biso   1.000  H
  C221     1.0000 0.04020  0.66609  0.59700  Biso   1.000  C
  C222     1.0000 0.43630  0.66139  0.62990  Biso   1.000  C
  H76      1.0000 0.39610  0.67050  0.64140  Biso   1.000  H
  C223     1.0000 0.77690  0.52392  0.59860  Biso   1.000  C
  C224     1.0000 0.55450  0.63626  0.59470  Biso   1.000  C
  C225     1.0000 0.43240  0.63970  0.59510  Biso   1.000  C
  C226     1.0000 0.49820  0.66973  0.64770  Biso   1.000  C
  C227     1.0000 0.83550  0.47178  0.63130  Biso   1.000  C
  H77      1.0000 0.85480  0.45390  0.64340  Biso   1.000  H
  C228     1.0000 0.61660  0.62214  0.57380  Biso   1.000  C
  C229     1.0000 0.84950  0.65596  0.60110  Biso   1.000  C
  C230     1.0000 0.91930  0.66788  0.60840  Biso   1.000  C
  C231     1.0000 0.00170  0.72589  0.68600  Biso   1.000  C
  C232     1.0000 0.82580  0.52507  0.63390  Biso   1.000  C
  H78      1.0000 0.83870  0.54370  0.64730  Biso   1.000  H
  C233     1.0000 0.92900  0.69171  0.64000  Biso   1.000  C
  H79      1.0000 0.89090  0.70080  0.65450  Biso   1.000  H
  C234     1.0000 0.04870  0.68891  0.62920  Biso   1.000  C
  H80      1.0000 0.09300  0.69560  0.63680  Biso   1.000  H
  C235     1.0000 0.75830  0.49648  0.57990  Biso   1.000  C
  H81      1.0000 0.72520  0.49550  0.55590  Biso   1.000  H
  C236     1.0000 0.78930  0.46993  0.59680  Biso   1.000  C
  C237     1.0000 0.50220  0.69300  0.68640  Biso   1.000  C
  C238     1.0000 0.74920  0.55233  0.57880  Biso   1.000  C
  C239     1.0000 0.09950  0.64940  0.57620  Biso   1.000  C
  C240     1.0000 0.90690  0.49955  0.68720  Biso   1.000  C
  C241     1.0000 0.85520  0.49852  0.64900  Biso   1.000  C
  C242     1.0000 0.36500  0.63075  0.57470  Biso   1.000  C
  C243     1.0000 0.77110  0.44080  0.57300  Biso   1.000  C
  O182     1.0000 0.78960  0.41519  0.59890  Biso   1.000  O
  O183     1.0000 0.15600  0.65100  0.59990  Biso   1.000  O
  O184     1.0000 0.80740  0.65610  0.63460  Biso   1.000  O
  O185     1.0000 0.70260  0.54918  0.54870  Biso   1.000  O
  O186     1.0000 0.31450  0.64240  0.59030  Biso   1.000  O
  Zn35     1.0000 0.23534  0.65442  0.46413  Biso   1.000  Zn
  O187     1.0000 0.82690  0.42530  0.56440  Biso   1.000  O
  O188     1.0000 0.80080  0.67340  0.60880  Biso   1.000  O
  O189     1.0000 0.15540  0.66210  0.57800  Biso   1.000  O
  Zn36     1.0000 0.22566  0.62589  0.42742  Biso   1.000  Zn
  Zn37     1.0000 0.92502  0.23338  0.25313  Biso   1.000  Zn
  Zn38     1.0000 0.25729  0.11618  0.06606  Biso   1.000  Zn
  O190     1.0000 0.10970  0.09969  0.05000  Biso   1.000  O
  O191     1.0000 0.06050  0.20074  0.19936  Biso   1.000  O
  O192     1.0000 0.56020  0.23577  0.19440  Biso   1.000  O
  O193     1.0000 0.94700  0.20273  0.20191  Biso   1.000  O
  O194     1.0000 0.17270  0.13439  0.08480  Biso   1.000  O
  O195     1.0000 0.22250  0.93975  0.04780  Biso   1.000  O
  O196     1.0000 0.43490  0.97533  0.19797  Biso   1.000  O
  O197     1.0000 0.27290  0.07630  0.09302  Biso   1.000  O
  O198     1.0000 0.42230  0.02429  0.20392  Biso   1.000  O
  O199     1.0000 0.44810  0.23426  0.20678  Biso   1.000  O
  O200     1.0000 0.34230  0.13728  0.06910  Biso   1.000  O
  O201     1.0000 0.86550  0.10898  0.04790  Biso   1.000  O
  O202     1.0000 0.58810  0.12845  0.05110  Biso   1.000  O
  C244     1.0000 0.47550  0.15557  0.08690  Biso   1.000  C
  H82      1.0000 0.46990  0.13980  0.06490  Biso   1.000  H
  C245     1.0000 0.99170  0.12726  0.07730  Biso   1.000  C
  H83      1.0000 0.98940  0.11260  0.05330  Biso   1.000  H
  C246     1.0000 0.49340  0.20192  0.15020  Biso   1.000  C
  C247     1.0000 0.05800  0.15762  0.12980  Biso   1.000  C
  H84      1.0000 0.10060  0.16400  0.14150  Biso   1.000  H
  C248     1.0000 0.54020  0.16609  0.09700  Biso   1.000  C
  C249     1.0000 0.93630  0.16139  0.12990  Biso   1.000  C
  H85      1.0000 0.89610  0.17050  0.14140  Biso   1.000  H
  C250     1.0000 0.27690  0.02392  0.09860  Biso   1.000  C
  C251     1.0000 0.05450  0.13626  0.09470  Biso   1.000  C
  C252     1.0000 0.93240  0.13970  0.09510  Biso   1.000  C
  C253     1.0000 0.99820  0.16973  0.14770  Biso   1.000  C
  C254     1.0000 0.33550  0.97178  0.13130  Biso   1.000  C
  H86      1.0000 0.35480  0.95390  0.14340  Biso   1.000  H
  C255     1.0000 0.11660  0.12214  0.07380  Biso   1.000  C
  C256     1.0000 0.34950  0.15596  0.10110  Biso   1.000  C
  C257     1.0000 0.41930  0.16788  0.10840  Biso   1.000  C
  C258     1.0000 0.50170  0.22589  0.18600  Biso   1.000  C
  C259     1.0000 0.32580  0.02507  0.13390  Biso   1.000  C
  H87      1.0000 0.33870  0.04370  0.14730  Biso   1.000  H
  C260     1.0000 0.42900  0.19171  0.14000  Biso   1.000  C
  H88      1.0000 0.39090  0.20080  0.15450  Biso   1.000  H
  C261     1.0000 0.54870  0.18891  0.12920  Biso   1.000  C
  H89      1.0000 0.59300  0.19560  0.13680  Biso   1.000  H
  C262     1.0000 0.25830  0.99648  0.07990  Biso   1.000  C
  H90      1.0000 0.22520  0.99550  0.05590  Biso   1.000  H
  C263     1.0000 0.28930  0.96993  0.09680  Biso   1.000  C
  C264     1.0000 0.00220  0.19300  0.18640  Biso   1.000  C
  C265     1.0000 0.24920  0.05233  0.07880  Biso   1.000  C
  C266     1.0000 0.59950  0.14940  0.07620  Biso   1.000  C
  C267     1.0000 0.40690  0.99955  0.18720  Biso   1.000  C
  C268     1.0000 0.35520  0.99852  0.14900  Biso   1.000  C
  C269     1.0000 0.86500  0.13075  0.07470  Biso   1.000  C
  C270     1.0000 0.27110  0.94080  0.07300  Biso   1.000  C
  O203     1.0000 0.28960  0.91519  0.09890  Biso   1.000  O
  O204     1.0000 0.65600  0.15100  0.09990  Biso   1.000  O
  O205     1.0000 0.30740  0.15610  0.13460  Biso   1.000  O
  O206     1.0000 0.20260  0.04918  0.04870  Biso   1.000  O
  O207     1.0000 0.81450  0.14240  0.09030  Biso   1.000  O
  Zn39     1.0000 0.73534  0.15442  0.96413  Biso   1.000  Zn
  O208     1.0000 0.32690  0.92530  0.06440  Biso   1.000  O
  O209     1.0000 0.30080  0.17340  0.10880  Biso   1.000  O
  O210     1.0000 0.65540  0.16210  0.07800  Biso   1.000  O
  Zn40     1.0000 0.72566  0.12589  0.92742  Biso   1.000  Zn
  Zn41     1.0000 0.57498  0.26662  0.75313  Biso   1.000  Zn
  Zn42     1.0000 0.24271  0.38382  0.56606  Biso   1.000  Zn
  O211     1.0000 0.39030  0.40031  0.55000  Biso   1.000  O
  O212     1.0000 0.43950  0.29926  0.69936  Biso   1.000  O
  O213     1.0000 0.93980  0.26423  0.69440  Biso   1.000  O
  O214     1.0000 0.55300  0.29727  0.70191  Biso   1.000  O
  O215     1.0000 0.32730  0.36561  0.58480  Biso   1.000  O
  O216     1.0000 0.27750  0.56025  0.54780  Biso   1.000  O
  O217     1.0000 0.06510  0.52467  0.69797  Biso   1.000  O
  O218     1.0000 0.22710  0.42370  0.59302  Biso   1.000  O
  O219     1.0000 0.07770  0.47571  0.70392  Biso   1.000  O
  O220     1.0000 0.05190  0.26574  0.70678  Biso   1.000  O
  O221     1.0000 0.15770  0.36272  0.56910  Biso   1.000  O
  O222     1.0000 0.63450  0.39102  0.54790  Biso   1.000  O
  O223     1.0000 0.91190  0.37155  0.55110  Biso   1.000  O
  C271     1.0000 0.02450  0.34443  0.58690  Biso   1.000  C
  H91      1.0000 0.03010  0.36020  0.56490  Biso   1.000  H
  C272     1.0000 0.50830  0.37274  0.57730  Biso   1.000  C
  H92      1.0000 0.51060  0.38740  0.55330  Biso   1.000  H
  C273     1.0000 0.00660  0.29808  0.65020  Biso   1.000  C
  C274     1.0000 0.44200  0.34238  0.62980  Biso   1.000  C
  H93      1.0000 0.39940  0.33600  0.64150  Biso   1.000  H
  C275     1.0000 0.95980  0.33391  0.59700  Biso   1.000  C
  C276     1.0000 0.56370  0.33861  0.62990  Biso   1.000  C
  H94      1.0000 0.60390  0.32950  0.64140  Biso   1.000  H
  C277     1.0000 0.22310  0.47608  0.59860  Biso   1.000  C
  C278     1.0000 0.44550  0.36374  0.59470  Biso   1.000  C
  C279     1.0000 0.56760  0.36030  0.59510  Biso   1.000  C
  C280     1.0000 0.50180  0.33027  0.64770  Biso   1.000  C
  C281     1.0000 0.16450  0.52822  0.63130  Biso   1.000  C
  H95      1.0000 0.14520  0.54610  0.64340  Biso   1.000  H
  C282     1.0000 0.38340  0.37786  0.57380  Biso   1.000  C
  C283     1.0000 0.15050  0.34404  0.60110  Biso   1.000  C
  C284     1.0000 0.08070  0.33212  0.60840  Biso   1.000  C
  C285     1.0000 0.99830  0.27411  0.68600  Biso   1.000  C
  C286     1.0000 0.17420  0.47493  0.63390  Biso   1.000  C
  H96      1.0000 0.16130  0.45630  0.64730  Biso   1.000  H
  C287     1.0000 0.07100  0.30829  0.64000  Biso   1.000  C
  H97      1.0000 0.10910  0.29920  0.65450  Biso   1.000  H
  C288     1.0000 0.95130  0.31109  0.62920  Biso   1.000  C
  H98      1.0000 0.90700  0.30440  0.63680  Biso   1.000  H
  C289     1.0000 0.24170  0.50352  0.57990  Biso   1.000  C
  H99      1.0000 0.27480  0.50450  0.55590  Biso   1.000  H
  C290     1.0000 0.21070  0.53007  0.59680  Biso   1.000  C
  C291     1.0000 0.49780  0.30700  0.68640  Biso   1.000  C
  C292     1.0000 0.25080  0.44767  0.57880  Biso   1.000  C
  C293     1.0000 0.90050  0.35060  0.57620  Biso   1.000  C
  C294     1.0000 0.09310  0.50045  0.68720  Biso   1.000  C
  C295     1.0000 0.14480  0.50148  0.64900  Biso   1.000  C
  C296     1.0000 0.63500  0.36925  0.57470  Biso   1.000  C
  C297     1.0000 0.22890  0.55920  0.57300  Biso   1.000  C
  O224     1.0000 0.21040  0.58481  0.59890  Biso   1.000  O
  O225     1.0000 0.84400  0.34900  0.59990  Biso   1.000  O
  O226     1.0000 0.19260  0.34390  0.63460  Biso   1.000  O
  O227     1.0000 0.29740  0.45082  0.54870  Biso   1.000  O
  O228     1.0000 0.68550  0.35760  0.59030  Biso   1.000  O
  Zn43     1.0000 0.76466  0.34558  0.46413  Biso   1.000  Zn
  O229     1.0000 0.17310  0.57470  0.56440  Biso   1.000  O
  O230     1.0000 0.19920  0.32660  0.60880  Biso   1.000  O
  O231     1.0000 0.84460  0.33790  0.57800  Biso   1.000  O
  Zn44     1.0000 0.77434  0.37411  0.42742  Biso   1.000  Zn
  Zn45     1.0000 0.07498  0.76662  0.25313  Biso   1.000  Zn
  Zn46     1.0000 0.74271  0.88382  0.06606  Biso   1.000  Zn
  O232     1.0000 0.89030  0.90031  0.05000  Biso   1.000  O
  O233     1.0000 0.93950  0.79926  0.19936  Biso   1.000  O
  O234     1.0000 0.43980  0.76423  0.19440  Biso   1.000  O
  O235     1.0000 0.05300  0.79727  0.20191  Biso   1.000  O
  O236     1.0000 0.82730  0.86561  0.08480  Biso   1.000  O
  O237     1.0000 0.77750  0.06025  0.04780  Biso   1.000  O
  O238     1.0000 0.56510  0.02467  0.19797  Biso   1.000  O
  O239     1.0000 0.72710  0.92370  0.09302  Biso   1.000  O
  O240     1.0000 0.57770  0.97571  0.20392  Biso   1.000  O
  O241     1.0000 0.55190  0.76574  0.20678  Biso   1.000  O
  O242     1.0000 0.65770  0.86272  0.06910  Biso   1.000  O
  O243     1.0000 0.13450  0.89102  0.04790  Biso   1.000  O
  O244     1.0000 0.41190  0.87155  0.05110  Biso   1.000  O
  C298     1.0000 0.52450  0.84443  0.08690  Biso   1.000  C
  H100     1.0000 0.53010  0.86020  0.06490  Biso   1.000  H
  C299     1.0000 0.00830  0.87274  0.07730  Biso   1.000  C
  H101     1.0000 0.01060  0.88740  0.05330  Biso   1.000  H
  C300     1.0000 0.50660  0.79808  0.15020  Biso   1.000  C
  C301     1.0000 0.94200  0.84238  0.12980  Biso   1.000  C
  H102     1.0000 0.89940  0.83600  0.14150  Biso   1.000  H
  C302     1.0000 0.45980  0.83391  0.09700  Biso   1.000  C
  C303     1.0000 0.06370  0.83861  0.12990  Biso   1.000  C
  H103     1.0000 0.10390  0.82950  0.14140  Biso   1.000  H
  C304     1.0000 0.72310  0.97608  0.09860  Biso   1.000  C
  C305     1.0000 0.94550  0.86374  0.09470  Biso   1.000  C
  C306     1.0000 0.06760  0.86030  0.09510  Biso   1.000  C
  C307     1.0000 0.00180  0.83027  0.14770  Biso   1.000  C
  C308     1.0000 0.66450  0.02822  0.13130  Biso   1.000  C
  H104     1.0000 0.64520  0.04610  0.14340  Biso   1.000  H
  C309     1.0000 0.88340  0.87786  0.07380  Biso   1.000  C
  C310     1.0000 0.65050  0.84404  0.10110  Biso   1.000  C
  C311     1.0000 0.58070  0.83212  0.10840  Biso   1.000  C
  C312     1.0000 0.49830  0.77411  0.18600  Biso   1.000  C
  C313     1.0000 0.67420  0.97493  0.13390  Biso   1.000  C
  H105     1.0000 0.66130  0.95630  0.14730  Biso   1.000  H
  C314     1.0000 0.57100  0.80829  0.14000  Biso   1.000  C
  H106     1.0000 0.60910  0.79920  0.15450  Biso   1.000  H
  C315     1.0000 0.45130  0.81109  0.12920  Biso   1.000  C
  H107     1.0000 0.40700  0.80440  0.13680  Biso   1.000  H
  C316     1.0000 0.74170  0.00352  0.07990  Biso   1.000  C
  H108     1.0000 0.77480  0.00450  0.05590  Biso   1.000  H
  C317     1.0000 0.71070  0.03007  0.09680  Biso   1.000  C
  C318     1.0000 0.99780  0.80700  0.18640  Biso   1.000  C
  C319     1.0000 0.75080  0.94767  0.07880  Biso   1.000  C
  C320     1.0000 0.40050  0.85060  0.07620  Biso   1.000  C
  C321     1.0000 0.59310  0.00045  0.18720  Biso   1.000  C
  C322     1.0000 0.64480  0.00148  0.14900  Biso   1.000  C
  C323     1.0000 0.13500  0.86925  0.07470  Biso   1.000  C
  C324     1.0000 0.72890  0.05920  0.07300  Biso   1.000  C
  O245     1.0000 0.71040  0.08481  0.09890  Biso   1.000  O
  O246     1.0000 0.34400  0.84900  0.09990  Biso   1.000  O
  O247     1.0000 0.69260  0.84390  0.13460  Biso   1.000  O
  O248     1.0000 0.79740  0.95082  0.04870  Biso   1.000  O
  O249     1.0000 0.18550  0.85760  0.09030  Biso   1.000  O
  Zn47     1.0000 0.26466  0.84558  0.96413  Biso   1.000  Zn
  O250     1.0000 0.67310  0.07470  0.06440  Biso   1.000  O
  O251     1.0000 0.69920  0.82660  0.10880  Biso   1.000  O
  O252     1.0000 0.34460  0.83790  0.07800  Biso   1.000  O
  Zn48     1.0000 0.27434  0.87411  0.92742  Biso   1.000  Zn
  Zn49     1.0000 0.07498  0.23338  0.24687  Biso   1.000  Zn
  Zn50     1.0000 0.74271  0.11618  0.43394  Biso   1.000  Zn
  O253     1.0000 0.89030  0.09969  0.45000  Biso   1.000  O
  O254     1.0000 0.93950  0.20074  0.30064  Biso   1.000  O
  O255     1.0000 0.43980  0.23577  0.30560  Biso   1.000  O
  O256     1.0000 0.05300  0.20273  0.29809  Biso   1.000  O
  O257     1.0000 0.82730  0.13439  0.41520  Biso   1.000  O
  O258     1.0000 0.77750  0.93975  0.45220  Biso   1.000  O
  O259     1.0000 0.56510  0.97533  0.30203  Biso   1.000  O
  O260     1.0000 0.72710  0.07630  0.40698  Biso   1.000  O
  O261     1.0000 0.57770  0.02429  0.29608  Biso   1.000  O
  O262     1.0000 0.55190  0.23426  0.29322  Biso   1.000  O
  O263     1.0000 0.65770  0.13728  0.43090  Biso   1.000  O
  O264     1.0000 0.13450  0.10898  0.45210  Biso   1.000  O
  O265     1.0000 0.41190  0.12845  0.44890  Biso   1.000  O
  C325     1.0000 0.52450  0.15557  0.41310  Biso   1.000  C
  H109     1.0000 0.53010  0.13980  0.43510  Biso   1.000  H
  C326     1.0000 0.00830  0.12726  0.42270  Biso   1.000  C
  H110     1.0000 0.01060  0.11260  0.44670  Biso   1.000  H
  C327     1.0000 0.50660  0.20192  0.34980  Biso   1.000  C
  C328     1.0000 0.94200  0.15762  0.37020  Biso   1.000  C
  H111     1.0000 0.89940  0.16400  0.35850  Biso   1.000  H
  C329     1.0000 0.45980  0.16609  0.40300  Biso   1.000  C
  C330     1.0000 0.06370  0.16139  0.37010  Biso   1.000  C
  H112     1.0000 0.10390  0.17050  0.35860  Biso   1.000  H
  C331     1.0000 0.72310  0.02392  0.40140  Biso   1.000  C
  C332     1.0000 0.94550  0.13626  0.40530  Biso   1.000  C
  C333     1.0000 0.06760  0.13970  0.40490  Biso   1.000  C
  C334     1.0000 0.00180  0.16973  0.35230  Biso   1.000  C
  C335     1.0000 0.66450  0.97178  0.36870  Biso   1.000  C
  H113     1.0000 0.64520  0.95390  0.35660  Biso   1.000  H
  C336     1.0000 0.88340  0.12214  0.42620  Biso   1.000  C
  C337     1.0000 0.65050  0.15596  0.39890  Biso   1.000  C
  C338     1.0000 0.58070  0.16788  0.39160  Biso   1.000  C
  C339     1.0000 0.49830  0.22589  0.31400  Biso   1.000  C
  C340     1.0000 0.67420  0.02507  0.36610  Biso   1.000  C
  H114     1.0000 0.66130  0.04370  0.35270  Biso   1.000  H
  C341     1.0000 0.57100  0.19171  0.36000  Biso   1.000  C
  H115     1.0000 0.60910  0.20080  0.34550  Biso   1.000  H
  C342     1.0000 0.45130  0.18891  0.37080  Biso   1.000  C
  H116     1.0000 0.40700  0.19560  0.36320  Biso   1.000  H
  C343     1.0000 0.74170  0.99648  0.42010  Biso   1.000  C
  H117     1.0000 0.77480  0.99550  0.44410  Biso   1.000  H
  C344     1.0000 0.71070  0.96993  0.40320  Biso   1.000  C
  C345     1.0000 0.99780  0.19300  0.31360  Biso   1.000  C
  C346     1.0000 0.75080  0.05233  0.42120  Biso   1.000  C
  C347     1.0000 0.40050  0.14940  0.42380  Biso   1.000  C
  C348     1.0000 0.59310  0.99955  0.31280  Biso   1.000  C
  C349     1.0000 0.64480  0.99852  0.35100  Biso   1.000  C
  C350     1.0000 0.13500  0.13075  0.42530  Biso   1.000  C
  C351     1.0000 0.72890  0.94080  0.42700  Biso   1.000  C
  O266     1.0000 0.71040  0.91519  0.40110  Biso   1.000  O
  O267     1.0000 0.34400  0.15100  0.40010  Biso   1.000  O
  O268     1.0000 0.69260  0.15610  0.36540  Biso   1.000  O
  O269     1.0000 0.79740  0.04918  0.45130  Biso   1.000  O
  O270     1.0000 0.18550  0.14240  0.40970  Biso   1.000  O
  Zn51     1.0000 0.26466  0.15442  0.53587  Biso   1.000  Zn
  O271     1.0000 0.67310  0.92530  0.43560  Biso   1.000  O
  O272     1.0000 0.69920  0.17340  0.39120  Biso   1.000  O
  O273     1.0000 0.34460  0.16210  0.42200  Biso   1.000  O
  Zn52     1.0000 0.27434  0.12589  0.57258  Biso   1.000  Zn
  Zn53     1.0000 0.57498  0.73338  0.74687  Biso   1.000  Zn
  Zn54     1.0000 0.24271  0.61618  0.93394  Biso   1.000  Zn
  O274     1.0000 0.39030  0.59969  0.95000  Biso   1.000  O
  O275     1.0000 0.43950  0.70074  0.80064  Biso   1.000  O
  O276     1.0000 0.93980  0.73577  0.80560  Biso   1.000  O
  O277     1.0000 0.55300  0.70273  0.79809  Biso   1.000  O
  O278     1.0000 0.32730  0.63439  0.91520  Biso   1.000  O
  O279     1.0000 0.27750  0.43975  0.95220  Biso   1.000  O
  O280     1.0000 0.06510  0.47533  0.80203  Biso   1.000  O
  O281     1.0000 0.22710  0.57630  0.90698  Biso   1.000  O
  O282     1.0000 0.07770  0.52429  0.79608  Biso   1.000  O
  O283     1.0000 0.05190  0.73426  0.79322  Biso   1.000  O
  O284     1.0000 0.15770  0.63728  0.93090  Biso   1.000  O
  O285     1.0000 0.63450  0.60898  0.95210  Biso   1.000  O
  O286     1.0000 0.91190  0.62845  0.94890  Biso   1.000  O
  C352     1.0000 0.02450  0.65557  0.91310  Biso   1.000  C
  H118     1.0000 0.03010  0.63980  0.93510  Biso   1.000  H
  C353     1.0000 0.50830  0.62726  0.92270  Biso   1.000  C
  H119     1.0000 0.51060  0.61260  0.94670  Biso   1.000  H
  C354     1.0000 0.00660  0.70192  0.84980  Biso   1.000  C
  C355     1.0000 0.44200  0.65762  0.87020  Biso   1.000  C
  H120     1.0000 0.39940  0.66400  0.85850  Biso   1.000  H
  C356     1.0000 0.95980  0.66609  0.90300  Biso   1.000  C
  C357     1.0000 0.56370  0.66139  0.87010  Biso   1.000  C
  H121     1.0000 0.60390  0.67050  0.85860  Biso   1.000  H
  C358     1.0000 0.22310  0.52392  0.90140  Biso   1.000  C
  C359     1.0000 0.44550  0.63626  0.90530  Biso   1.000  C
  C360     1.0000 0.56760  0.63970  0.90490  Biso   1.000  C
  C361     1.0000 0.50180  0.66973  0.85230  Biso   1.000  C
  C362     1.0000 0.16450  0.47178  0.86870  Biso   1.000  C
  H122     1.0000 0.14520  0.45390  0.85660  Biso   1.000  H
  C363     1.0000 0.38340  0.62214  0.92620  Biso   1.000  C
  C364     1.0000 0.15050  0.65596  0.89890  Biso   1.000  C
  C365     1.0000 0.08070  0.66788  0.89160  Biso   1.000  C
  C366     1.0000 0.99830  0.72589  0.81400  Biso   1.000  C
  C367     1.0000 0.17420  0.52507  0.86610  Biso   1.000  C
  H123     1.0000 0.16130  0.54370  0.85270  Biso   1.000  H
  C368     1.0000 0.07100  0.69171  0.86000  Biso   1.000  C
  H124     1.0000 0.10910  0.70080  0.84550  Biso   1.000  H
  C369     1.0000 0.95130  0.68891  0.87080  Biso   1.000  C
  H125     1.0000 0.90700  0.69560  0.86320  Biso   1.000  H
  C370     1.0000 0.24170  0.49648  0.92010  Biso   1.000  C
  H126     1.0000 0.27480  0.49550  0.94410  Biso   1.000  H
  C371     1.0000 0.21070  0.46993  0.90320  Biso   1.000  C
  C372     1.0000 0.49780  0.69300  0.81360  Biso   1.000  C
  C373     1.0000 0.25080  0.55233  0.92120  Biso   1.000  C
  C374     1.0000 0.90050  0.64940  0.92380  Biso   1.000  C
  C375     1.0000 0.09310  0.49955  0.81280  Biso   1.000  C
  C376     1.0000 0.14480  0.49852  0.85100  Biso   1.000  C
  C377     1.0000 0.63500  0.63075  0.92530  Biso   1.000  C
  C378     1.0000 0.22890  0.44080  0.92700  Biso   1.000  C
  O287     1.0000 0.21040  0.41519  0.90110  Biso   1.000  O
  O288     1.0000 0.84400  0.65100  0.90010  Biso   1.000  O
  O289     1.0000 0.19260  0.65610  0.86540  Biso   1.000  O
  O290     1.0000 0.29740  0.54918  0.95130  Biso   1.000  O
  O291     1.0000 0.68550  0.64240  0.90970  Biso   1.000  O
  Zn55     1.0000 0.76466  0.65442  0.03587  Biso   1.000  Zn
  O292     1.0000 0.17310  0.42530  0.93560  Biso   1.000  O
  O293     1.0000 0.19920  0.67340  0.89120  Biso   1.000  O
  O294     1.0000 0.84460  0.66210  0.92200  Biso   1.000  O
  Zn56     1.0000 0.77434  0.62589  0.07258  Biso   1.000  Zn
  Zn57     1.0000 0.92502  0.76662  0.24687  Biso   1.000  Zn
  Zn58     1.0000 0.25729  0.88382  0.43394  Biso   1.000  Zn
  O295     1.0000 0.10970  0.90031  0.45000  Biso   1.000  O
  O296     1.0000 0.06050  0.79926  0.30064  Biso   1.000  O
  O297     1.0000 0.56020  0.76423  0.30560  Biso   1.000  O
  O298     1.0000 0.94700  0.79727  0.29809  Biso   1.000  O
  O299     1.0000 0.17270  0.86561  0.41520  Biso   1.000  O
  O300     1.0000 0.22250  0.06025  0.45220  Biso   1.000  O
  O301     1.0000 0.43490  0.02467  0.30203  Biso   1.000  O
  O302     1.0000 0.27290  0.92370  0.40698  Biso   1.000  O
  O303     1.0000 0.42230  0.97571  0.29608  Biso   1.000  O
  O304     1.0000 0.44810  0.76574  0.29322  Biso   1.000  O
  O305     1.0000 0.34230  0.86272  0.43090  Biso   1.000  O
  O306     1.0000 0.86550  0.89102  0.45210  Biso   1.000  O
  O307     1.0000 0.58810  0.87155  0.44890  Biso   1.000  O
  C379     1.0000 0.47550  0.84443  0.41310  Biso   1.000  C
  H127     1.0000 0.46990  0.86020  0.43510  Biso   1.000  H
  C380     1.0000 0.99170  0.87274  0.42270  Biso   1.000  C
  H128     1.0000 0.98940  0.88740  0.44670  Biso   1.000  H
  C381     1.0000 0.49340  0.79808  0.34980  Biso   1.000  C
  C382     1.0000 0.05800  0.84238  0.37020  Biso   1.000  C
  H129     1.0000 0.10060  0.83600  0.35850  Biso   1.000  H
  C383     1.0000 0.54020  0.83391  0.40300  Biso   1.000  C
  C384     1.0000 0.93630  0.83861  0.37010  Biso   1.000  C
  H130     1.0000 0.89610  0.82950  0.35860  Biso   1.000  H
  C385     1.0000 0.27690  0.97608  0.40140  Biso   1.000  C
  C386     1.0000 0.05450  0.86374  0.40530  Biso   1.000  C
  C387     1.0000 0.93240  0.86030  0.40490  Biso   1.000  C
  C388     1.0000 0.99820  0.83027  0.35230  Biso   1.000  C
  C389     1.0000 0.33550  0.02822  0.36870  Biso   1.000  C
  H131     1.0000 0.35480  0.04610  0.35660  Biso   1.000  H
  C390     1.0000 0.11660  0.87786  0.42620  Biso   1.000  C
  C391     1.0000 0.34950  0.84404  0.39890  Biso   1.000  C
  C392     1.0000 0.41930  0.83212  0.39160  Biso   1.000  C
  C393     1.0000 0.50170  0.77411  0.31400  Biso   1.000  C
  C394     1.0000 0.32580  0.97493  0.36610  Biso   1.000  C
  H132     1.0000 0.33870  0.95630  0.35270  Biso   1.000  H
  C395     1.0000 0.42900  0.80829  0.36000  Biso   1.000  C
  H133     1.0000 0.39090  0.79920  0.34550  Biso   1.000  H
  C396     1.0000 0.54870  0.81109  0.37080  Biso   1.000  C
  H134     1.0000 0.59300  0.80440  0.36320  Biso   1.000  H
  C397     1.0000 0.25830  0.00352  0.42010  Biso   1.000  C
  H135     1.0000 0.22520  0.00450  0.44410  Biso   1.000  H
  C398     1.0000 0.28930  0.03007  0.40320  Biso   1.000  C
  C399     1.0000 0.00220  0.80700  0.31360  Biso   1.000  C
  C400     1.0000 0.24920  0.94767  0.42120  Biso   1.000  C
  C401     1.0000 0.59950  0.85060  0.42380  Biso   1.000  C
  C402     1.0000 0.40690  0.00045  0.31280  Biso   1.000  C
  C403     1.0000 0.35520  0.00148  0.35100  Biso   1.000  C
  C404     1.0000 0.86500  0.86925  0.42530  Biso   1.000  C
  C405     1.0000 0.27110  0.05920  0.42700  Biso   1.000  C
  O308     1.0000 0.28960  0.08481  0.40110  Biso   1.000  O
  O309     1.0000 0.65600  0.84900  0.40010  Biso   1.000  O
  O310     1.0000 0.30740  0.84390  0.36540  Biso   1.000  O
  O311     1.0000 0.20260  0.95082  0.45130  Biso   1.000  O
  O312     1.0000 0.81450  0.85760  0.40970  Biso   1.000  O
  Zn59     1.0000 0.73534  0.84558  0.53587  Biso   1.000  Zn
  O313     1.0000 0.32690  0.07470  0.43560  Biso   1.000  O
  O314     1.0000 0.30080  0.82660  0.39120  Biso   1.000  O
  O315     1.0000 0.65540  0.83790  0.42200  Biso   1.000  O
  Zn60     1.0000 0.72566  0.87411  0.57258  Biso   1.000  Zn
  Zn61     1.0000 0.42502  0.26662  0.74687  Biso   1.000  Zn
  Zn62     1.0000 0.75729  0.38382  0.93394  Biso   1.000  Zn
  O316     1.0000 0.60970  0.40031  0.95000  Biso   1.000  O
  O317     1.0000 0.56050  0.29926  0.80064  Biso   1.000  O
  O318     1.0000 0.06020  0.26423  0.80560  Biso   1.000  O
  O319     1.0000 0.44700  0.29727  0.79809  Biso   1.000  O
  O320     1.0000 0.67270  0.36561  0.91520  Biso   1.000  O
  O321     1.0000 0.72250  0.56025  0.95220  Biso   1.000  O
  O322     1.0000 0.93490  0.52467  0.80203  Biso   1.000  O
  O323     1.0000 0.77290  0.42370  0.90698  Biso   1.000  O
  O324     1.0000 0.92230  0.47571  0.79608  Biso   1.000  O
  O325     1.0000 0.94810  0.26574  0.79322  Biso   1.000  O
  O326     1.0000 0.84230  0.36272  0.93090  Biso   1.000  O
  O327     1.0000 0.36550  0.39102  0.95210  Biso   1.000  O
  O328     1.0000 0.08810  0.37155  0.94890  Biso   1.000  O
  C406     1.0000 0.97550  0.34443  0.91310  Biso   1.000  C
  H136     1.0000 0.96990  0.36020  0.93510  Biso   1.000  H
  C407     1.0000 0.49170  0.37274  0.92270  Biso   1.000  C
  H137     1.0000 0.48940  0.38740  0.94670  Biso   1.000  H
  C408     1.0000 0.99340  0.29808  0.84980  Biso   1.000  C
  C409     1.0000 0.55800  0.34238  0.87020  Biso   1.000  C
  H138     1.0000 0.60060  0.33600  0.85850  Biso   1.000  H
  C410     1.0000 0.04020  0.33391  0.90300  Biso   1.000  C
  C411     1.0000 0.43630  0.33861  0.87010  Biso   1.000  C
  H139     1.0000 0.39610  0.32950  0.85860  Biso   1.000  H
  C412     1.0000 0.77690  0.47608  0.90140  Biso   1.000  C
  C413     1.0000 0.55450  0.36374  0.90530  Biso   1.000  C
  C414     1.0000 0.43240  0.36030  0.90490  Biso   1.000  C
  C415     1.0000 0.49820  0.33027  0.85230  Biso   1.000  C
  C416     1.0000 0.83550  0.52822  0.86870  Biso   1.000  C
  H140     1.0000 0.85480  0.54610  0.85660  Biso   1.000  H
  C417     1.0000 0.61660  0.37786  0.92620  Biso   1.000  C
  C418     1.0000 0.84950  0.34404  0.89890  Biso   1.000  C
  C419     1.0000 0.91930  0.33212  0.89160  Biso   1.000  C
  C420     1.0000 0.00170  0.27411  0.81400  Biso   1.000  C
  C421     1.0000 0.82580  0.47493  0.86610  Biso   1.000  C
  H141     1.0000 0.83870  0.45630  0.85270  Biso   1.000  H
  C422     1.0000 0.92900  0.30829  0.86000  Biso   1.000  C
  H142     1.0000 0.89090  0.29920  0.84550  Biso   1.000  H
  C423     1.0000 0.04870  0.31109  0.87080  Biso   1.000  C
  H143     1.0000 0.09300  0.30440  0.86320  Biso   1.000  H
  C424     1.0000 0.75830  0.50352  0.92010  Biso   1.000  C
  H144     1.0000 0.72520  0.50450  0.94410  Biso   1.000  H
  C425     1.0000 0.78930  0.53007  0.90320  Biso   1.000  C
  C426     1.0000 0.50220  0.30700  0.81360  Biso   1.000  C
  C427     1.0000 0.74920  0.44767  0.92120  Biso   1.000  C
  C428     1.0000 0.09950  0.35060  0.92380  Biso   1.000  C
  C429     1.0000 0.90690  0.50045  0.81280  Biso   1.000  C
  C430     1.0000 0.85520  0.50148  0.85100  Biso   1.000  C
  C431     1.0000 0.36500  0.36925  0.92530  Biso   1.000  C
  C432     1.0000 0.77110  0.55920  0.92700  Biso   1.000  C
  O329     1.0000 0.78960  0.58481  0.90110  Biso   1.000  O
  O330     1.0000 0.15600  0.34900  0.90010  Biso   1.000  O
  O331     1.0000 0.80740  0.34390  0.86540  Biso   1.000  O
  O332     1.0000 0.70260  0.45082  0.95130  Biso   1.000  O
  O333     1.0000 0.31450  0.35760  0.90970  Biso   1.000  O
  Zn63     1.0000 0.23534  0.34558  0.03587  Biso   1.000  Zn
  O334     1.0000 0.82690  0.57470  0.93560  Biso   1.000  O
  O335     1.0000 0.80080  0.32660  0.89120  Biso   1.000  O
  O336     1.0000 0.15540  0.33790  0.92200  Biso   1.000  O
  Zn64     1.0000 0.22566  0.37411  0.07258  Biso   1.000  Zn
  Zn65     1.0000 0.00000  0.53286  0.25000  Biso   1.000  Zn
  Zn66     1.0000 0.00000  0.46714  0.25000  Biso   1.000  Zn
  Zn67     1.0000 0.50000  0.03286  0.75000  Biso   1.000  Zn
  Zn68     1.0000 0.50000  0.96714  0.75000  Biso   1.000  Zn
  Zn69     1.0000 0.00000  0.46714  0.75000  Biso   1.000  Zn
  Zn70     1.0000 0.50000  0.96714  0.25000  Biso   1.000  Zn
  Zn71     1.0000 0.00000  0.53286  0.75000  Biso   1.000  Zn
  Zn72     1.0000 0.50000  0.03286  0.25000  Biso   1.000  Zn
  Zn73     1.0000 0.70084  0.40744  0.50000  Biso   1.000  Zn
  Zn74     1.0000 0.34336  0.42527  0.50000  Biso   1.000  Zn
  Zn75     1.0000 0.86304  0.39708  0.50000  Biso   1.000  Zn
  O337     1.0000 0.77570  0.37897  0.50000  Biso   1.000  O
  O338     1.0000 0.25550  0.39569  0.50000  Biso   1.000  O
  O339     1.0000 0.74420  0.31060  0.50000  Biso   1.000  O
  Zn76     1.0000 0.20084  0.90744  0.00000  Biso   1.000  Zn
  Zn77     1.0000 0.84336  0.92527  0.00000  Biso   1.000  Zn
  Zn78     1.0000 0.36304  0.89708  0.00000  Biso   1.000  Zn
  O340     1.0000 0.27570  0.87897  0.00000  Biso   1.000  O
  O341     1.0000 0.75550  0.89569  0.00000  Biso   1.000  O
  O342     1.0000 0.24420  0.81060  0.00000  Biso   1.000  O
  Zn79     1.0000 0.29916  0.59256  0.50000  Biso   1.000  Zn
  Zn80     1.0000 0.65664  0.57473  0.50000  Biso   1.000  Zn
  Zn81     1.0000 0.13696  0.60292  0.50000  Biso   1.000  Zn
  O343     1.0000 0.22430  0.62103  0.50000  Biso   1.000  O
  O344     1.0000 0.74450  0.60431  0.50000  Biso   1.000  O
  O345     1.0000 0.25580  0.68940  0.50000  Biso   1.000  O
  Zn82     1.0000 0.79916  0.09256  0.00000  Biso   1.000  Zn
  Zn83     1.0000 0.15664  0.07473  0.00000  Biso   1.000  Zn
  Zn84     1.0000 0.63696  0.10292  0.00000  Biso   1.000  Zn
  O346     1.0000 0.72430  0.12103  0.00000  Biso   1.000  O
  O347     1.0000 0.24450  0.10431  0.00000  Biso   1.000  O
  O348     1.0000 0.75580  0.18940  0.00000  Biso   1.000  O
  Zn85     1.0000 0.79916  0.90744  0.50000  Biso   1.000  Zn
  Zn86     1.0000 0.15664  0.92527  0.50000  Biso   1.000  Zn
  Zn87     1.0000 0.63696  0.89708  0.50000  Biso   1.000  Zn
  O349     1.0000 0.72430  0.87897  0.50000  Biso   1.000  O
  O350     1.0000 0.24450  0.89569  0.50000  Biso   1.000  O
  O351     1.0000 0.75580  0.81060  0.50000  Biso   1.000  O
  Zn88     1.0000 0.29916  0.40744  0.00000  Biso   1.000  Zn
  Zn89     1.0000 0.65664  0.42527  0.00000  Biso   1.000  Zn
  Zn90     1.0000 0.13696  0.39708  0.00000  Biso   1.000  Zn
  O352     1.0000 0.22430  0.37897  0.00000  Biso   1.000  O
  O353     1.0000 0.74450  0.39569  0.00000  Biso   1.000  O
  O354     1.0000 0.25580  0.31060  0.00000  Biso   1.000  O
  Zn91     1.0000 0.20084  0.09256  0.50000  Biso   1.000  Zn
  Zn92     1.0000 0.84336  0.07473  0.50000  Biso   1.000  Zn
  Zn93     1.0000 0.36304  0.10292  0.50000  Biso   1.000  Zn
  O355     1.0000 0.27570  0.12103  0.50000  Biso   1.000  O
  O356     1.0000 0.75550  0.10431  0.50000  Biso   1.000  O
  O357     1.0000 0.24420  0.18940  0.50000  Biso   1.000  O
  Zn94     1.0000 0.70084  0.59256  0.00000  Biso   1.000  Zn
  Zn95     1.0000 0.34336  0.57473  0.00000  Biso   1.000  Zn
  Zn96     1.0000 0.86304  0.60292  0.00000  Biso   1.000  Zn
  O358     1.0000 0.77570  0.62103  0.00000  Biso   1.000  O
  O359     1.0000 0.25550  0.60431  0.00000  Biso   1.000  O
  O360     1.0000 0.74420  0.68940  0.00000  Biso   1.000  O
