data_image0
_cell_length_a       23.7886
_cell_length_b       33.5635
_cell_length_c       20.5333
_cell_angle_alpha    90
_cell_angle_beta     92.438
_cell_angle_gamma    90

_symmetry_space_group_name_H-M    "P 1"
_symmetry_int_tables_number       1

loop_
  _symmetry_equiv_pos_as_xyz
  'x, y, z'

loop_
  _atom_site_label
  _atom_site_occupancy
  _atom_site_fract_x
  _atom_site_fract_y
  _atom_site_fract_z
  _atom_site_thermal_displace_type
  _atom_site_B_iso_or_equiv
  _atom_site_type_symbol
  Fe1      1.0000 0.82484  0.76570  0.30873  Biso   1.000  Fe
  Fe2      1.0000 0.91128  0.78225  0.07427  Biso   1.000  Fe
  Fe3      1.0000 0.83264  0.66411  0.28773  Biso   1.000  Fe
  Fe4      1.0000 0.91172  0.68008  0.04727  Biso   1.000  Fe
  Fe5      1.0000 0.81221  0.72399  0.15001  Biso   1.000  Fe
  Fe6      1.0000 0.92371  0.72194  0.20728  Biso   1.000  Fe
  K1       1.0000 0.84001  0.75515  0.91160  Biso   1.000  K
  K2       1.0000 0.94577  0.72116  0.40267  Biso   1.000  K
  K3       1.0000 0.84162  0.08808  0.06520  Biso   1.000  K
  K4       1.0000 0.81550  0.76770  0.52460  Biso   1.000  K
  K5       1.0000 0.81190  0.74440  0.49450  Biso   1.000  K
  Li1      1.0000 0.70250  0.04180  0.00490  Biso   1.000  Li
  Li2      1.0000 0.78630  0.98450  0.04840  Biso   1.000  Li
  O1       1.0000 0.74990  0.76720  0.35550  Biso   1.000  O
  O2       1.0000 0.68100  0.80350  0.39390  Biso   1.000  O
  O3       1.0000 0.85980  0.78770  0.39430  Biso   1.000  O
  O4       1.0000 0.89510  0.83930  0.44980  Biso   1.000  O
  O5       1.0000 0.70850  0.99510  0.06710  Biso   1.000  O
  O6       1.0000 0.63190  0.99300  0.12460  Biso   1.000  O
  O7       1.0000 0.85070  0.00370  0.10240  Biso   1.000  O
  O8       1.0000 0.88960  0.01470  0.19970  Biso   1.000  O
  O9       1.0000 0.95020  0.80950  0.99690  Biso   1.000  O
  O10      1.0000 0.96200  0.86540  0.94040  Biso   1.000  O
  O11      1.0000 0.98340  0.78750  0.12950  Biso   1.000  O
  O12      1.0000 0.03950  0.82610  0.19300  Biso   1.000  O
  O13      1.0000 0.81100  0.63650  0.37360  Biso   1.000  O
  O14      1.0000 0.77080  0.58350  0.41670  Biso   1.000  O
  O15      1.0000 0.91530  0.65480  0.31360  Biso   1.000  O
  O16      1.0000 0.98630  0.61210  0.32690  Biso   1.000  O
  O17      1.0000 0.65580  0.45670  0.09510  Biso   1.000  O
  O18      1.0000 0.71440  0.46620  0.01560  Biso   1.000  O
  O19      1.0000 0.81290  0.41070  0.05630  Biso   1.000  O
  O20      1.0000 0.87390  0.39220  0.13360  Biso   1.000  O
  O21      1.0000 0.88350  0.67860  0.95180  Biso   1.000  O
  O22      1.0000 0.85090  0.64330  0.86590  Biso   1.000  O
  O23      1.0000 0.98650  0.65900  0.01590  Biso   1.000  O
  O24      1.0000 0.04690  0.60820  0.01570  Biso   1.000  O
  O25      1.0000 0.74700  0.80970  0.02300  Biso   1.000  O
  O26      1.0000 0.83730  0.79050  0.03100  Biso   1.000  O
  O27      1.0000 0.77100  0.76060  0.08920  Biso   1.000  O
  O28      1.0000 0.75390  0.65990  0.25500  Biso   1.000  O
  O29      1.0000 0.74230  0.69110  0.15810  Biso   1.000  O
  O30      1.0000 0.68110  0.64720  0.18890  Biso   1.000  O
  O31      1.0000 0.88470  0.75308  0.14340  Biso   1.000  O
  O32      1.0000 0.85700  0.69260  0.21660  Biso   1.000  O
  O33      1.0000 0.78790  0.75860  0.22500  Biso   1.000  O
  O34      1.0000 0.83610  0.68900  0.07540  Biso   1.000  O
  O35      1.0000 0.94870  0.68350  0.13560  Biso   1.000  O
  O36      1.0000 0.93570  0.73450  0.02660  Biso   1.000  O
  O37      1.0000 0.82780  0.71140  0.34560  Biso   1.000  O
  O38      1.0000 0.90130  0.75870  0.27870  Biso   1.000  O
  O39      1.0000 0.93870  0.77120  0.52000  Biso   1.000  O
  N1       1.0000 0.80310  0.83270  0.30460  Biso   1.000  N
  N2       1.0000 0.77060  0.95340  0.15710  Biso   1.000  N
  N3       1.0000 0.91010  0.84840  0.09930  Biso   1.000  N
  N4       1.0000 0.84030  0.59760  0.26600  Biso   1.000  N
  N5       1.0000 0.80050  0.48650  0.10380  Biso   1.000  N
  N6       1.0000 0.89400  0.61270  0.03210  Biso   1.000  N
  C1       1.0000 0.86130  0.84310  0.20460  Biso   1.000  C
  H1       1.0000 0.89210  0.85520  0.23170  Biso   1.000  H
  H2       1.0000 0.86820  0.81400  0.20230  Biso   1.000  H
  C2       1.0000 0.80450  0.85090  0.23580  Biso   1.000  C
  H3       1.0000 0.77490  0.83700  0.20820  Biso   1.000  H
  C3       1.0000 0.78990  0.89530  0.23490  Biso   1.000  C
  H4       1.0000 0.75180  0.89930  0.25140  Biso   1.000  H
  H5       1.0000 0.81710  0.91000  0.26370  Biso   1.000  H
  C4       1.0000 0.79190  0.91130  0.16570  Biso   1.000  C
  H6       1.0000 0.76580  0.89420  0.13850  Biso   1.000  H
  C5       1.0000 0.84890  0.90560  0.13960  Biso   1.000  C
  H7       1.0000 0.87770  0.91880  0.16850  Biso   1.000  H
  H8       1.0000 0.85040  0.91760  0.09560  Biso   1.000  H
  C6       1.0000 0.86040  0.86080  0.13630  Biso   1.000  C
  H9       1.0000 0.82690  0.84890  0.11250  Biso   1.000  H
  C7       1.0000 0.74520  0.83650  0.32760  Biso   1.000  C
  H10      1.0000 0.71950  0.84240  0.28970  Biso   1.000  H
  H11      1.0000 0.74400  0.85940  0.35780  Biso   1.000  H
  C8       1.0000 0.72370  0.80020  0.36180  Biso   1.000  C
  C9       1.0000 0.84430  0.85280  0.35130  Biso   1.000  C
  H12      1.0000 0.82540  0.87530  0.37230  Biso   1.000  H
  H13      1.0000 0.87570  0.86370  0.32660  Biso   1.000  H
  C10      1.0000 0.86800  0.82510  0.40320  Biso   1.000  C
  C11      1.0000 0.70920  0.95610  0.16340  Biso   1.000  C
  H14      1.0000 0.69230  0.92930  0.15750  Biso   1.000  H
  H15      1.0000 0.70120  0.96550  0.20780  Biso   1.000  H
  C12      1.0000 0.68300  0.98360  0.11510  Biso   1.000  C
  C13      1.0000 0.80240  0.98190  0.19490  Biso   1.000  C
  H16      1.0000 0.81710  0.96860  0.23510  Biso   1.000  H
  H17      1.0000 0.77630  0.00310  0.20830  Biso   1.000  H
  C14      1.0000 0.85040  0.00120  0.16350  Biso   1.000  C
  C15      1.0000 0.90910  0.86860  0.03630  Biso   1.000  C
  H18      1.0000 0.92460  0.89580  0.04200  Biso   1.000  H
  H19      1.0000 0.86970  0.87100  0.01920  Biso   1.000  H
  C16      1.0000 0.94250  0.84650  0.98840  Biso   1.000  C
  C17      1.0000 0.96530  0.85750  0.13560  Biso   1.000  C
  H20      1.0000 0.98850  0.87430  0.10760  Biso   1.000  H
  H21      1.0000 0.95750  0.87300  0.17520  Biso   1.000  H
  C18      1.0000 0.99800  0.82120  0.15490  Biso   1.000  C
  C19      1.0000 0.87190  0.60360  0.15150  Biso   1.000  C
  H22      1.0000 0.90990  0.59320  0.16330  Biso   1.000  H
  H23      1.0000 0.87240  0.63280  0.15720  Biso   1.000  H
  C20      1.0000 0.82820  0.58470  0.19630  Biso   1.000  C
  H24      1.0000 0.79050  0.59570  0.18250  Biso   1.000  H
  C21      1.0000 0.82530  0.54000  0.18770  Biso   1.000  C
  H25      1.0000 0.79650  0.52890  0.21610  Biso   1.000  H
  H26      1.0000 0.86200  0.52810  0.20090  Biso   1.000  H
  C22      1.0000 0.81010  0.52920  0.11570  Biso   1.000  C
  H27      1.0000 0.77360  0.54280  0.10430  Biso   1.000  H
  C23      1.0000 0.85300  0.54660  0.07100  Biso   1.000  C
  H28      1.0000 0.84250  0.53990  0.02520  Biso   1.000  H
  H29      1.0000 0.89050  0.53500  0.08180  Biso   1.000  H
  C24      1.0000 0.85560  0.59290  0.07920  Biso   1.000  C
  H30      1.0000 0.81680  0.60340  0.06950  Biso   1.000  H
  C25      1.0000 0.79710  0.57950  0.30620  Biso   1.000  C
  H31      1.0000 0.80630  0.55110  0.31390  Biso   1.000  H
  H32      1.0000 0.76000  0.58080  0.28240  Biso   1.000  H
  C26      1.0000 0.79350  0.60050  0.37050  Biso   1.000  C
  C27      1.0000 0.89820  0.58490  0.29140  Biso   1.000  C
  H33      1.0000 0.91660  0.56950  0.25710  Biso   1.000  H
  H34      1.0000 0.89420  0.56710  0.32940  Biso   1.000  H
  C28      1.0000 0.93590  0.62020  0.31160  Biso   1.000  C
  C29      1.0000 0.74710  0.47330  0.12740  Biso   1.000  C
  H35      1.0000 0.73240  0.49420  0.15610  Biso   1.000  H
  H36      1.0000 0.75360  0.44910  0.15420  Biso   1.000  H
  C30      1.0000 0.70380  0.46440  0.07540  Biso   1.000  C
  C31      1.0000 0.84700  0.46090  0.13210  Biso   1.000  C
  H37      1.0000 0.84490  0.46010  0.18010  Biso   1.000  H
  H38      1.0000 0.88380  0.47250  0.12150  Biso   1.000  H
  C32      1.0000 0.84230  0.41780  0.10430  Biso   1.000  C
  C33      1.0000 0.86790  0.60920  0.96530  Biso   1.000  C
  H39      1.0000 0.88760  0.58790  0.94190  Biso   1.000  H
  H40      1.0000 0.82830  0.60070  0.96890  Biso   1.000  H
  C34      1.0000 0.86870  0.64600  0.92580  Biso   1.000  C
  C35      1.0000 0.95030  0.59350  0.03510  Biso   1.000  C
  H41      1.0000 0.95010  0.57120  0.00350  Biso   1.000  H
  H42      1.0000 0.95730  0.58210  0.07920  Biso   1.000  H
  C36      1.0000 0.99880  0.62190  0.02030  Biso   1.000  C
  C37      1.0000 0.78450  0.78710  0.04780  Biso   1.000  C
  C38      1.0000 0.72650  0.66710  0.20090  Biso   1.000  C
  Fe7      1.0000 0.32484  0.26570  0.30873  Biso   1.000  Fe
  Fe8      1.0000 0.41128  0.28225  0.07427  Biso   1.000  Fe
  Fe9      1.0000 0.33264  0.16411  0.28773  Biso   1.000  Fe
  Fe10     1.0000 0.41172  0.18008  0.04727  Biso   1.000  Fe
  Fe11     1.0000 0.31221  0.22399  0.15001  Biso   1.000  Fe
  Fe12     1.0000 0.42371  0.22194  0.20728  Biso   1.000  Fe
  K6       1.0000 0.34001  0.25515  0.91160  Biso   1.000  K
  K7       1.0000 0.44577  0.22116  0.40267  Biso   1.000  K
  K8       1.0000 0.34162  0.58808  0.06520  Biso   1.000  K
  K9       1.0000 0.31550  0.26770  0.52460  Biso   1.000  K
  K10      1.0000 0.31190  0.24440  0.49450  Biso   1.000  K
  Li3      1.0000 0.20250  0.54180  0.00490  Biso   1.000  Li
  Li4      1.0000 0.28630  0.48450  0.04840  Biso   1.000  Li
  O40      1.0000 0.24990  0.26720  0.35550  Biso   1.000  O
  O41      1.0000 0.18100  0.30350  0.39390  Biso   1.000  O
  O42      1.0000 0.35980  0.28770  0.39430  Biso   1.000  O
  O43      1.0000 0.39510  0.33930  0.44980  Biso   1.000  O
  O44      1.0000 0.20850  0.49510  0.06710  Biso   1.000  O
  O45      1.0000 0.13190  0.49300  0.12460  Biso   1.000  O
  O46      1.0000 0.35070  0.50370  0.10240  Biso   1.000  O
  O47      1.0000 0.38960  0.51470  0.19970  Biso   1.000  O
  O48      1.0000 0.45020  0.30950  0.99690  Biso   1.000  O
  O49      1.0000 0.46200  0.36540  0.94040  Biso   1.000  O
  O50      1.0000 0.48340  0.28750  0.12950  Biso   1.000  O
  O51      1.0000 0.53950  0.32610  0.19300  Biso   1.000  O
  O52      1.0000 0.31100  0.13650  0.37360  Biso   1.000  O
  O53      1.0000 0.27080  0.08350  0.41670  Biso   1.000  O
  O54      1.0000 0.41530  0.15480  0.31360  Biso   1.000  O
  O55      1.0000 0.48630  0.11210  0.32690  Biso   1.000  O
  O56      1.0000 0.15580  0.95670  0.09510  Biso   1.000  O
  O57      1.0000 0.21440  0.96620  0.01560  Biso   1.000  O
  O58      1.0000 0.31290  0.91070  0.05630  Biso   1.000  O
  O59      1.0000 0.37390  0.89220  0.13360  Biso   1.000  O
  O60      1.0000 0.38350  0.17860  0.95180  Biso   1.000  O
  O61      1.0000 0.35090  0.14330  0.86590  Biso   1.000  O
  O62      1.0000 0.48650  0.15900  0.01590  Biso   1.000  O
  O63      1.0000 0.54690  0.10820  0.01570  Biso   1.000  O
  O64      1.0000 0.24700  0.30970  0.02300  Biso   1.000  O
  O65      1.0000 0.33730  0.29050  0.03100  Biso   1.000  O
  O66      1.0000 0.27100  0.26060  0.08920  Biso   1.000  O
  O67      1.0000 0.25390  0.15990  0.25500  Biso   1.000  O
  O68      1.0000 0.24230  0.19110  0.15810  Biso   1.000  O
  O69      1.0000 0.18110  0.14720  0.18890  Biso   1.000  O
  O70      1.0000 0.38470  0.25308  0.14340  Biso   1.000  O
  O71      1.0000 0.35700  0.19260  0.21660  Biso   1.000  O
  O72      1.0000 0.28790  0.25860  0.22500  Biso   1.000  O
  O73      1.0000 0.33610  0.18900  0.07540  Biso   1.000  O
  O74      1.0000 0.44870  0.18350  0.13560  Biso   1.000  O
  O75      1.0000 0.43570  0.23450  0.02660  Biso   1.000  O
  O76      1.0000 0.32780  0.21140  0.34560  Biso   1.000  O
  O77      1.0000 0.40130  0.25870  0.27870  Biso   1.000  O
  O78      1.0000 0.43870  0.27120  0.52000  Biso   1.000  O
  N7       1.0000 0.30310  0.33270  0.30460  Biso   1.000  N
  N8       1.0000 0.27060  0.45340  0.15710  Biso   1.000  N
  N9       1.0000 0.41010  0.34840  0.09930  Biso   1.000  N
  N10      1.0000 0.34030  0.09760  0.26600  Biso   1.000  N
  N11      1.0000 0.30050  0.98650  0.10380  Biso   1.000  N
  N12      1.0000 0.39400  0.11270  0.03210  Biso   1.000  N
  C39      1.0000 0.36130  0.34310  0.20460  Biso   1.000  C
  H43      1.0000 0.39210  0.35520  0.23170  Biso   1.000  H
  H44      1.0000 0.36820  0.31400  0.20230  Biso   1.000  H
  C40      1.0000 0.30450  0.35090  0.23580  Biso   1.000  C
  H45      1.0000 0.27490  0.33700  0.20820  Biso   1.000  H
  C41      1.0000 0.28990  0.39530  0.23490  Biso   1.000  C
  H46      1.0000 0.25180  0.39930  0.25140  Biso   1.000  H
  H47      1.0000 0.31710  0.41000  0.26370  Biso   1.000  H
  C42      1.0000 0.29190  0.41130  0.16570  Biso   1.000  C
  H48      1.0000 0.26580  0.39420  0.13850  Biso   1.000  H
  C43      1.0000 0.34890  0.40560  0.13960  Biso   1.000  C
  H49      1.0000 0.37770  0.41880  0.16850  Biso   1.000  H
  H50      1.0000 0.35040  0.41760  0.09560  Biso   1.000  H
  C44      1.0000 0.36040  0.36080  0.13630  Biso   1.000  C
  H51      1.0000 0.32690  0.34890  0.11250  Biso   1.000  H
  C45      1.0000 0.24520  0.33650  0.32760  Biso   1.000  C
  H52      1.0000 0.21950  0.34240  0.28970  Biso   1.000  H
  H53      1.0000 0.24400  0.35940  0.35780  Biso   1.000  H
  C46      1.0000 0.22370  0.30020  0.36180  Biso   1.000  C
  C47      1.0000 0.34430  0.35280  0.35130  Biso   1.000  C
  H54      1.0000 0.32540  0.37530  0.37230  Biso   1.000  H
  H55      1.0000 0.37570  0.36370  0.32660  Biso   1.000  H
  C48      1.0000 0.36800  0.32510  0.40320  Biso   1.000  C
  C49      1.0000 0.20920  0.45610  0.16340  Biso   1.000  C
  H56      1.0000 0.19230  0.42930  0.15750  Biso   1.000  H
  H57      1.0000 0.20120  0.46550  0.20780  Biso   1.000  H
  C50      1.0000 0.18300  0.48360  0.11510  Biso   1.000  C
  C51      1.0000 0.30240  0.48190  0.19490  Biso   1.000  C
  H58      1.0000 0.31710  0.46860  0.23510  Biso   1.000  H
  H59      1.0000 0.27630  0.50310  0.20830  Biso   1.000  H
  C52      1.0000 0.35040  0.50120  0.16350  Biso   1.000  C
  C53      1.0000 0.40910  0.36860  0.03630  Biso   1.000  C
  H60      1.0000 0.42460  0.39580  0.04200  Biso   1.000  H
  H61      1.0000 0.36970  0.37100  0.01920  Biso   1.000  H
  C54      1.0000 0.44250  0.34650  0.98840  Biso   1.000  C
  C55      1.0000 0.46530  0.35750  0.13560  Biso   1.000  C
  H62      1.0000 0.48850  0.37430  0.10760  Biso   1.000  H
  H63      1.0000 0.45750  0.37300  0.17520  Biso   1.000  H
  C56      1.0000 0.49800  0.32120  0.15490  Biso   1.000  C
  C57      1.0000 0.37190  0.10360  0.15150  Biso   1.000  C
  H64      1.0000 0.40990  0.09320  0.16330  Biso   1.000  H
  H65      1.0000 0.37240  0.13280  0.15720  Biso   1.000  H
  C58      1.0000 0.32820  0.08470  0.19630  Biso   1.000  C
  H66      1.0000 0.29050  0.09570  0.18250  Biso   1.000  H
  C59      1.0000 0.32530  0.04000  0.18770  Biso   1.000  C
  H67      1.0000 0.29650  0.02890  0.21610  Biso   1.000  H
  H68      1.0000 0.36200  0.02810  0.20090  Biso   1.000  H
  C60      1.0000 0.31010  0.02920  0.11570  Biso   1.000  C
  H69      1.0000 0.27360  0.04280  0.10430  Biso   1.000  H
  C61      1.0000 0.35300  0.04660  0.07100  Biso   1.000  C
  H70      1.0000 0.34250  0.03990  0.02520  Biso   1.000  H
  H71      1.0000 0.39050  0.03500  0.08180  Biso   1.000  H
  C62      1.0000 0.35560  0.09290  0.07920  Biso   1.000  C
  H72      1.0000 0.31680  0.10340  0.06950  Biso   1.000  H
  C63      1.0000 0.29710  0.07950  0.30620  Biso   1.000  C
  H73      1.0000 0.30630  0.05110  0.31390  Biso   1.000  H
  H74      1.0000 0.26000  0.08080  0.28240  Biso   1.000  H
  C64      1.0000 0.29350  0.10050  0.37050  Biso   1.000  C
  C65      1.0000 0.39820  0.08490  0.29140  Biso   1.000  C
  H75      1.0000 0.41660  0.06950  0.25710  Biso   1.000  H
  H76      1.0000 0.39420  0.06710  0.32940  Biso   1.000  H
  C66      1.0000 0.43590  0.12020  0.31160  Biso   1.000  C
  C67      1.0000 0.24710  0.97330  0.12740  Biso   1.000  C
  H77      1.0000 0.23240  0.99420  0.15610  Biso   1.000  H
  H78      1.0000 0.25360  0.94910  0.15420  Biso   1.000  H
  C68      1.0000 0.20380  0.96440  0.07540  Biso   1.000  C
  C69      1.0000 0.34700  0.96090  0.13210  Biso   1.000  C
  H79      1.0000 0.34490  0.96010  0.18010  Biso   1.000  H
  H80      1.0000 0.38380  0.97250  0.12150  Biso   1.000  H
  C70      1.0000 0.34230  0.91780  0.10430  Biso   1.000  C
  C71      1.0000 0.36790  0.10920  0.96530  Biso   1.000  C
  H81      1.0000 0.38760  0.08790  0.94190  Biso   1.000  H
  H82      1.0000 0.32830  0.10070  0.96890  Biso   1.000  H
  C72      1.0000 0.36870  0.14600  0.92580  Biso   1.000  C
  C73      1.0000 0.45030  0.09350  0.03510  Biso   1.000  C
  H83      1.0000 0.45010  0.07120  0.00350  Biso   1.000  H
  H84      1.0000 0.45730  0.08210  0.07920  Biso   1.000  H
  C74      1.0000 0.49880  0.12190  0.02030  Biso   1.000  C
  C75      1.0000 0.28450  0.28710  0.04780  Biso   1.000  C
  C76      1.0000 0.22650  0.16710  0.20090  Biso   1.000  C
  Fe13     1.0000 0.17516  0.76570  0.19127  Biso   1.000  Fe
  Fe14     1.0000 0.08872  0.78225  0.42573  Biso   1.000  Fe
  Fe15     1.0000 0.16736  0.66411  0.21227  Biso   1.000  Fe
  Fe16     1.0000 0.08828  0.68008  0.45273  Biso   1.000  Fe
  Fe17     1.0000 0.18779  0.72399  0.34999  Biso   1.000  Fe
  Fe18     1.0000 0.07629  0.72194  0.29272  Biso   1.000  Fe
  K11      1.0000 0.15999  0.75515  0.58840  Biso   1.000  K
  K12      1.0000 0.05423  0.72116  0.09733  Biso   1.000  K
  K13      1.0000 0.15838  0.08808  0.43480  Biso   1.000  K
  K14      1.0000 0.18450  0.76770  0.97540  Biso   1.000  K
  K15      1.0000 0.18810  0.74440  0.00550  Biso   1.000  K
  Li5      1.0000 0.29750  0.04180  0.49510  Biso   1.000  Li
  Li6      1.0000 0.21370  0.98450  0.45160  Biso   1.000  Li
  O79      1.0000 0.25010  0.76720  0.14450  Biso   1.000  O
  O80      1.0000 0.31900  0.80350  0.10610  Biso   1.000  O
  O81      1.0000 0.14020  0.78770  0.10570  Biso   1.000  O
  O82      1.0000 0.10490  0.83930  0.05020  Biso   1.000  O
  O83      1.0000 0.29150  0.99510  0.43290  Biso   1.000  O
  O84      1.0000 0.36810  0.99300  0.37540  Biso   1.000  O
  O85      1.0000 0.14930  0.00370  0.39760  Biso   1.000  O
  O86      1.0000 0.11040  0.01470  0.30030  Biso   1.000  O
  O87      1.0000 0.04980  0.80950  0.50310  Biso   1.000  O
  O88      1.0000 0.03800  0.86540  0.55960  Biso   1.000  O
  O89      1.0000 0.01660  0.78750  0.37050  Biso   1.000  O
  O90      1.0000 0.96050  0.82610  0.30700  Biso   1.000  O
  O91      1.0000 0.18900  0.63650  0.12640  Biso   1.000  O
  O92      1.0000 0.22920  0.58350  0.08330  Biso   1.000  O
  O93      1.0000 0.08470  0.65480  0.18640  Biso   1.000  O
  O94      1.0000 0.01370  0.61210  0.17310  Biso   1.000  O
  O95      1.0000 0.34420  0.45670  0.40490  Biso   1.000  O
  O96      1.0000 0.28560  0.46620  0.48440  Biso   1.000  O
  O97      1.0000 0.18710  0.41070  0.44370  Biso   1.000  O
  O98      1.0000 0.12610  0.39220  0.36640  Biso   1.000  O
  O99      1.0000 0.11650  0.67860  0.54820  Biso   1.000  O
  O100     1.0000 0.14910  0.64330  0.63410  Biso   1.000  O
  O101     1.0000 0.01350  0.65900  0.48410  Biso   1.000  O
  O102     1.0000 0.95310  0.60820  0.48430  Biso   1.000  O
  O103     1.0000 0.25300  0.80970  0.47700  Biso   1.000  O
  O104     1.0000 0.16270  0.79050  0.46900  Biso   1.000  O
  O105     1.0000 0.22900  0.76060  0.41080  Biso   1.000  O
  O106     1.0000 0.24610  0.65990  0.24500  Biso   1.000  O
  O107     1.0000 0.25770  0.69110  0.34190  Biso   1.000  O
  O108     1.0000 0.31890  0.64720  0.31110  Biso   1.000  O
  O109     1.0000 0.11530  0.75308  0.35660  Biso   1.000  O
  O110     1.0000 0.14300  0.69260  0.28340  Biso   1.000  O
  O111     1.0000 0.21210  0.75860  0.27500  Biso   1.000  O
  O112     1.0000 0.16390  0.68900  0.42460  Biso   1.000  O
  O113     1.0000 0.05130  0.68350  0.36440  Biso   1.000  O
  O114     1.0000 0.06430  0.73450  0.47340  Biso   1.000  O
  O115     1.0000 0.17220  0.71140  0.15440  Biso   1.000  O
  O116     1.0000 0.09870  0.75870  0.22130  Biso   1.000  O
  O117     1.0000 0.06130  0.77120  0.98000  Biso   1.000  O
  N13      1.0000 0.19690  0.83270  0.19540  Biso   1.000  N
  N14      1.0000 0.22940  0.95340  0.34290  Biso   1.000  N
  N15      1.0000 0.08990  0.84840  0.40070  Biso   1.000  N
  N16      1.0000 0.15970  0.59760  0.23400  Biso   1.000  N
  N17      1.0000 0.19950  0.48650  0.39620  Biso   1.000  N
  N18      1.0000 0.10600  0.61270  0.46790  Biso   1.000  N
  C77      1.0000 0.13870  0.84310  0.29540  Biso   1.000  C
  H85      1.0000 0.10790  0.85520  0.26830  Biso   1.000  H
  H86      1.0000 0.13180  0.81400  0.29770  Biso   1.000  H
  C78      1.0000 0.19550  0.85090  0.26420  Biso   1.000  C
  H87      1.0000 0.22510  0.83700  0.29180  Biso   1.000  H
  C79      1.0000 0.21010  0.89530  0.26510  Biso   1.000  C
  H88      1.0000 0.24820  0.89930  0.24860  Biso   1.000  H
  H89      1.0000 0.18290  0.91000  0.23630  Biso   1.000  H
  C80      1.0000 0.20810  0.91130  0.33430  Biso   1.000  C
  H90      1.0000 0.23420  0.89420  0.36150  Biso   1.000  H
  C81      1.0000 0.15110  0.90560  0.36040  Biso   1.000  C
  H91      1.0000 0.12230  0.91880  0.33150  Biso   1.000  H
  H92      1.0000 0.14960  0.91760  0.40440  Biso   1.000  H
  C82      1.0000 0.13960  0.86080  0.36370  Biso   1.000  C
  H93      1.0000 0.17310  0.84890  0.38750  Biso   1.000  H
  C83      1.0000 0.25480  0.83650  0.17240  Biso   1.000  C
  H94      1.0000 0.28050  0.84240  0.21030  Biso   1.000  H
  H95      1.0000 0.25600  0.85940  0.14220  Biso   1.000  H
  C84      1.0000 0.27630  0.80020  0.13820  Biso   1.000  C
  C85      1.0000 0.15570  0.85280  0.14870  Biso   1.000  C
  H96      1.0000 0.17460  0.87530  0.12770  Biso   1.000  H
  H97      1.0000 0.12430  0.86370  0.17340  Biso   1.000  H
  C86      1.0000 0.13200  0.82510  0.09680  Biso   1.000  C
  C87      1.0000 0.29080  0.95610  0.33660  Biso   1.000  C
  H98      1.0000 0.30770  0.92930  0.34250  Biso   1.000  H
  H99      1.0000 0.29880  0.96550  0.29220  Biso   1.000  H
  C88      1.0000 0.31700  0.98360  0.38490  Biso   1.000  C
  C89      1.0000 0.19760  0.98190  0.30510  Biso   1.000  C
  H100     1.0000 0.18290  0.96860  0.26490  Biso   1.000  H
  H101     1.0000 0.22370  0.00310  0.29170  Biso   1.000  H
  C90      1.0000 0.14960  0.00120  0.33650  Biso   1.000  C
  C91      1.0000 0.09090  0.86860  0.46370  Biso   1.000  C
  H102     1.0000 0.07540  0.89580  0.45800  Biso   1.000  H
  H103     1.0000 0.13030  0.87100  0.48080  Biso   1.000  H
  C92      1.0000 0.05750  0.84650  0.51160  Biso   1.000  C
  C93      1.0000 0.03470  0.85750  0.36440  Biso   1.000  C
  H104     1.0000 0.01150  0.87430  0.39240  Biso   1.000  H
  H105     1.0000 0.04250  0.87300  0.32480  Biso   1.000  H
  C94      1.0000 0.00200  0.82120  0.34510  Biso   1.000  C
  C95      1.0000 0.12810  0.60360  0.34850  Biso   1.000  C
  H106     1.0000 0.09010  0.59320  0.33670  Biso   1.000  H
  H107     1.0000 0.12760  0.63280  0.34280  Biso   1.000  H
  C96      1.0000 0.17180  0.58470  0.30370  Biso   1.000  C
  H108     1.0000 0.20950  0.59570  0.31750  Biso   1.000  H
  C97      1.0000 0.17470  0.54000  0.31230  Biso   1.000  C
  H109     1.0000 0.20350  0.52890  0.28390  Biso   1.000  H
  H110     1.0000 0.13800  0.52810  0.29910  Biso   1.000  H
  C98      1.0000 0.18990  0.52920  0.38430  Biso   1.000  C
  H111     1.0000 0.22640  0.54280  0.39570  Biso   1.000  H
  C99      1.0000 0.14700  0.54660  0.42900  Biso   1.000  C
  H112     1.0000 0.15750  0.53990  0.47480  Biso   1.000  H
  H113     1.0000 0.10950  0.53500  0.41820  Biso   1.000  H
  C100     1.0000 0.14440  0.59290  0.42080  Biso   1.000  C
  H114     1.0000 0.18320  0.60340  0.43050  Biso   1.000  H
  C101     1.0000 0.20290  0.57950  0.19380  Biso   1.000  C
  H115     1.0000 0.19370  0.55110  0.18610  Biso   1.000  H
  H116     1.0000 0.24000  0.58080  0.21760  Biso   1.000  H
  C102     1.0000 0.20650  0.60050  0.12950  Biso   1.000  C
  C103     1.0000 0.10180  0.58490  0.20860  Biso   1.000  C
  H117     1.0000 0.08340  0.56950  0.24290  Biso   1.000  H
  H118     1.0000 0.10580  0.56710  0.17060  Biso   1.000  H
  C104     1.0000 0.06410  0.62020  0.18840  Biso   1.000  C
  C105     1.0000 0.25290  0.47330  0.37260  Biso   1.000  C
  H119     1.0000 0.26760  0.49420  0.34390  Biso   1.000  H
  H120     1.0000 0.24640  0.44910  0.34580  Biso   1.000  H
  C106     1.0000 0.29620  0.46440  0.42460  Biso   1.000  C
  C107     1.0000 0.15300  0.46090  0.36790  Biso   1.000  C
  H121     1.0000 0.15510  0.46010  0.31990  Biso   1.000  H
  H122     1.0000 0.11620  0.47250  0.37850  Biso   1.000  H
  C108     1.0000 0.15770  0.41780  0.39570  Biso   1.000  C
  C109     1.0000 0.13210  0.60920  0.53470  Biso   1.000  C
  H123     1.0000 0.11240  0.58790  0.55810  Biso   1.000  H
  H124     1.0000 0.17170  0.60070  0.53110  Biso   1.000  H
  C110     1.0000 0.13130  0.64600  0.57420  Biso   1.000  C
  C111     1.0000 0.04970  0.59350  0.46490  Biso   1.000  C
  H125     1.0000 0.04990  0.57120  0.49650  Biso   1.000  H
  H126     1.0000 0.04270  0.58210  0.42080  Biso   1.000  H
  C112     1.0000 0.00120  0.62190  0.47970  Biso   1.000  C
  C113     1.0000 0.21550  0.78710  0.45220  Biso   1.000  C
  C114     1.0000 0.27350  0.66710  0.29910  Biso   1.000  C
  Fe19     1.0000 0.67516  0.26570  0.19127  Biso   1.000  Fe
  Fe20     1.0000 0.58872  0.28225  0.42573  Biso   1.000  Fe
  Fe21     1.0000 0.66736  0.16411  0.21227  Biso   1.000  Fe
  Fe22     1.0000 0.58828  0.18008  0.45273  Biso   1.000  Fe
  Fe23     1.0000 0.68779  0.22399  0.34999  Biso   1.000  Fe
  Fe24     1.0000 0.57629  0.22194  0.29272  Biso   1.000  Fe
  K16      1.0000 0.65999  0.25515  0.58840  Biso   1.000  K
  K17      1.0000 0.55423  0.22116  0.09733  Biso   1.000  K
  K18      1.0000 0.65838  0.58808  0.43480  Biso   1.000  K
  K19      1.0000 0.68450  0.26770  0.97540  Biso   1.000  K
  K20      1.0000 0.68810  0.24440  0.00550  Biso   1.000  K
  Li7      1.0000 0.79750  0.54180  0.49510  Biso   1.000  Li
  Li8      1.0000 0.71370  0.48450  0.45160  Biso   1.000  Li
  O118     1.0000 0.75010  0.26720  0.14450  Biso   1.000  O
  O119     1.0000 0.81900  0.30350  0.10610  Biso   1.000  O
  O120     1.0000 0.64020  0.28770  0.10570  Biso   1.000  O
  O121     1.0000 0.60490  0.33930  0.05020  Biso   1.000  O
  O122     1.0000 0.79150  0.49510  0.43290  Biso   1.000  O
  O123     1.0000 0.86810  0.49300  0.37540  Biso   1.000  O
  O124     1.0000 0.64930  0.50370  0.39760  Biso   1.000  O
  O125     1.0000 0.61040  0.51470  0.30030  Biso   1.000  O
  O126     1.0000 0.54980  0.30950  0.50310  Biso   1.000  O
  O127     1.0000 0.53800  0.36540  0.55960  Biso   1.000  O
  O128     1.0000 0.51660  0.28750  0.37050  Biso   1.000  O
  O129     1.0000 0.46050  0.32610  0.30700  Biso   1.000  O
  O130     1.0000 0.68900  0.13650  0.12640  Biso   1.000  O
  O131     1.0000 0.72920  0.08350  0.08330  Biso   1.000  O
  O132     1.0000 0.58470  0.15480  0.18640  Biso   1.000  O
  O133     1.0000 0.51370  0.11210  0.17310  Biso   1.000  O
  O134     1.0000 0.84420  0.95670  0.40490  Biso   1.000  O
  O135     1.0000 0.78560  0.96620  0.48440  Biso   1.000  O
  O136     1.0000 0.68710  0.91070  0.44370  Biso   1.000  O
  O137     1.0000 0.62610  0.89220  0.36640  Biso   1.000  O
  O138     1.0000 0.61650  0.17860  0.54820  Biso   1.000  O
  O139     1.0000 0.64910  0.14330  0.63410  Biso   1.000  O
  O140     1.0000 0.51350  0.15900  0.48410  Biso   1.000  O
  O141     1.0000 0.45310  0.10820  0.48430  Biso   1.000  O
  O142     1.0000 0.75300  0.30970  0.47700  Biso   1.000  O
  O143     1.0000 0.66270  0.29050  0.46900  Biso   1.000  O
  O144     1.0000 0.72900  0.26060  0.41080  Biso   1.000  O
  O145     1.0000 0.74610  0.15990  0.24500  Biso   1.000  O
  O146     1.0000 0.75770  0.19110  0.34190  Biso   1.000  O
  O147     1.0000 0.81890  0.14720  0.31110  Biso   1.000  O
  O148     1.0000 0.61530  0.25308  0.35660  Biso   1.000  O
  O149     1.0000 0.64300  0.19260  0.28340  Biso   1.000  O
  O150     1.0000 0.71210  0.25860  0.27500  Biso   1.000  O
  O151     1.0000 0.66390  0.18900  0.42460  Biso   1.000  O
  O152     1.0000 0.55130  0.18350  0.36440  Biso   1.000  O
  O153     1.0000 0.56430  0.23450  0.47340  Biso   1.000  O
  O154     1.0000 0.67220  0.21140  0.15440  Biso   1.000  O
  O155     1.0000 0.59870  0.25870  0.22130  Biso   1.000  O
  O156     1.0000 0.56130  0.27120  0.98000  Biso   1.000  O
  N19      1.0000 0.69690  0.33270  0.19540  Biso   1.000  N
  N20      1.0000 0.72940  0.45340  0.34290  Biso   1.000  N
  N21      1.0000 0.58990  0.34840  0.40070  Biso   1.000  N
  N22      1.0000 0.65970  0.09760  0.23400  Biso   1.000  N
  N23      1.0000 0.69950  0.98650  0.39620  Biso   1.000  N
  N24      1.0000 0.60600  0.11270  0.46790  Biso   1.000  N
  C115     1.0000 0.63870  0.34310  0.29540  Biso   1.000  C
  H127     1.0000 0.60790  0.35520  0.26830  Biso   1.000  H
  H128     1.0000 0.63180  0.31400  0.29770  Biso   1.000  H
  C116     1.0000 0.69550  0.35090  0.26420  Biso   1.000  C
  H129     1.0000 0.72510  0.33700  0.29180  Biso   1.000  H
  C117     1.0000 0.71010  0.39530  0.26510  Biso   1.000  C
  H130     1.0000 0.74820  0.39930  0.24860  Biso   1.000  H
  H131     1.0000 0.68290  0.41000  0.23630  Biso   1.000  H
  C118     1.0000 0.70810  0.41130  0.33430  Biso   1.000  C
  H132     1.0000 0.73420  0.39420  0.36150  Biso   1.000  H
  C119     1.0000 0.65110  0.40560  0.36040  Biso   1.000  C
  H133     1.0000 0.62230  0.41880  0.33150  Biso   1.000  H
  H134     1.0000 0.64960  0.41760  0.40440  Biso   1.000  H
  C120     1.0000 0.63960  0.36080  0.36370  Biso   1.000  C
  H135     1.0000 0.67310  0.34890  0.38750  Biso   1.000  H
  C121     1.0000 0.75480  0.33650  0.17240  Biso   1.000  C
  H136     1.0000 0.78050  0.34240  0.21030  Biso   1.000  H
  H137     1.0000 0.75600  0.35940  0.14220  Biso   1.000  H
  C122     1.0000 0.77630  0.30020  0.13820  Biso   1.000  C
  C123     1.0000 0.65570  0.35280  0.14870  Biso   1.000  C
  H138     1.0000 0.67460  0.37530  0.12770  Biso   1.000  H
  H139     1.0000 0.62430  0.36370  0.17340  Biso   1.000  H
  C124     1.0000 0.63200  0.32510  0.09680  Biso   1.000  C
  C125     1.0000 0.79080  0.45610  0.33660  Biso   1.000  C
  H140     1.0000 0.80770  0.42930  0.34250  Biso   1.000  H
  H141     1.0000 0.79880  0.46550  0.29220  Biso   1.000  H
  C126     1.0000 0.81700  0.48360  0.38490  Biso   1.000  C
  C127     1.0000 0.69760  0.48190  0.30510  Biso   1.000  C
  H142     1.0000 0.68290  0.46860  0.26490  Biso   1.000  H
  H143     1.0000 0.72370  0.50310  0.29170  Biso   1.000  H
  C128     1.0000 0.64960  0.50120  0.33650  Biso   1.000  C
  C129     1.0000 0.59090  0.36860  0.46370  Biso   1.000  C
  H144     1.0000 0.57540  0.39580  0.45800  Biso   1.000  H
  H145     1.0000 0.63030  0.37100  0.48080  Biso   1.000  H
  C130     1.0000 0.55750  0.34650  0.51160  Biso   1.000  C
  C131     1.0000 0.53470  0.35750  0.36440  Biso   1.000  C
  H146     1.0000 0.51150  0.37430  0.39240  Biso   1.000  H
  H147     1.0000 0.54250  0.37300  0.32480  Biso   1.000  H
  C132     1.0000 0.50200  0.32120  0.34510  Biso   1.000  C
  C133     1.0000 0.62810  0.10360  0.34850  Biso   1.000  C
  H148     1.0000 0.59010  0.09320  0.33670  Biso   1.000  H
  H149     1.0000 0.62760  0.13280  0.34280  Biso   1.000  H
  C134     1.0000 0.67180  0.08470  0.30370  Biso   1.000  C
  H150     1.0000 0.70950  0.09570  0.31750  Biso   1.000  H
  C135     1.0000 0.67470  0.04000  0.31230  Biso   1.000  C
  H151     1.0000 0.70350  0.02890  0.28390  Biso   1.000  H
  H152     1.0000 0.63800  0.02810  0.29910  Biso   1.000  H
  C136     1.0000 0.68990  0.02920  0.38430  Biso   1.000  C
  H153     1.0000 0.72640  0.04280  0.39570  Biso   1.000  H
  C137     1.0000 0.64700  0.04660  0.42900  Biso   1.000  C
  H154     1.0000 0.65750  0.03990  0.47480  Biso   1.000  H
  H155     1.0000 0.60950  0.03500  0.41820  Biso   1.000  H
  C138     1.0000 0.64440  0.09290  0.42080  Biso   1.000  C
  H156     1.0000 0.68320  0.10340  0.43050  Biso   1.000  H
  C139     1.0000 0.70290  0.07950  0.19380  Biso   1.000  C
  H157     1.0000 0.69370  0.05110  0.18610  Biso   1.000  H
  H158     1.0000 0.74000  0.08080  0.21760  Biso   1.000  H
  C140     1.0000 0.70650  0.10050  0.12950  Biso   1.000  C
  C141     1.0000 0.60180  0.08490  0.20860  Biso   1.000  C
  H159     1.0000 0.58340  0.06950  0.24290  Biso   1.000  H
  H160     1.0000 0.60580  0.06710  0.17060  Biso   1.000  H
  C142     1.0000 0.56410  0.12020  0.18840  Biso   1.000  C
  C143     1.0000 0.75290  0.97330  0.37260  Biso   1.000  C
  H161     1.0000 0.76760  0.99420  0.34390  Biso   1.000  H
  H162     1.0000 0.74640  0.94910  0.34580  Biso   1.000  H
  C144     1.0000 0.79620  0.96440  0.42460  Biso   1.000  C
  C145     1.0000 0.65300  0.96090  0.36790  Biso   1.000  C
  H163     1.0000 0.65510  0.96010  0.31990  Biso   1.000  H
  H164     1.0000 0.61620  0.97250  0.37850  Biso   1.000  H
  C146     1.0000 0.65770  0.91780  0.39570  Biso   1.000  C
  C147     1.0000 0.63210  0.10920  0.53470  Biso   1.000  C
  H165     1.0000 0.61240  0.08790  0.55810  Biso   1.000  H
  H166     1.0000 0.67170  0.10070  0.53110  Biso   1.000  H
  C148     1.0000 0.63130  0.14600  0.57420  Biso   1.000  C
  C149     1.0000 0.54970  0.09350  0.46490  Biso   1.000  C
  H167     1.0000 0.54990  0.07120  0.49650  Biso   1.000  H
  H168     1.0000 0.54270  0.08210  0.42080  Biso   1.000  H
  C150     1.0000 0.50120  0.12190  0.47970  Biso   1.000  C
  C151     1.0000 0.71550  0.28710  0.45220  Biso   1.000  C
  C152     1.0000 0.77350  0.16710  0.29910  Biso   1.000  C
  Fe25     1.0000 0.17516  0.23430  0.69127  Biso   1.000  Fe
  Fe26     1.0000 0.08872  0.21775  0.92573  Biso   1.000  Fe
  Fe27     1.0000 0.16736  0.33589  0.71227  Biso   1.000  Fe
  Fe28     1.0000 0.08828  0.31992  0.95273  Biso   1.000  Fe
  Fe29     1.0000 0.18779  0.27601  0.84999  Biso   1.000  Fe
  Fe30     1.0000 0.07629  0.27806  0.79272  Biso   1.000  Fe
  K21      1.0000 0.15999  0.24485  0.08840  Biso   1.000  K
  K22      1.0000 0.05423  0.27884  0.59733  Biso   1.000  K
  K23      1.0000 0.15838  0.91192  0.93480  Biso   1.000  K
  K24      1.0000 0.18450  0.23230  0.47540  Biso   1.000  K
  K25      1.0000 0.18810  0.25560  0.50550  Biso   1.000  K
  Li9      1.0000 0.29750  0.95820  0.99510  Biso   1.000  Li
  Li10     1.0000 0.21370  0.01550  0.95160  Biso   1.000  Li
  O157     1.0000 0.25010  0.23280  0.64450  Biso   1.000  O
  O158     1.0000 0.31900  0.19650  0.60610  Biso   1.000  O
  O159     1.0000 0.14020  0.21230  0.60570  Biso   1.000  O
  O160     1.0000 0.10490  0.16070  0.55020  Biso   1.000  O
  O161     1.0000 0.29150  0.00490  0.93290  Biso   1.000  O
  O162     1.0000 0.36810  0.00700  0.87540  Biso   1.000  O
  O163     1.0000 0.14930  0.99630  0.89760  Biso   1.000  O
  O164     1.0000 0.11040  0.98530  0.80030  Biso   1.000  O
  O165     1.0000 0.04980  0.19050  0.00310  Biso   1.000  O
  O166     1.0000 0.03800  0.13460  0.05960  Biso   1.000  O
  O167     1.0000 0.01660  0.21250  0.87050  Biso   1.000  O
  O168     1.0000 0.96050  0.17390  0.80700  Biso   1.000  O
  O169     1.0000 0.18900  0.36350  0.62640  Biso   1.000  O
  O170     1.0000 0.22920  0.41650  0.58330  Biso   1.000  O
  O171     1.0000 0.08470  0.34520  0.68640  Biso   1.000  O
  O172     1.0000 0.01370  0.38790  0.67310  Biso   1.000  O
  O173     1.0000 0.34420  0.54330  0.90490  Biso   1.000  O
  O174     1.0000 0.28560  0.53380  0.98440  Biso   1.000  O
  O175     1.0000 0.18710  0.58930  0.94370  Biso   1.000  O
  O176     1.0000 0.12610  0.60780  0.86640  Biso   1.000  O
  O177     1.0000 0.11650  0.32140  0.04820  Biso   1.000  O
  O178     1.0000 0.14910  0.35670  0.13410  Biso   1.000  O
  O179     1.0000 0.01350  0.34100  0.98410  Biso   1.000  O
  O180     1.0000 0.95310  0.39180  0.98430  Biso   1.000  O
  O181     1.0000 0.25300  0.19030  0.97700  Biso   1.000  O
  O182     1.0000 0.16270  0.20950  0.96900  Biso   1.000  O
  O183     1.0000 0.22900  0.23940  0.91080  Biso   1.000  O
  O184     1.0000 0.24610  0.34010  0.74500  Biso   1.000  O
  O185     1.0000 0.25770  0.30890  0.84190  Biso   1.000  O
  O186     1.0000 0.31890  0.35280  0.81110  Biso   1.000  O
  O187     1.0000 0.11530  0.24692  0.85660  Biso   1.000  O
  O188     1.0000 0.14300  0.30740  0.78340  Biso   1.000  O
  O189     1.0000 0.21210  0.24140  0.77500  Biso   1.000  O
  O190     1.0000 0.16390  0.31100  0.92460  Biso   1.000  O
  O191     1.0000 0.05130  0.31650  0.86440  Biso   1.000  O
  O192     1.0000 0.06430  0.26550  0.97340  Biso   1.000  O
  O193     1.0000 0.17220  0.28860  0.65440  Biso   1.000  O
  O194     1.0000 0.09870  0.24130  0.72130  Biso   1.000  O
  O195     1.0000 0.06130  0.22880  0.48000  Biso   1.000  O
  N25      1.0000 0.19690  0.16730  0.69540  Biso   1.000  N
  N26      1.0000 0.22940  0.04660  0.84290  Biso   1.000  N
  N27      1.0000 0.08990  0.15160  0.90070  Biso   1.000  N
  N28      1.0000 0.15970  0.40240  0.73400  Biso   1.000  N
  N29      1.0000 0.19950  0.51350  0.89620  Biso   1.000  N
  N30      1.0000 0.10600  0.38730  0.96790  Biso   1.000  N
  C153     1.0000 0.13870  0.15690  0.79540  Biso   1.000  C
  H169     1.0000 0.10790  0.14480  0.76830  Biso   1.000  H
  H170     1.0000 0.13180  0.18600  0.79770  Biso   1.000  H
  C154     1.0000 0.19550  0.14910  0.76420  Biso   1.000  C
  H171     1.0000 0.22510  0.16300  0.79180  Biso   1.000  H
  C155     1.0000 0.21010  0.10470  0.76510  Biso   1.000  C
  H172     1.0000 0.24820  0.10070  0.74860  Biso   1.000  H
  H173     1.0000 0.18290  0.09000  0.73630  Biso   1.000  H
  C156     1.0000 0.20810  0.08870  0.83430  Biso   1.000  C
  H174     1.0000 0.23420  0.10580  0.86150  Biso   1.000  H
  C157     1.0000 0.15110  0.09440  0.86040  Biso   1.000  C
  H175     1.0000 0.12230  0.08120  0.83150  Biso   1.000  H
  H176     1.0000 0.14960  0.08240  0.90440  Biso   1.000  H
  C158     1.0000 0.13960  0.13920  0.86370  Biso   1.000  C
  H177     1.0000 0.17310  0.15110  0.88750  Biso   1.000  H
  C159     1.0000 0.25480  0.16350  0.67240  Biso   1.000  C
  H178     1.0000 0.28050  0.15760  0.71030  Biso   1.000  H
  H179     1.0000 0.25600  0.14060  0.64220  Biso   1.000  H
  C160     1.0000 0.27630  0.19980  0.63820  Biso   1.000  C
  C161     1.0000 0.15570  0.14720  0.64870  Biso   1.000  C
  H180     1.0000 0.17460  0.12470  0.62770  Biso   1.000  H
  H181     1.0000 0.12430  0.13630  0.67340  Biso   1.000  H
  C162     1.0000 0.13200  0.17490  0.59680  Biso   1.000  C
  C163     1.0000 0.29080  0.04390  0.83660  Biso   1.000  C
  H182     1.0000 0.30770  0.07070  0.84250  Biso   1.000  H
  H183     1.0000 0.29880  0.03450  0.79220  Biso   1.000  H
  C164     1.0000 0.31700  0.01640  0.88490  Biso   1.000  C
  C165     1.0000 0.19760  0.01810  0.80510  Biso   1.000  C
  H184     1.0000 0.18290  0.03140  0.76490  Biso   1.000  H
  H185     1.0000 0.22370  0.99690  0.79170  Biso   1.000  H
  C166     1.0000 0.14960  0.99880  0.83650  Biso   1.000  C
  C167     1.0000 0.09090  0.13140  0.96370  Biso   1.000  C
  H186     1.0000 0.07540  0.10420  0.95800  Biso   1.000  H
  H187     1.0000 0.13030  0.12900  0.98080  Biso   1.000  H
  C168     1.0000 0.05750  0.15350  0.01160  Biso   1.000  C
  C169     1.0000 0.03470  0.14250  0.86440  Biso   1.000  C
  H188     1.0000 0.01150  0.12570  0.89240  Biso   1.000  H
  H189     1.0000 0.04250  0.12700  0.82480  Biso   1.000  H
  C170     1.0000 0.00200  0.17880  0.84510  Biso   1.000  C
  C171     1.0000 0.12810  0.39640  0.84850  Biso   1.000  C
  H190     1.0000 0.09010  0.40680  0.83670  Biso   1.000  H
  H191     1.0000 0.12760  0.36720  0.84280  Biso   1.000  H
  C172     1.0000 0.17180  0.41530  0.80370  Biso   1.000  C
  H192     1.0000 0.20950  0.40430  0.81750  Biso   1.000  H
  C173     1.0000 0.17470  0.46000  0.81230  Biso   1.000  C
  H193     1.0000 0.20350  0.47110  0.78390  Biso   1.000  H
  H194     1.0000 0.13800  0.47190  0.79910  Biso   1.000  H
  C174     1.0000 0.18990  0.47080  0.88430  Biso   1.000  C
  H195     1.0000 0.22640  0.45720  0.89570  Biso   1.000  H
  C175     1.0000 0.14700  0.45340  0.92900  Biso   1.000  C
  H196     1.0000 0.15750  0.46010  0.97480  Biso   1.000  H
  H197     1.0000 0.10950  0.46500  0.91820  Biso   1.000  H
  C176     1.0000 0.14440  0.40710  0.92080  Biso   1.000  C
  H198     1.0000 0.18320  0.39660  0.93050  Biso   1.000  H
  C177     1.0000 0.20290  0.42050  0.69380  Biso   1.000  C
  H199     1.0000 0.19370  0.44890  0.68610  Biso   1.000  H
  H200     1.0000 0.24000  0.41920  0.71760  Biso   1.000  H
  C178     1.0000 0.20650  0.39950  0.62950  Biso   1.000  C
  C179     1.0000 0.10180  0.41510  0.70860  Biso   1.000  C
  H201     1.0000 0.08340  0.43050  0.74290  Biso   1.000  H
  H202     1.0000 0.10580  0.43290  0.67060  Biso   1.000  H
  C180     1.0000 0.06410  0.37980  0.68840  Biso   1.000  C
  C181     1.0000 0.25290  0.52670  0.87260  Biso   1.000  C
  H203     1.0000 0.26760  0.50580  0.84390  Biso   1.000  H
  H204     1.0000 0.24640  0.55090  0.84580  Biso   1.000  H
  C182     1.0000 0.29620  0.53560  0.92460  Biso   1.000  C
  C183     1.0000 0.15300  0.53910  0.86790  Biso   1.000  C
  H205     1.0000 0.15510  0.53990  0.81990  Biso   1.000  H
  H206     1.0000 0.11620  0.52750  0.87850  Biso   1.000  H
  C184     1.0000 0.15770  0.58220  0.89570  Biso   1.000  C
  C185     1.0000 0.13210  0.39080  0.03470  Biso   1.000  C
  H207     1.0000 0.11240  0.41210  0.05810  Biso   1.000  H
  H208     1.0000 0.17170  0.39930  0.03110  Biso   1.000  H
  C186     1.0000 0.13130  0.35400  0.07420  Biso   1.000  C
  C187     1.0000 0.04970  0.40650  0.96490  Biso   1.000  C
  H209     1.0000 0.04990  0.42880  0.99650  Biso   1.000  H
  H210     1.0000 0.04270  0.41790  0.92080  Biso   1.000  H
  C188     1.0000 0.00120  0.37810  0.97970  Biso   1.000  C
  C189     1.0000 0.21550  0.21290  0.95220  Biso   1.000  C
  C190     1.0000 0.27350  0.33290  0.79910  Biso   1.000  C
  Fe31     1.0000 0.67516  0.73430  0.69127  Biso   1.000  Fe
  Fe32     1.0000 0.58872  0.71775  0.92573  Biso   1.000  Fe
  Fe33     1.0000 0.66736  0.83589  0.71227  Biso   1.000  Fe
  Fe34     1.0000 0.58828  0.81992  0.95273  Biso   1.000  Fe
  Fe35     1.0000 0.68779  0.77601  0.84999  Biso   1.000  Fe
  Fe36     1.0000 0.57629  0.77806  0.79272  Biso   1.000  Fe
  K26      1.0000 0.65999  0.74485  0.08840  Biso   1.000  K
  K27      1.0000 0.55423  0.77884  0.59733  Biso   1.000  K
  K28      1.0000 0.65838  0.41192  0.93480  Biso   1.000  K
  K29      1.0000 0.68450  0.73230  0.47540  Biso   1.000  K
  K30      1.0000 0.68810  0.75560  0.50550  Biso   1.000  K
  Li11     1.0000 0.79750  0.45820  0.99510  Biso   1.000  Li
  Li12     1.0000 0.71370  0.51550  0.95160  Biso   1.000  Li
  O196     1.0000 0.75010  0.73280  0.64450  Biso   1.000  O
  O197     1.0000 0.81900  0.69650  0.60610  Biso   1.000  O
  O198     1.0000 0.64020  0.71230  0.60570  Biso   1.000  O
  O199     1.0000 0.60490  0.66070  0.55020  Biso   1.000  O
  O200     1.0000 0.79150  0.50490  0.93290  Biso   1.000  O
  O201     1.0000 0.86810  0.50700  0.87540  Biso   1.000  O
  O202     1.0000 0.64930  0.49630  0.89760  Biso   1.000  O
  O203     1.0000 0.61040  0.48530  0.80030  Biso   1.000  O
  O204     1.0000 0.54980  0.69050  0.00310  Biso   1.000  O
  O205     1.0000 0.53800  0.63460  0.05960  Biso   1.000  O
  O206     1.0000 0.51660  0.71250  0.87050  Biso   1.000  O
  O207     1.0000 0.46050  0.67390  0.80700  Biso   1.000  O
  O208     1.0000 0.68900  0.86350  0.62640  Biso   1.000  O
  O209     1.0000 0.72920  0.91650  0.58330  Biso   1.000  O
  O210     1.0000 0.58470  0.84520  0.68640  Biso   1.000  O
  O211     1.0000 0.51370  0.88790  0.67310  Biso   1.000  O
  O212     1.0000 0.84420  0.04330  0.90490  Biso   1.000  O
  O213     1.0000 0.78560  0.03380  0.98440  Biso   1.000  O
  O214     1.0000 0.68710  0.08930  0.94370  Biso   1.000  O
  O215     1.0000 0.62610  0.10780  0.86640  Biso   1.000  O
  O216     1.0000 0.61650  0.82140  0.04820  Biso   1.000  O
  O217     1.0000 0.64910  0.85670  0.13410  Biso   1.000  O
  O218     1.0000 0.51350  0.84100  0.98410  Biso   1.000  O
  O219     1.0000 0.45310  0.89180  0.98430  Biso   1.000  O
  O220     1.0000 0.75300  0.69030  0.97700  Biso   1.000  O
  O221     1.0000 0.66270  0.70950  0.96900  Biso   1.000  O
  O222     1.0000 0.72900  0.73940  0.91080  Biso   1.000  O
  O223     1.0000 0.74610  0.84010  0.74500  Biso   1.000  O
  O224     1.0000 0.75770  0.80890  0.84190  Biso   1.000  O
  O225     1.0000 0.81890  0.85280  0.81110  Biso   1.000  O
  O226     1.0000 0.61530  0.74692  0.85660  Biso   1.000  O
  O227     1.0000 0.64300  0.80740  0.78340  Biso   1.000  O
  O228     1.0000 0.71210  0.74140  0.77500  Biso   1.000  O
  O229     1.0000 0.66390  0.81100  0.92460  Biso   1.000  O
  O230     1.0000 0.55130  0.81650  0.86440  Biso   1.000  O
  O231     1.0000 0.56430  0.76550  0.97340  Biso   1.000  O
  O232     1.0000 0.67220  0.78860  0.65440  Biso   1.000  O
  O233     1.0000 0.59870  0.74130  0.72130  Biso   1.000  O
  O234     1.0000 0.56130  0.72880  0.48000  Biso   1.000  O
  N31      1.0000 0.69690  0.66730  0.69540  Biso   1.000  N
  N32      1.0000 0.72940  0.54660  0.84290  Biso   1.000  N
  N33      1.0000 0.58990  0.65160  0.90070  Biso   1.000  N
  N34      1.0000 0.65970  0.90240  0.73400  Biso   1.000  N
  N35      1.0000 0.69950  0.01350  0.89620  Biso   1.000  N
  N36      1.0000 0.60600  0.88730  0.96790  Biso   1.000  N
  C191     1.0000 0.63870  0.65690  0.79540  Biso   1.000  C
  H211     1.0000 0.60790  0.64480  0.76830  Biso   1.000  H
  H212     1.0000 0.63180  0.68600  0.79770  Biso   1.000  H
  C192     1.0000 0.69550  0.64910  0.76420  Biso   1.000  C
  H213     1.0000 0.72510  0.66300  0.79180  Biso   1.000  H
  C193     1.0000 0.71010  0.60470  0.76510  Biso   1.000  C
  H214     1.0000 0.74820  0.60070  0.74860  Biso   1.000  H
  H215     1.0000 0.68290  0.59000  0.73630  Biso   1.000  H
  C194     1.0000 0.70810  0.58870  0.83430  Biso   1.000  C
  H216     1.0000 0.73420  0.60580  0.86150  Biso   1.000  H
  C195     1.0000 0.65110  0.59440  0.86040  Biso   1.000  C
  H217     1.0000 0.62230  0.58120  0.83150  Biso   1.000  H
  H218     1.0000 0.64960  0.58240  0.90440  Biso   1.000  H
  C196     1.0000 0.63960  0.63920  0.86370  Biso   1.000  C
  H219     1.0000 0.67310  0.65110  0.88750  Biso   1.000  H
  C197     1.0000 0.75480  0.66350  0.67240  Biso   1.000  C
  H220     1.0000 0.78050  0.65760  0.71030  Biso   1.000  H
  H221     1.0000 0.75600  0.64060  0.64220  Biso   1.000  H
  C198     1.0000 0.77630  0.69980  0.63820  Biso   1.000  C
  C199     1.0000 0.65570  0.64720  0.64870  Biso   1.000  C
  H222     1.0000 0.67460  0.62470  0.62770  Biso   1.000  H
  H223     1.0000 0.62430  0.63630  0.67340  Biso   1.000  H
  C200     1.0000 0.63200  0.67490  0.59680  Biso   1.000  C
  C201     1.0000 0.79080  0.54390  0.83660  Biso   1.000  C
  H224     1.0000 0.80770  0.57070  0.84250  Biso   1.000  H
  H225     1.0000 0.79880  0.53450  0.79220  Biso   1.000  H
  C202     1.0000 0.81700  0.51640  0.88490  Biso   1.000  C
  C203     1.0000 0.69760  0.51810  0.80510  Biso   1.000  C
  H226     1.0000 0.68290  0.53140  0.76490  Biso   1.000  H
  H227     1.0000 0.72370  0.49690  0.79170  Biso   1.000  H
  C204     1.0000 0.64960  0.49880  0.83650  Biso   1.000  C
  C205     1.0000 0.59090  0.63140  0.96370  Biso   1.000  C
  H228     1.0000 0.57540  0.60420  0.95800  Biso   1.000  H
  H229     1.0000 0.63030  0.62900  0.98080  Biso   1.000  H
  C206     1.0000 0.55750  0.65350  0.01160  Biso   1.000  C
  C207     1.0000 0.53470  0.64250  0.86440  Biso   1.000  C
  H230     1.0000 0.51150  0.62570  0.89240  Biso   1.000  H
  H231     1.0000 0.54250  0.62700  0.82480  Biso   1.000  H
  C208     1.0000 0.50200  0.67880  0.84510  Biso   1.000  C
  C209     1.0000 0.62810  0.89640  0.84850  Biso   1.000  C
  H232     1.0000 0.59010  0.90680  0.83670  Biso   1.000  H
  H233     1.0000 0.62760  0.86720  0.84280  Biso   1.000  H
  C210     1.0000 0.67180  0.91530  0.80370  Biso   1.000  C
  H234     1.0000 0.70950  0.90430  0.81750  Biso   1.000  H
  C211     1.0000 0.67470  0.96000  0.81230  Biso   1.000  C
  H235     1.0000 0.70350  0.97110  0.78390  Biso   1.000  H
  H236     1.0000 0.63800  0.97190  0.79910  Biso   1.000  H
  C212     1.0000 0.68990  0.97080  0.88430  Biso   1.000  C
  H237     1.0000 0.72640  0.95720  0.89570  Biso   1.000  H
  C213     1.0000 0.64700  0.95340  0.92900  Biso   1.000  C
  H238     1.0000 0.65750  0.96010  0.97480  Biso   1.000  H
  H239     1.0000 0.60950  0.96500  0.91820  Biso   1.000  H
  C214     1.0000 0.64440  0.90710  0.92080  Biso   1.000  C
  H240     1.0000 0.68320  0.89660  0.93050  Biso   1.000  H
  C215     1.0000 0.70290  0.92050  0.69380  Biso   1.000  C
  H241     1.0000 0.69370  0.94890  0.68610  Biso   1.000  H
  H242     1.0000 0.74000  0.91920  0.71760  Biso   1.000  H
  C216     1.0000 0.70650  0.89950  0.62950  Biso   1.000  C
  C217     1.0000 0.60180  0.91510  0.70860  Biso   1.000  C
  H243     1.0000 0.58340  0.93050  0.74290  Biso   1.000  H
  H244     1.0000 0.60580  0.93290  0.67060  Biso   1.000  H
  C218     1.0000 0.56410  0.87980  0.68840  Biso   1.000  C
  C219     1.0000 0.75290  0.02670  0.87260  Biso   1.000  C
  H245     1.0000 0.76760  0.00580  0.84390  Biso   1.000  H
  H246     1.0000 0.74640  0.05090  0.84580  Biso   1.000  H
  C220     1.0000 0.79620  0.03560  0.92460  Biso   1.000  C
  C221     1.0000 0.65300  0.03910  0.86790  Biso   1.000  C
  H247     1.0000 0.65510  0.03990  0.81990  Biso   1.000  H
  H248     1.0000 0.61620  0.02750  0.87850  Biso   1.000  H
  C222     1.0000 0.65770  0.08220  0.89570  Biso   1.000  C
  C223     1.0000 0.63210  0.89080  0.03470  Biso   1.000  C
  H249     1.0000 0.61240  0.91210  0.05810  Biso   1.000  H
  H250     1.0000 0.67170  0.89930  0.03110  Biso   1.000  H
  C224     1.0000 0.63130  0.85400  0.07420  Biso   1.000  C
  C225     1.0000 0.54970  0.90650  0.96490  Biso   1.000  C
  H251     1.0000 0.54990  0.92880  0.99650  Biso   1.000  H
  H252     1.0000 0.54270  0.91790  0.92080  Biso   1.000  H
  C226     1.0000 0.50120  0.87810  0.97970  Biso   1.000  C
  C227     1.0000 0.71550  0.71290  0.95220  Biso   1.000  C
  C228     1.0000 0.77350  0.83290  0.79910  Biso   1.000  C
  Fe37     1.0000 0.82484  0.23430  0.80873  Biso   1.000  Fe
  Fe38     1.0000 0.91128  0.21775  0.57427  Biso   1.000  Fe
  Fe39     1.0000 0.83264  0.33589  0.78773  Biso   1.000  Fe
  Fe40     1.0000 0.91172  0.31992  0.54727  Biso   1.000  Fe
  Fe41     1.0000 0.81221  0.27601  0.65001  Biso   1.000  Fe
  Fe42     1.0000 0.92371  0.27806  0.70728  Biso   1.000  Fe
  K31      1.0000 0.84001  0.24485  0.41160  Biso   1.000  K
  K32      1.0000 0.94577  0.27884  0.90267  Biso   1.000  K
  K33      1.0000 0.84162  0.91192  0.56520  Biso   1.000  K
  K34      1.0000 0.81550  0.23230  0.02460  Biso   1.000  K
  K35      1.0000 0.81190  0.25560  0.99450  Biso   1.000  K
  Li13     1.0000 0.70250  0.95820  0.50490  Biso   1.000  Li
  Li14     1.0000 0.78630  0.01550  0.54840  Biso   1.000  Li
  O235     1.0000 0.74990  0.23280  0.85550  Biso   1.000  O
  O236     1.0000 0.68100  0.19650  0.89390  Biso   1.000  O
  O237     1.0000 0.85980  0.21230  0.89430  Biso   1.000  O
  O238     1.0000 0.89510  0.16070  0.94980  Biso   1.000  O
  O239     1.0000 0.70850  0.00490  0.56710  Biso   1.000  O
  O240     1.0000 0.63190  0.00700  0.62460  Biso   1.000  O
  O241     1.0000 0.85070  0.99630  0.60240  Biso   1.000  O
  O242     1.0000 0.88960  0.98530  0.69970  Biso   1.000  O
  O243     1.0000 0.95020  0.19050  0.49690  Biso   1.000  O
  O244     1.0000 0.96200  0.13460  0.44040  Biso   1.000  O
  O245     1.0000 0.98340  0.21250  0.62950  Biso   1.000  O
  O246     1.0000 0.03950  0.17390  0.69300  Biso   1.000  O
  O247     1.0000 0.81100  0.36350  0.87360  Biso   1.000  O
  O248     1.0000 0.77080  0.41650  0.91670  Biso   1.000  O
  O249     1.0000 0.91530  0.34520  0.81360  Biso   1.000  O
  O250     1.0000 0.98630  0.38790  0.82690  Biso   1.000  O
  O251     1.0000 0.65580  0.54330  0.59510  Biso   1.000  O
  O252     1.0000 0.71440  0.53380  0.51560  Biso   1.000  O
  O253     1.0000 0.81290  0.58930  0.55630  Biso   1.000  O
  O254     1.0000 0.87390  0.60780  0.63360  Biso   1.000  O
  O255     1.0000 0.88350  0.32140  0.45180  Biso   1.000  O
  O256     1.0000 0.85090  0.35670  0.36590  Biso   1.000  O
  O257     1.0000 0.98650  0.34100  0.51590  Biso   1.000  O
  O258     1.0000 0.04690  0.39180  0.51570  Biso   1.000  O
  O259     1.0000 0.74700  0.19030  0.52300  Biso   1.000  O
  O260     1.0000 0.83730  0.20950  0.53100  Biso   1.000  O
  O261     1.0000 0.77100  0.23940  0.58920  Biso   1.000  O
  O262     1.0000 0.75390  0.34010  0.75500  Biso   1.000  O
  O263     1.0000 0.74230  0.30890  0.65810  Biso   1.000  O
  O264     1.0000 0.68110  0.35280  0.68890  Biso   1.000  O
  O265     1.0000 0.88470  0.24692  0.64340  Biso   1.000  O
  O266     1.0000 0.85700  0.30740  0.71660  Biso   1.000  O
  O267     1.0000 0.78790  0.24140  0.72500  Biso   1.000  O
  O268     1.0000 0.83610  0.31100  0.57540  Biso   1.000  O
  O269     1.0000 0.94870  0.31650  0.63560  Biso   1.000  O
  O270     1.0000 0.93570  0.26550  0.52660  Biso   1.000  O
  O271     1.0000 0.82780  0.28860  0.84560  Biso   1.000  O
  O272     1.0000 0.90130  0.24130  0.77870  Biso   1.000  O
  O273     1.0000 0.93870  0.22880  0.02000  Biso   1.000  O
  N37      1.0000 0.80310  0.16730  0.80460  Biso   1.000  N
  N38      1.0000 0.77060  0.04660  0.65710  Biso   1.000  N
  N39      1.0000 0.91010  0.15160  0.59930  Biso   1.000  N
  N40      1.0000 0.84030  0.40240  0.76600  Biso   1.000  N
  N41      1.0000 0.80050  0.51350  0.60380  Biso   1.000  N
  N42      1.0000 0.89400  0.38730  0.53210  Biso   1.000  N
  C229     1.0000 0.86130  0.15690  0.70460  Biso   1.000  C
  H253     1.0000 0.89210  0.14480  0.73170  Biso   1.000  H
  H254     1.0000 0.86820  0.18600  0.70230  Biso   1.000  H
  C230     1.0000 0.80450  0.14910  0.73580  Biso   1.000  C
  H255     1.0000 0.77490  0.16300  0.70820  Biso   1.000  H
  C231     1.0000 0.78990  0.10470  0.73490  Biso   1.000  C
  H256     1.0000 0.75180  0.10070  0.75140  Biso   1.000  H
  H257     1.0000 0.81710  0.09000  0.76370  Biso   1.000  H
  C232     1.0000 0.79190  0.08870  0.66570  Biso   1.000  C
  H258     1.0000 0.76580  0.10580  0.63850  Biso   1.000  H
  C233     1.0000 0.84890  0.09440  0.63960  Biso   1.000  C
  H259     1.0000 0.87770  0.08120  0.66850  Biso   1.000  H
  H260     1.0000 0.85040  0.08240  0.59560  Biso   1.000  H
  C234     1.0000 0.86040  0.13920  0.63630  Biso   1.000  C
  H261     1.0000 0.82690  0.15110  0.61250  Biso   1.000  H
  C235     1.0000 0.74520  0.16350  0.82760  Biso   1.000  C
  H262     1.0000 0.71950  0.15760  0.78970  Biso   1.000  H
  H263     1.0000 0.74400  0.14060  0.85780  Biso   1.000  H
  C236     1.0000 0.72370  0.19980  0.86180  Biso   1.000  C
  C237     1.0000 0.84430  0.14720  0.85130  Biso   1.000  C
  H264     1.0000 0.82540  0.12470  0.87230  Biso   1.000  H
  H265     1.0000 0.87570  0.13630  0.82660  Biso   1.000  H
  C238     1.0000 0.86800  0.17490  0.90320  Biso   1.000  C
  C239     1.0000 0.70920  0.04390  0.66340  Biso   1.000  C
  H266     1.0000 0.69230  0.07070  0.65750  Biso   1.000  H
  H267     1.0000 0.70120  0.03450  0.70780  Biso   1.000  H
  C240     1.0000 0.68300  0.01640  0.61510  Biso   1.000  C
  C241     1.0000 0.80240  0.01810  0.69490  Biso   1.000  C
  H268     1.0000 0.81710  0.03140  0.73510  Biso   1.000  H
  H269     1.0000 0.77630  0.99690  0.70830  Biso   1.000  H
  C242     1.0000 0.85040  0.99880  0.66350  Biso   1.000  C
  C243     1.0000 0.90910  0.13140  0.53630  Biso   1.000  C
  H270     1.0000 0.92460  0.10420  0.54200  Biso   1.000  H
  H271     1.0000 0.86970  0.12900  0.51920  Biso   1.000  H
  C244     1.0000 0.94250  0.15350  0.48840  Biso   1.000  C
  C245     1.0000 0.96530  0.14250  0.63560  Biso   1.000  C
  H272     1.0000 0.98850  0.12570  0.60760  Biso   1.000  H
  H273     1.0000 0.95750  0.12700  0.67520  Biso   1.000  H
  C246     1.0000 0.99800  0.17880  0.65490  Biso   1.000  C
  C247     1.0000 0.87190  0.39640  0.65150  Biso   1.000  C
  H274     1.0000 0.90990  0.40680  0.66330  Biso   1.000  H
  H275     1.0000 0.87240  0.36720  0.65720  Biso   1.000  H
  C248     1.0000 0.82820  0.41530  0.69630  Biso   1.000  C
  H276     1.0000 0.79050  0.40430  0.68250  Biso   1.000  H
  C249     1.0000 0.82530  0.46000  0.68770  Biso   1.000  C
  H277     1.0000 0.79650  0.47110  0.71610  Biso   1.000  H
  H278     1.0000 0.86200  0.47190  0.70090  Biso   1.000  H
  C250     1.0000 0.81010  0.47080  0.61570  Biso   1.000  C
  H279     1.0000 0.77360  0.45720  0.60430  Biso   1.000  H
  C251     1.0000 0.85300  0.45340  0.57100  Biso   1.000  C
  H280     1.0000 0.84250  0.46010  0.52520  Biso   1.000  H
  H281     1.0000 0.89050  0.46500  0.58180  Biso   1.000  H
  C252     1.0000 0.85560  0.40710  0.57920  Biso   1.000  C
  H282     1.0000 0.81680  0.39660  0.56950  Biso   1.000  H
  C253     1.0000 0.79710  0.42050  0.80620  Biso   1.000  C
  H283     1.0000 0.80630  0.44890  0.81390  Biso   1.000  H
  H284     1.0000 0.76000  0.41920  0.78240  Biso   1.000  H
  C254     1.0000 0.79350  0.39950  0.87050  Biso   1.000  C
  C255     1.0000 0.89820  0.41510  0.79140  Biso   1.000  C
  H285     1.0000 0.91660  0.43050  0.75710  Biso   1.000  H
  H286     1.0000 0.89420  0.43290  0.82940  Biso   1.000  H
  C256     1.0000 0.93590  0.37980  0.81160  Biso   1.000  C
  C257     1.0000 0.74710  0.52670  0.62740  Biso   1.000  C
  H287     1.0000 0.73240  0.50580  0.65610  Biso   1.000  H
  H288     1.0000 0.75360  0.55090  0.65420  Biso   1.000  H
  C258     1.0000 0.70380  0.53560  0.57540  Biso   1.000  C
  C259     1.0000 0.84700  0.53910  0.63210  Biso   1.000  C
  H289     1.0000 0.84490  0.53990  0.68010  Biso   1.000  H
  H290     1.0000 0.88380  0.52750  0.62150  Biso   1.000  H
  C260     1.0000 0.84230  0.58220  0.60430  Biso   1.000  C
  C261     1.0000 0.86790  0.39080  0.46530  Biso   1.000  C
  H291     1.0000 0.88760  0.41210  0.44190  Biso   1.000  H
  H292     1.0000 0.82830  0.39930  0.46890  Biso   1.000  H
  C262     1.0000 0.86870  0.35400  0.42580  Biso   1.000  C
  C263     1.0000 0.95030  0.40650  0.53510  Biso   1.000  C
  H293     1.0000 0.95010  0.42880  0.50350  Biso   1.000  H
  H294     1.0000 0.95730  0.41790  0.57920  Biso   1.000  H
  C264     1.0000 0.99880  0.37810  0.52030  Biso   1.000  C
  C265     1.0000 0.78450  0.21290  0.54780  Biso   1.000  C
  C266     1.0000 0.72650  0.33290  0.70090  Biso   1.000  C
  Fe43     1.0000 0.32484  0.73430  0.80873  Biso   1.000  Fe
  Fe44     1.0000 0.41128  0.71775  0.57427  Biso   1.000  Fe
  Fe45     1.0000 0.33264  0.83589  0.78773  Biso   1.000  Fe
  Fe46     1.0000 0.41172  0.81992  0.54727  Biso   1.000  Fe
  Fe47     1.0000 0.31221  0.77601  0.65001  Biso   1.000  Fe
  Fe48     1.0000 0.42371  0.77806  0.70728  Biso   1.000  Fe
  K36      1.0000 0.34001  0.74485  0.41160  Biso   1.000  K
  K37      1.0000 0.44577  0.77884  0.90267  Biso   1.000  K
  K38      1.0000 0.34162  0.41192  0.56520  Biso   1.000  K
  K39      1.0000 0.31550  0.73230  0.02460  Biso   1.000  K
  K40      1.0000 0.31190  0.75560  0.99450  Biso   1.000  K
  Li15     1.0000 0.20250  0.45820  0.50490  Biso   1.000  Li
  Li16     1.0000 0.28630  0.51550  0.54840  Biso   1.000  Li
  O274     1.0000 0.24990  0.73280  0.85550  Biso   1.000  O
  O275     1.0000 0.18100  0.69650  0.89390  Biso   1.000  O
  O276     1.0000 0.35980  0.71230  0.89430  Biso   1.000  O
  O277     1.0000 0.39510  0.66070  0.94980  Biso   1.000  O
  O278     1.0000 0.20850  0.50490  0.56710  Biso   1.000  O
  O279     1.0000 0.13190  0.50700  0.62460  Biso   1.000  O
  O280     1.0000 0.35070  0.49630  0.60240  Biso   1.000  O
  O281     1.0000 0.38960  0.48530  0.69970  Biso   1.000  O
  O282     1.0000 0.45020  0.69050  0.49690  Biso   1.000  O
  O283     1.0000 0.46200  0.63460  0.44040  Biso   1.000  O
  O284     1.0000 0.48340  0.71250  0.62950  Biso   1.000  O
  O285     1.0000 0.53950  0.67390  0.69300  Biso   1.000  O
  O286     1.0000 0.31100  0.86350  0.87360  Biso   1.000  O
  O287     1.0000 0.27080  0.91650  0.91670  Biso   1.000  O
  O288     1.0000 0.41530  0.84520  0.81360  Biso   1.000  O
  O289     1.0000 0.48630  0.88790  0.82690  Biso   1.000  O
  O290     1.0000 0.15580  0.04330  0.59510  Biso   1.000  O
  O291     1.0000 0.21440  0.03380  0.51560  Biso   1.000  O
  O292     1.0000 0.31290  0.08930  0.55630  Biso   1.000  O
  O293     1.0000 0.37390  0.10780  0.63360  Biso   1.000  O
  O294     1.0000 0.38350  0.82140  0.45180  Biso   1.000  O
  O295     1.0000 0.35090  0.85670  0.36590  Biso   1.000  O
  O296     1.0000 0.48650  0.84100  0.51590  Biso   1.000  O
  O297     1.0000 0.54690  0.89180  0.51570  Biso   1.000  O
  O298     1.0000 0.24700  0.69030  0.52300  Biso   1.000  O
  O299     1.0000 0.33730  0.70950  0.53100  Biso   1.000  O
  O300     1.0000 0.27100  0.73940  0.58920  Biso   1.000  O
  O301     1.0000 0.25390  0.84010  0.75500  Biso   1.000  O
  O302     1.0000 0.24230  0.80890  0.65810  Biso   1.000  O
  O303     1.0000 0.18110  0.85280  0.68890  Biso   1.000  O
  O304     1.0000 0.38470  0.74692  0.64340  Biso   1.000  O
  O305     1.0000 0.35700  0.80740  0.71660  Biso   1.000  O
  O306     1.0000 0.28790  0.74140  0.72500  Biso   1.000  O
  O307     1.0000 0.33610  0.81100  0.57540  Biso   1.000  O
  O308     1.0000 0.44870  0.81650  0.63560  Biso   1.000  O
  O309     1.0000 0.43570  0.76550  0.52660  Biso   1.000  O
  O310     1.0000 0.32780  0.78860  0.84560  Biso   1.000  O
  O311     1.0000 0.40130  0.74130  0.77870  Biso   1.000  O
  O312     1.0000 0.43870  0.72880  0.02000  Biso   1.000  O
  N43      1.0000 0.30310  0.66730  0.80460  Biso   1.000  N
  N44      1.0000 0.27060  0.54660  0.65710  Biso   1.000  N
  N45      1.0000 0.41010  0.65160  0.59930  Biso   1.000  N
  N46      1.0000 0.34030  0.90240  0.76600  Biso   1.000  N
  N47      1.0000 0.30050  0.01350  0.60380  Biso   1.000  N
  N48      1.0000 0.39400  0.88730  0.53210  Biso   1.000  N
  C267     1.0000 0.36130  0.65690  0.70460  Biso   1.000  C
  H295     1.0000 0.39210  0.64480  0.73170  Biso   1.000  H
  H296     1.0000 0.36820  0.68600  0.70230  Biso   1.000  H
  C268     1.0000 0.30450  0.64910  0.73580  Biso   1.000  C
  H297     1.0000 0.27490  0.66300  0.70820  Biso   1.000  H
  C269     1.0000 0.28990  0.60470  0.73490  Biso   1.000  C
  H298     1.0000 0.25180  0.60070  0.75140  Biso   1.000  H
  H299     1.0000 0.31710  0.59000  0.76370  Biso   1.000  H
  C270     1.0000 0.29190  0.58870  0.66570  Biso   1.000  C
  H300     1.0000 0.26580  0.60580  0.63850  Biso   1.000  H
  C271     1.0000 0.34890  0.59440  0.63960  Biso   1.000  C
  H301     1.0000 0.37770  0.58120  0.66850  Biso   1.000  H
  H302     1.0000 0.35040  0.58240  0.59560  Biso   1.000  H
  C272     1.0000 0.36040  0.63920  0.63630  Biso   1.000  C
  H303     1.0000 0.32690  0.65110  0.61250  Biso   1.000  H
  C273     1.0000 0.24520  0.66350  0.82760  Biso   1.000  C
  H304     1.0000 0.21950  0.65760  0.78970  Biso   1.000  H
  H305     1.0000 0.24400  0.64060  0.85780  Biso   1.000  H
  C274     1.0000 0.22370  0.69980  0.86180  Biso   1.000  C
  C275     1.0000 0.34430  0.64720  0.85130  Biso   1.000  C
  H306     1.0000 0.32540  0.62470  0.87230  Biso   1.000  H
  H307     1.0000 0.37570  0.63630  0.82660  Biso   1.000  H
  C276     1.0000 0.36800  0.67490  0.90320  Biso   1.000  C
  C277     1.0000 0.20920  0.54390  0.66340  Biso   1.000  C
  H308     1.0000 0.19230  0.57070  0.65750  Biso   1.000  H
  H309     1.0000 0.20120  0.53450  0.70780  Biso   1.000  H
  C278     1.0000 0.18300  0.51640  0.61510  Biso   1.000  C
  C279     1.0000 0.30240  0.51810  0.69490  Biso   1.000  C
  H310     1.0000 0.31710  0.53140  0.73510  Biso   1.000  H
  H311     1.0000 0.27630  0.49690  0.70830  Biso   1.000  H
  C280     1.0000 0.35040  0.49880  0.66350  Biso   1.000  C
  C281     1.0000 0.40910  0.63140  0.53630  Biso   1.000  C
  H312     1.0000 0.42460  0.60420  0.54200  Biso   1.000  H
  H313     1.0000 0.36970  0.62900  0.51920  Biso   1.000  H
  C282     1.0000 0.44250  0.65350  0.48840  Biso   1.000  C
  C283     1.0000 0.46530  0.64250  0.63560  Biso   1.000  C
  H314     1.0000 0.48850  0.62570  0.60760  Biso   1.000  H
  H315     1.0000 0.45750  0.62700  0.67520  Biso   1.000  H
  C284     1.0000 0.49800  0.67880  0.65490  Biso   1.000  C
  C285     1.0000 0.37190  0.89640  0.65150  Biso   1.000  C
  H316     1.0000 0.40990  0.90680  0.66330  Biso   1.000  H
  H317     1.0000 0.37240  0.86720  0.65720  Biso   1.000  H
  C286     1.0000 0.32820  0.91530  0.69630  Biso   1.000  C
  H318     1.0000 0.29050  0.90430  0.68250  Biso   1.000  H
  C287     1.0000 0.32530  0.96000  0.68770  Biso   1.000  C
  H319     1.0000 0.29650  0.97110  0.71610  Biso   1.000  H
  H320     1.0000 0.36200  0.97190  0.70090  Biso   1.000  H
  C288     1.0000 0.31010  0.97080  0.61570  Biso   1.000  C
  H321     1.0000 0.27360  0.95720  0.60430  Biso   1.000  H
  C289     1.0000 0.35300  0.95340  0.57100  Biso   1.000  C
  H322     1.0000 0.34250  0.96010  0.52520  Biso   1.000  H
  H323     1.0000 0.39050  0.96500  0.58180  Biso   1.000  H
  C290     1.0000 0.35560  0.90710  0.57920  Biso   1.000  C
  H324     1.0000 0.31680  0.89660  0.56950  Biso   1.000  H
  C291     1.0000 0.29710  0.92050  0.80620  Biso   1.000  C
  H325     1.0000 0.30630  0.94890  0.81390  Biso   1.000  H
  H326     1.0000 0.26000  0.91920  0.78240  Biso   1.000  H
  C292     1.0000 0.29350  0.89950  0.87050  Biso   1.000  C
  C293     1.0000 0.39820  0.91510  0.79140  Biso   1.000  C
  H327     1.0000 0.41660  0.93050  0.75710  Biso   1.000  H
  H328     1.0000 0.39420  0.93290  0.82940  Biso   1.000  H
  C294     1.0000 0.43590  0.87980  0.81160  Biso   1.000  C
  C295     1.0000 0.24710  0.02670  0.62740  Biso   1.000  C
  H329     1.0000 0.23240  0.00580  0.65610  Biso   1.000  H
  H330     1.0000 0.25360  0.05090  0.65420  Biso   1.000  H
  C296     1.0000 0.20380  0.03560  0.57540  Biso   1.000  C
  C297     1.0000 0.34700  0.03910  0.63210  Biso   1.000  C
  H331     1.0000 0.34490  0.03990  0.68010  Biso   1.000  H
  H332     1.0000 0.38380  0.02750  0.62150  Biso   1.000  H
  C298     1.0000 0.34230  0.08220  0.60430  Biso   1.000  C
  C299     1.0000 0.36790  0.89080  0.46530  Biso   1.000  C
  H333     1.0000 0.38760  0.91210  0.44190  Biso   1.000  H
  H334     1.0000 0.32830  0.89930  0.46890  Biso   1.000  H
  C300     1.0000 0.36870  0.85400  0.42580  Biso   1.000  C
  C301     1.0000 0.45030  0.90650  0.53510  Biso   1.000  C
  H335     1.0000 0.45010  0.92880  0.50350  Biso   1.000  H
  H336     1.0000 0.45730  0.91790  0.57920  Biso   1.000  H
  C302     1.0000 0.49880  0.87810  0.52030  Biso   1.000  C
  C303     1.0000 0.28450  0.71290  0.54780  Biso   1.000  C
  C304     1.0000 0.22650  0.83290  0.70090  Biso   1.000  C
  O313     1.0000 0.00000  0.71320  0.25000  Biso   1.000  O
  O314     1.0000 0.50000  0.21320  0.25000  Biso   1.000  O
  O315     1.0000 0.00000  0.28680  0.75000  Biso   1.000  O
  O316     1.0000 0.50000  0.78680  0.75000  Biso   1.000  O
