data_image0
_cell_length_a       46.627
_cell_length_b       46.627
_cell_length_c       46.627
_cell_angle_alpha    90
_cell_angle_beta     90
_cell_angle_gamma    90

_symmetry_space_group_name_H-M    "P 1"
_symmetry_int_tables_number       1

loop_
  _symmetry_equiv_pos_as_xyz
  'x, y, z'

loop_
  _atom_site_label
  _atom_site_occupancy
  _atom_site_fract_x
  _atom_site_fract_y
  _atom_site_fract_z
  _atom_site_thermal_displace_type
  _atom_site_B_iso_or_equiv
  _atom_site_type_symbol
  O1       1.0000 0.17328  0.21527  0.03014  Biso   1.000  O
  O2       1.0000 0.13968  0.18232  0.03016  Biso   1.000  O
  C1       1.0000 0.15120  0.20401  0.03990  Biso   1.000  C
  C2       1.0000 0.13602  0.21966  0.06318  Biso   1.000  C
  C3       1.0000 0.11274  0.20758  0.07524  Biso   1.000  C
  H1       1.0000 0.10560  0.19010  0.06760  Biso   1.000  H
  C4       1.0000 0.13385  0.25867  0.09654  Biso   1.000  C
  H2       1.0000 0.14160  0.27620  0.10360  Biso   1.000  H
  C5       1.0000 0.14659  0.24581  0.07368  Biso   1.000  C
  H3       1.0000 0.16270  0.25460  0.06480  Biso   1.000  H
  H4       1.0000 0.26240  0.20530  0.01720  Biso   1.000  H
  H5       1.0000 0.22200  0.24630  0.04050  Biso   1.000  H
  C6       1.0000 0.25310  0.22340  0.01970  Biso   1.000  C
  H6       1.0000 0.26170  0.20480  0.01410  Biso   1.000  H
  H7       1.0000 0.24510  0.22140  0.03920  Biso   1.000  H
  O3       1.0000 0.17328  0.71527  0.53014  Biso   1.000  O
  O4       1.0000 0.13968  0.68232  0.53016  Biso   1.000  O
  C7       1.0000 0.15120  0.70401  0.53990  Biso   1.000  C
  C8       1.0000 0.13602  0.71966  0.56318  Biso   1.000  C
  C9       1.0000 0.11274  0.70758  0.57524  Biso   1.000  C
  H8       1.0000 0.10560  0.69010  0.56760  Biso   1.000  H
  C10      1.0000 0.13385  0.75867  0.59654  Biso   1.000  C
  H9       1.0000 0.14160  0.77620  0.60360  Biso   1.000  H
  C11      1.0000 0.14659  0.74581  0.57368  Biso   1.000  C
  H10      1.0000 0.16270  0.75460  0.56480  Biso   1.000  H
  H11      1.0000 0.26240  0.70530  0.51720  Biso   1.000  H
  H12      1.0000 0.22200  0.74630  0.54050  Biso   1.000  H
  C12      1.0000 0.25310  0.72340  0.51970  Biso   1.000  C
  H13      1.0000 0.26170  0.70480  0.51410  Biso   1.000  H
  H14      1.0000 0.24510  0.72140  0.53920  Biso   1.000  H
  O5       1.0000 0.67328  0.21527  0.53014  Biso   1.000  O
  O6       1.0000 0.63968  0.18232  0.53016  Biso   1.000  O
  C13      1.0000 0.65120  0.20401  0.53990  Biso   1.000  C
  C14      1.0000 0.63602  0.21966  0.56318  Biso   1.000  C
  C15      1.0000 0.61274  0.20758  0.57524  Biso   1.000  C
  H15      1.0000 0.60560  0.19010  0.56760  Biso   1.000  H
  C16      1.0000 0.63385  0.25867  0.59654  Biso   1.000  C
  H16      1.0000 0.64160  0.27620  0.60360  Biso   1.000  H
  C17      1.0000 0.64659  0.24581  0.57368  Biso   1.000  C
  H17      1.0000 0.66270  0.25460  0.56480  Biso   1.000  H
  H18      1.0000 0.76240  0.20530  0.51720  Biso   1.000  H
  H19      1.0000 0.72200  0.24630  0.54050  Biso   1.000  H
  C18      1.0000 0.75310  0.22340  0.51970  Biso   1.000  C
  H20      1.0000 0.76170  0.20480  0.51410  Biso   1.000  H
  H21      1.0000 0.74510  0.22140  0.53920  Biso   1.000  H
  O7       1.0000 0.67328  0.71527  0.03014  Biso   1.000  O
  O8       1.0000 0.63968  0.68232  0.03016  Biso   1.000  O
  C19      1.0000 0.65120  0.70401  0.03990  Biso   1.000  C
  C20      1.0000 0.63602  0.71966  0.06318  Biso   1.000  C
  C21      1.0000 0.61274  0.70758  0.07524  Biso   1.000  C
  H22      1.0000 0.60560  0.69010  0.06760  Biso   1.000  H
  C22      1.0000 0.63385  0.75867  0.09654  Biso   1.000  C
  H23      1.0000 0.64160  0.77620  0.10360  Biso   1.000  H
  C23      1.0000 0.64659  0.74581  0.07368  Biso   1.000  C
  H24      1.0000 0.66270  0.75460  0.06480  Biso   1.000  H
  H25      1.0000 0.76240  0.70530  0.01720  Biso   1.000  H
  H26      1.0000 0.72200  0.74630  0.04050  Biso   1.000  H
  C24      1.0000 0.75310  0.72340  0.01970  Biso   1.000  C
  H27      1.0000 0.76170  0.70480  0.01410  Biso   1.000  H
  H28      1.0000 0.74510  0.72140  0.03920  Biso   1.000  H
  O9       1.0000 0.82672  0.78473  0.03014  Biso   1.000  O
  O10      1.0000 0.86032  0.81768  0.03016  Biso   1.000  O
  C25      1.0000 0.84880  0.79599  0.03990  Biso   1.000  C
  C26      1.0000 0.86398  0.78034  0.06318  Biso   1.000  C
  C27      1.0000 0.88726  0.79242  0.07524  Biso   1.000  C
  H29      1.0000 0.89440  0.80990  0.06760  Biso   1.000  H
  C28      1.0000 0.86615  0.74133  0.09654  Biso   1.000  C
  H30      1.0000 0.85840  0.72380  0.10360  Biso   1.000  H
  C29      1.0000 0.85341  0.75419  0.07368  Biso   1.000  C
  H31      1.0000 0.83730  0.74540  0.06480  Biso   1.000  H
  H32      1.0000 0.73760  0.79470  0.01720  Biso   1.000  H
  H33      1.0000 0.77800  0.75370  0.04050  Biso   1.000  H
  C30      1.0000 0.74690  0.77660  0.01970  Biso   1.000  C
  H34      1.0000 0.73830  0.79520  0.01410  Biso   1.000  H
  H35      1.0000 0.75490  0.77860  0.03920  Biso   1.000  H
  O11      1.0000 0.82672  0.28473  0.53014  Biso   1.000  O
  O12      1.0000 0.86032  0.31768  0.53016  Biso   1.000  O
  C31      1.0000 0.84880  0.29599  0.53990  Biso   1.000  C
  C32      1.0000 0.86398  0.28034  0.56318  Biso   1.000  C
  C33      1.0000 0.88726  0.29242  0.57524  Biso   1.000  C
  H36      1.0000 0.89440  0.30990  0.56760  Biso   1.000  H
  C34      1.0000 0.86615  0.24133  0.59654  Biso   1.000  C
  H37      1.0000 0.85840  0.22380  0.60360  Biso   1.000  H
  C35      1.0000 0.85341  0.25419  0.57368  Biso   1.000  C
  H38      1.0000 0.83730  0.24540  0.56480  Biso   1.000  H
  H39      1.0000 0.73760  0.29470  0.51720  Biso   1.000  H
  H40      1.0000 0.77800  0.25370  0.54050  Biso   1.000  H
  C36      1.0000 0.74690  0.27660  0.51970  Biso   1.000  C
  H41      1.0000 0.73830  0.29520  0.51410  Biso   1.000  H
  H42      1.0000 0.75490  0.27860  0.53920  Biso   1.000  H
  O13      1.0000 0.32672  0.78473  0.53014  Biso   1.000  O
  O14      1.0000 0.36032  0.81768  0.53016  Biso   1.000  O
  C37      1.0000 0.34880  0.79599  0.53990  Biso   1.000  C
  C38      1.0000 0.36398  0.78034  0.56318  Biso   1.000  C
  C39      1.0000 0.38726  0.79242  0.57524  Biso   1.000  C
  H43      1.0000 0.39440  0.80990  0.56760  Biso   1.000  H
  C40      1.0000 0.36615  0.74133  0.59654  Biso   1.000  C
  H44      1.0000 0.35840  0.72380  0.60360  Biso   1.000  H
  C41      1.0000 0.35341  0.75419  0.57368  Biso   1.000  C
  H45      1.0000 0.33730  0.74540  0.56480  Biso   1.000  H
  H46      1.0000 0.23760  0.79470  0.51720  Biso   1.000  H
  H47      1.0000 0.27800  0.75370  0.54050  Biso   1.000  H
  C42      1.0000 0.24690  0.77660  0.51970  Biso   1.000  C
  H48      1.0000 0.23830  0.79520  0.51410  Biso   1.000  H
  H49      1.0000 0.25490  0.77860  0.53920  Biso   1.000  H
  O15      1.0000 0.32672  0.28473  0.03014  Biso   1.000  O
  O16      1.0000 0.36032  0.31768  0.03016  Biso   1.000  O
  C43      1.0000 0.34880  0.29599  0.03990  Biso   1.000  C
  C44      1.0000 0.36398  0.28034  0.06318  Biso   1.000  C
  C45      1.0000 0.38726  0.29242  0.07524  Biso   1.000  C
  H50      1.0000 0.39440  0.30990  0.06760  Biso   1.000  H
  C46      1.0000 0.36615  0.24133  0.09654  Biso   1.000  C
  H51      1.0000 0.35840  0.22380  0.10360  Biso   1.000  H
  C47      1.0000 0.35341  0.25419  0.07368  Biso   1.000  C
  H52      1.0000 0.33730  0.24540  0.06480  Biso   1.000  H
  H53      1.0000 0.23760  0.29470  0.01720  Biso   1.000  H
  H54      1.0000 0.27800  0.25370  0.04050  Biso   1.000  H
  C48      1.0000 0.24690  0.27660  0.01970  Biso   1.000  C
  H55      1.0000 0.23830  0.29520  0.01410  Biso   1.000  H
  H56      1.0000 0.25490  0.27860  0.03920  Biso   1.000  H
  O17      1.0000 0.82672  0.21527  0.96986  Biso   1.000  O
  O18      1.0000 0.86032  0.18232  0.96984  Biso   1.000  O
  C49      1.0000 0.84880  0.20401  0.96010  Biso   1.000  C
  C50      1.0000 0.86398  0.21966  0.93682  Biso   1.000  C
  C51      1.0000 0.88726  0.20758  0.92476  Biso   1.000  C
  H57      1.0000 0.89440  0.19010  0.93240  Biso   1.000  H
  C52      1.0000 0.86615  0.25867  0.90346  Biso   1.000  C
  H58      1.0000 0.85840  0.27620  0.89640  Biso   1.000  H
  C53      1.0000 0.85341  0.24581  0.92632  Biso   1.000  C
  H59      1.0000 0.83730  0.25460  0.93520  Biso   1.000  H
  H60      1.0000 0.73760  0.20530  0.98280  Biso   1.000  H
  H61      1.0000 0.77800  0.24630  0.95950  Biso   1.000  H
  C54      1.0000 0.74690  0.22340  0.98030  Biso   1.000  C
  H62      1.0000 0.73830  0.20480  0.98590  Biso   1.000  H
  H63      1.0000 0.75490  0.22140  0.96080  Biso   1.000  H
  O19      1.0000 0.82672  0.71527  0.46986  Biso   1.000  O
  O20      1.0000 0.86032  0.68232  0.46984  Biso   1.000  O
  C55      1.0000 0.84880  0.70401  0.46010  Biso   1.000  C
  C56      1.0000 0.86398  0.71966  0.43682  Biso   1.000  C
  C57      1.0000 0.88726  0.70758  0.42476  Biso   1.000  C
  H64      1.0000 0.89440  0.69010  0.43240  Biso   1.000  H
  C58      1.0000 0.86615  0.75867  0.40346  Biso   1.000  C
  H65      1.0000 0.85840  0.77620  0.39640  Biso   1.000  H
  C59      1.0000 0.85341  0.74581  0.42632  Biso   1.000  C
  H66      1.0000 0.83730  0.75460  0.43520  Biso   1.000  H
  H67      1.0000 0.73760  0.70530  0.48280  Biso   1.000  H
  H68      1.0000 0.77800  0.74630  0.45950  Biso   1.000  H
  C60      1.0000 0.74690  0.72340  0.48030  Biso   1.000  C
  H69      1.0000 0.73830  0.70480  0.48590  Biso   1.000  H
  H70      1.0000 0.75490  0.72140  0.46080  Biso   1.000  H
  O21      1.0000 0.32672  0.21527  0.46986  Biso   1.000  O
  O22      1.0000 0.36032  0.18232  0.46984  Biso   1.000  O
  C61      1.0000 0.34880  0.20401  0.46010  Biso   1.000  C
  C62      1.0000 0.36398  0.21966  0.43682  Biso   1.000  C
  C63      1.0000 0.38726  0.20758  0.42476  Biso   1.000  C
  H71      1.0000 0.39440  0.19010  0.43240  Biso   1.000  H
  C64      1.0000 0.36615  0.25867  0.40346  Biso   1.000  C
  H72      1.0000 0.35840  0.27620  0.39640  Biso   1.000  H
  C65      1.0000 0.35341  0.24581  0.42632  Biso   1.000  C
  H73      1.0000 0.33730  0.25460  0.43520  Biso   1.000  H
  H74      1.0000 0.23760  0.20530  0.48280  Biso   1.000  H
  H75      1.0000 0.27800  0.24630  0.45950  Biso   1.000  H
  C66      1.0000 0.24690  0.22340  0.48030  Biso   1.000  C
  H76      1.0000 0.23830  0.20480  0.48590  Biso   1.000  H
  H77      1.0000 0.25490  0.22140  0.46080  Biso   1.000  H
  O23      1.0000 0.32672  0.71527  0.96986  Biso   1.000  O
  O24      1.0000 0.36032  0.68232  0.96984  Biso   1.000  O
  C67      1.0000 0.34880  0.70401  0.96010  Biso   1.000  C
  C68      1.0000 0.36398  0.71966  0.93682  Biso   1.000  C
  C69      1.0000 0.38726  0.70758  0.92476  Biso   1.000  C
  H78      1.0000 0.39440  0.69010  0.93240  Biso   1.000  H
  C70      1.0000 0.36615  0.75867  0.90346  Biso   1.000  C
  H79      1.0000 0.35840  0.77620  0.89640  Biso   1.000  H
  C71      1.0000 0.35341  0.74581  0.92632  Biso   1.000  C
  H80      1.0000 0.33730  0.75460  0.93520  Biso   1.000  H
  H81      1.0000 0.23760  0.70530  0.98280  Biso   1.000  H
  H82      1.0000 0.27800  0.74630  0.95950  Biso   1.000  H
  C72      1.0000 0.24690  0.72340  0.98030  Biso   1.000  C
  H83      1.0000 0.23830  0.70480  0.98590  Biso   1.000  H
  H84      1.0000 0.25490  0.72140  0.96080  Biso   1.000  H
  O25      1.0000 0.17328  0.78473  0.96986  Biso   1.000  O
  O26      1.0000 0.13968  0.81768  0.96984  Biso   1.000  O
  C73      1.0000 0.15120  0.79599  0.96010  Biso   1.000  C
  C74      1.0000 0.13602  0.78034  0.93682  Biso   1.000  C
  C75      1.0000 0.11274  0.79242  0.92476  Biso   1.000  C
  H85      1.0000 0.10560  0.80990  0.93240  Biso   1.000  H
  C76      1.0000 0.13385  0.74133  0.90346  Biso   1.000  C
  H86      1.0000 0.14160  0.72380  0.89640  Biso   1.000  H
  C77      1.0000 0.14659  0.75419  0.92632  Biso   1.000  C
  H87      1.0000 0.16270  0.74540  0.93520  Biso   1.000  H
  H88      1.0000 0.26240  0.79470  0.98280  Biso   1.000  H
  H89      1.0000 0.22200  0.75370  0.95950  Biso   1.000  H
  C78      1.0000 0.25310  0.77660  0.98030  Biso   1.000  C
  H90      1.0000 0.26170  0.79520  0.98590  Biso   1.000  H
  H91      1.0000 0.24510  0.77860  0.96080  Biso   1.000  H
  O27      1.0000 0.17328  0.28473  0.46986  Biso   1.000  O
  O28      1.0000 0.13968  0.31768  0.46984  Biso   1.000  O
  C79      1.0000 0.15120  0.29599  0.46010  Biso   1.000  C
  C80      1.0000 0.13602  0.28034  0.43682  Biso   1.000  C
  C81      1.0000 0.11274  0.29242  0.42476  Biso   1.000  C
  H92      1.0000 0.10560  0.30990  0.43240  Biso   1.000  H
  C82      1.0000 0.13385  0.24133  0.40346  Biso   1.000  C
  H93      1.0000 0.14160  0.22380  0.39640  Biso   1.000  H
  C83      1.0000 0.14659  0.25419  0.42632  Biso   1.000  C
  H94      1.0000 0.16270  0.24540  0.43520  Biso   1.000  H
  H95      1.0000 0.26240  0.29470  0.48280  Biso   1.000  H
  H96      1.0000 0.22200  0.25370  0.45950  Biso   1.000  H
  C84      1.0000 0.25310  0.27660  0.48030  Biso   1.000  C
  H97      1.0000 0.26170  0.29520  0.48590  Biso   1.000  H
  H98      1.0000 0.24510  0.27860  0.46080  Biso   1.000  H
  O29      1.0000 0.67328  0.78473  0.46986  Biso   1.000  O
  O30      1.0000 0.63968  0.81768  0.46984  Biso   1.000  O
  C85      1.0000 0.65120  0.79599  0.46010  Biso   1.000  C
  C86      1.0000 0.63602  0.78034  0.43682  Biso   1.000  C
  C87      1.0000 0.61274  0.79242  0.42476  Biso   1.000  C
  H99      1.0000 0.60560  0.80990  0.43240  Biso   1.000  H
  C88      1.0000 0.63385  0.74133  0.40346  Biso   1.000  C
  H100     1.0000 0.64160  0.72380  0.39640  Biso   1.000  H
  C89      1.0000 0.64659  0.75419  0.42632  Biso   1.000  C
  H101     1.0000 0.66270  0.74540  0.43520  Biso   1.000  H
  H102     1.0000 0.76240  0.79470  0.48280  Biso   1.000  H
  H103     1.0000 0.72200  0.75370  0.45950  Biso   1.000  H
  C90      1.0000 0.75310  0.77660  0.48030  Biso   1.000  C
  H104     1.0000 0.76170  0.79520  0.48590  Biso   1.000  H
  H105     1.0000 0.74510  0.77860  0.46080  Biso   1.000  H
  O31      1.0000 0.67328  0.28473  0.96986  Biso   1.000  O
  O32      1.0000 0.63968  0.31768  0.96984  Biso   1.000  O
  C91      1.0000 0.65120  0.29599  0.96010  Biso   1.000  C
  C92      1.0000 0.63602  0.28034  0.93682  Biso   1.000  C
  C93      1.0000 0.61274  0.29242  0.92476  Biso   1.000  C
  H106     1.0000 0.60560  0.30990  0.93240  Biso   1.000  H
  C94      1.0000 0.63385  0.24133  0.90346  Biso   1.000  C
  H107     1.0000 0.64160  0.22380  0.89640  Biso   1.000  H
  C95      1.0000 0.64659  0.25419  0.92632  Biso   1.000  C
  H108     1.0000 0.66270  0.24540  0.93520  Biso   1.000  H
  H109     1.0000 0.76240  0.29470  0.98280  Biso   1.000  H
  H110     1.0000 0.72200  0.25370  0.95950  Biso   1.000  H
  C96      1.0000 0.75310  0.27660  0.98030  Biso   1.000  C
  H111     1.0000 0.76170  0.29520  0.98590  Biso   1.000  H
  H112     1.0000 0.74510  0.27860  0.96080  Biso   1.000  H
  O33      1.0000 0.03014  0.17328  0.21527  Biso   1.000  O
  O34      1.0000 0.03016  0.13968  0.18232  Biso   1.000  O
  C97      1.0000 0.03990  0.15120  0.20401  Biso   1.000  C
  C98      1.0000 0.06318  0.13602  0.21966  Biso   1.000  C
  C99      1.0000 0.07524  0.11274  0.20758  Biso   1.000  C
  H113     1.0000 0.06760  0.10560  0.19010  Biso   1.000  H
  C100     1.0000 0.09654  0.13385  0.25867  Biso   1.000  C
  H114     1.0000 0.10360  0.14160  0.27620  Biso   1.000  H
  C101     1.0000 0.07368  0.14659  0.24581  Biso   1.000  C
  H115     1.0000 0.06480  0.16270  0.25460  Biso   1.000  H
  H116     1.0000 0.01720  0.26240  0.20530  Biso   1.000  H
  H117     1.0000 0.04050  0.22200  0.24630  Biso   1.000  H
  C102     1.0000 0.01970  0.25310  0.22340  Biso   1.000  C
  H118     1.0000 0.01410  0.26170  0.20480  Biso   1.000  H
  H119     1.0000 0.03920  0.24510  0.22140  Biso   1.000  H
  O35      1.0000 0.03014  0.67328  0.71527  Biso   1.000  O
  O36      1.0000 0.03016  0.63968  0.68232  Biso   1.000  O
  C103     1.0000 0.03990  0.65120  0.70401  Biso   1.000  C
  C104     1.0000 0.06318  0.63602  0.71966  Biso   1.000  C
  C105     1.0000 0.07524  0.61274  0.70758  Biso   1.000  C
  H120     1.0000 0.06760  0.60560  0.69010  Biso   1.000  H
  C106     1.0000 0.09654  0.63385  0.75867  Biso   1.000  C
  H121     1.0000 0.10360  0.64160  0.77620  Biso   1.000  H
  C107     1.0000 0.07368  0.64659  0.74581  Biso   1.000  C
  H122     1.0000 0.06480  0.66270  0.75460  Biso   1.000  H
  H123     1.0000 0.01720  0.76240  0.70530  Biso   1.000  H
  H124     1.0000 0.04050  0.72200  0.74630  Biso   1.000  H
  C108     1.0000 0.01970  0.75310  0.72340  Biso   1.000  C
  H125     1.0000 0.01410  0.76170  0.70480  Biso   1.000  H
  H126     1.0000 0.03920  0.74510  0.72140  Biso   1.000  H
  O37      1.0000 0.53014  0.17328  0.71527  Biso   1.000  O
  O38      1.0000 0.53016  0.13968  0.68232  Biso   1.000  O
  C109     1.0000 0.53990  0.15120  0.70401  Biso   1.000  C
  C110     1.0000 0.56318  0.13602  0.71966  Biso   1.000  C
  C111     1.0000 0.57524  0.11274  0.70758  Biso   1.000  C
  H127     1.0000 0.56760  0.10560  0.69010  Biso   1.000  H
  C112     1.0000 0.59654  0.13385  0.75867  Biso   1.000  C
  H128     1.0000 0.60360  0.14160  0.77620  Biso   1.000  H
  C113     1.0000 0.57368  0.14659  0.74581  Biso   1.000  C
  H129     1.0000 0.56480  0.16270  0.75460  Biso   1.000  H
  H130     1.0000 0.51720  0.26240  0.70530  Biso   1.000  H
  H131     1.0000 0.54050  0.22200  0.74630  Biso   1.000  H
  C114     1.0000 0.51970  0.25310  0.72340  Biso   1.000  C
  H132     1.0000 0.51410  0.26170  0.70480  Biso   1.000  H
  H133     1.0000 0.53920  0.24510  0.72140  Biso   1.000  H
  O39      1.0000 0.53014  0.67328  0.21527  Biso   1.000  O
  O40      1.0000 0.53016  0.63968  0.18232  Biso   1.000  O
  C115     1.0000 0.53990  0.65120  0.20401  Biso   1.000  C
  C116     1.0000 0.56318  0.63602  0.21966  Biso   1.000  C
  C117     1.0000 0.57524  0.61274  0.20758  Biso   1.000  C
  H134     1.0000 0.56760  0.60560  0.19010  Biso   1.000  H
  C118     1.0000 0.59654  0.63385  0.25867  Biso   1.000  C
  H135     1.0000 0.60360  0.64160  0.27620  Biso   1.000  H
  C119     1.0000 0.57368  0.64659  0.24581  Biso   1.000  C
  H136     1.0000 0.56480  0.66270  0.25460  Biso   1.000  H
  H137     1.0000 0.51720  0.76240  0.20530  Biso   1.000  H
  H138     1.0000 0.54050  0.72200  0.24630  Biso   1.000  H
  C120     1.0000 0.51970  0.75310  0.22340  Biso   1.000  C
  H139     1.0000 0.51410  0.76170  0.20480  Biso   1.000  H
  H140     1.0000 0.53920  0.74510  0.22140  Biso   1.000  H
  O41      1.0000 0.03014  0.82672  0.78473  Biso   1.000  O
  O42      1.0000 0.03016  0.86032  0.81768  Biso   1.000  O
  C121     1.0000 0.03990  0.84880  0.79599  Biso   1.000  C
  C122     1.0000 0.06318  0.86398  0.78034  Biso   1.000  C
  C123     1.0000 0.07524  0.88726  0.79242  Biso   1.000  C
  H141     1.0000 0.06760  0.89440  0.80990  Biso   1.000  H
  C124     1.0000 0.09654  0.86615  0.74133  Biso   1.000  C
  H142     1.0000 0.10360  0.85840  0.72380  Biso   1.000  H
  C125     1.0000 0.07368  0.85341  0.75419  Biso   1.000  C
  H143     1.0000 0.06480  0.83730  0.74540  Biso   1.000  H
  H144     1.0000 0.01720  0.73760  0.79470  Biso   1.000  H
  H145     1.0000 0.04050  0.77800  0.75370  Biso   1.000  H
  C126     1.0000 0.01970  0.74690  0.77660  Biso   1.000  C
  H146     1.0000 0.01410  0.73830  0.79520  Biso   1.000  H
  H147     1.0000 0.03920  0.75490  0.77860  Biso   1.000  H
  O43      1.0000 0.03014  0.32672  0.28473  Biso   1.000  O
  O44      1.0000 0.03016  0.36032  0.31768  Biso   1.000  O
  C127     1.0000 0.03990  0.34880  0.29599  Biso   1.000  C
  C128     1.0000 0.06318  0.36398  0.28034  Biso   1.000  C
  C129     1.0000 0.07524  0.38726  0.29242  Biso   1.000  C
  H148     1.0000 0.06760  0.39440  0.30990  Biso   1.000  H
  C130     1.0000 0.09654  0.36615  0.24133  Biso   1.000  C
  H149     1.0000 0.10360  0.35840  0.22380  Biso   1.000  H
  C131     1.0000 0.07368  0.35341  0.25419  Biso   1.000  C
  H150     1.0000 0.06480  0.33730  0.24540  Biso   1.000  H
  H151     1.0000 0.01720  0.23760  0.29470  Biso   1.000  H
  H152     1.0000 0.04050  0.27800  0.25370  Biso   1.000  H
  C132     1.0000 0.01970  0.24690  0.27660  Biso   1.000  C
  H153     1.0000 0.01410  0.23830  0.29520  Biso   1.000  H
  H154     1.0000 0.03920  0.25490  0.27860  Biso   1.000  H
  O45      1.0000 0.53014  0.82672  0.28473  Biso   1.000  O
  O46      1.0000 0.53016  0.86032  0.31768  Biso   1.000  O
  C133     1.0000 0.53990  0.84880  0.29599  Biso   1.000  C
  C134     1.0000 0.56318  0.86398  0.28034  Biso   1.000  C
  C135     1.0000 0.57524  0.88726  0.29242  Biso   1.000  C
  H155     1.0000 0.56760  0.89440  0.30990  Biso   1.000  H
  C136     1.0000 0.59654  0.86615  0.24133  Biso   1.000  C
  H156     1.0000 0.60360  0.85840  0.22380  Biso   1.000  H
  C137     1.0000 0.57368  0.85341  0.25419  Biso   1.000  C
  H157     1.0000 0.56480  0.83730  0.24540  Biso   1.000  H
  H158     1.0000 0.51720  0.73760  0.29470  Biso   1.000  H
  H159     1.0000 0.54050  0.77800  0.25370  Biso   1.000  H
  C138     1.0000 0.51970  0.74690  0.27660  Biso   1.000  C
  H160     1.0000 0.51410  0.73830  0.29520  Biso   1.000  H
  H161     1.0000 0.53920  0.75490  0.27860  Biso   1.000  H
  O47      1.0000 0.53014  0.32672  0.78473  Biso   1.000  O
  O48      1.0000 0.53016  0.36032  0.81768  Biso   1.000  O
  C139     1.0000 0.53990  0.34880  0.79599  Biso   1.000  C
  C140     1.0000 0.56318  0.36398  0.78034  Biso   1.000  C
  C141     1.0000 0.57524  0.38726  0.79242  Biso   1.000  C
  H162     1.0000 0.56760  0.39440  0.80990  Biso   1.000  H
  C142     1.0000 0.59654  0.36615  0.74133  Biso   1.000  C
  H163     1.0000 0.60360  0.35840  0.72380  Biso   1.000  H
  C143     1.0000 0.57368  0.35341  0.75419  Biso   1.000  C
  H164     1.0000 0.56480  0.33730  0.74540  Biso   1.000  H
  H165     1.0000 0.51720  0.23760  0.79470  Biso   1.000  H
  H166     1.0000 0.54050  0.27800  0.75370  Biso   1.000  H
  C144     1.0000 0.51970  0.24690  0.77660  Biso   1.000  C
  H167     1.0000 0.51410  0.23830  0.79520  Biso   1.000  H
  H168     1.0000 0.53920  0.25490  0.77860  Biso   1.000  H
  O49      1.0000 0.96986  0.82672  0.21527  Biso   1.000  O
  O50      1.0000 0.96984  0.86032  0.18232  Biso   1.000  O
  C145     1.0000 0.96010  0.84880  0.20401  Biso   1.000  C
  C146     1.0000 0.93682  0.86398  0.21966  Biso   1.000  C
  C147     1.0000 0.92476  0.88726  0.20758  Biso   1.000  C
  H169     1.0000 0.93240  0.89440  0.19010  Biso   1.000  H
  C148     1.0000 0.90346  0.86615  0.25867  Biso   1.000  C
  H170     1.0000 0.89640  0.85840  0.27620  Biso   1.000  H
  C149     1.0000 0.92632  0.85341  0.24581  Biso   1.000  C
  H171     1.0000 0.93520  0.83730  0.25460  Biso   1.000  H
  H172     1.0000 0.98280  0.73760  0.20530  Biso   1.000  H
  H173     1.0000 0.95950  0.77800  0.24630  Biso   1.000  H
  C150     1.0000 0.98030  0.74690  0.22340  Biso   1.000  C
  H174     1.0000 0.98590  0.73830  0.20480  Biso   1.000  H
  H175     1.0000 0.96080  0.75490  0.22140  Biso   1.000  H
  O51      1.0000 0.96986  0.32672  0.71527  Biso   1.000  O
  O52      1.0000 0.96984  0.36032  0.68232  Biso   1.000  O
  C151     1.0000 0.96010  0.34880  0.70401  Biso   1.000  C
  C152     1.0000 0.93682  0.36398  0.71966  Biso   1.000  C
  C153     1.0000 0.92476  0.38726  0.70758  Biso   1.000  C
  H176     1.0000 0.93240  0.39440  0.69010  Biso   1.000  H
  C154     1.0000 0.90346  0.36615  0.75867  Biso   1.000  C
  H177     1.0000 0.89640  0.35840  0.77620  Biso   1.000  H
  C155     1.0000 0.92632  0.35341  0.74581  Biso   1.000  C
  H178     1.0000 0.93520  0.33730  0.75460  Biso   1.000  H
  H179     1.0000 0.98280  0.23760  0.70530  Biso   1.000  H
  H180     1.0000 0.95950  0.27800  0.74630  Biso   1.000  H
  C156     1.0000 0.98030  0.24690  0.72340  Biso   1.000  C
  H181     1.0000 0.98590  0.23830  0.70480  Biso   1.000  H
  H182     1.0000 0.96080  0.25490  0.72140  Biso   1.000  H
  O53      1.0000 0.46986  0.82672  0.71527  Biso   1.000  O
  O54      1.0000 0.46984  0.86032  0.68232  Biso   1.000  O
  C157     1.0000 0.46010  0.84880  0.70401  Biso   1.000  C
  C158     1.0000 0.43682  0.86398  0.71966  Biso   1.000  C
  C159     1.0000 0.42476  0.88726  0.70758  Biso   1.000  C
  H183     1.0000 0.43240  0.89440  0.69010  Biso   1.000  H
  C160     1.0000 0.40346  0.86615  0.75867  Biso   1.000  C
  H184     1.0000 0.39640  0.85840  0.77620  Biso   1.000  H
  C161     1.0000 0.42632  0.85341  0.74581  Biso   1.000  C
  H185     1.0000 0.43520  0.83730  0.75460  Biso   1.000  H
  H186     1.0000 0.48280  0.73760  0.70530  Biso   1.000  H
  H187     1.0000 0.45950  0.77800  0.74630  Biso   1.000  H
  C162     1.0000 0.48030  0.74690  0.72340  Biso   1.000  C
  H188     1.0000 0.48590  0.73830  0.70480  Biso   1.000  H
  H189     1.0000 0.46080  0.75490  0.72140  Biso   1.000  H
  O55      1.0000 0.46986  0.32672  0.21527  Biso   1.000  O
  O56      1.0000 0.46984  0.36032  0.18232  Biso   1.000  O
  C163     1.0000 0.46010  0.34880  0.20401  Biso   1.000  C
  C164     1.0000 0.43682  0.36398  0.21966  Biso   1.000  C
  C165     1.0000 0.42476  0.38726  0.20758  Biso   1.000  C
  H190     1.0000 0.43240  0.39440  0.19010  Biso   1.000  H
  C166     1.0000 0.40346  0.36615  0.25867  Biso   1.000  C
  H191     1.0000 0.39640  0.35840  0.27620  Biso   1.000  H
  C167     1.0000 0.42632  0.35341  0.24581  Biso   1.000  C
  H192     1.0000 0.43520  0.33730  0.25460  Biso   1.000  H
  H193     1.0000 0.48280  0.23760  0.20530  Biso   1.000  H
  H194     1.0000 0.45950  0.27800  0.24630  Biso   1.000  H
  C168     1.0000 0.48030  0.24690  0.22340  Biso   1.000  C
  H195     1.0000 0.48590  0.23830  0.20480  Biso   1.000  H
  H196     1.0000 0.46080  0.25490  0.22140  Biso   1.000  H
  O57      1.0000 0.96986  0.17328  0.78473  Biso   1.000  O
  O58      1.0000 0.96984  0.13968  0.81768  Biso   1.000  O
  C169     1.0000 0.96010  0.15120  0.79599  Biso   1.000  C
  C170     1.0000 0.93682  0.13602  0.78034  Biso   1.000  C
  C171     1.0000 0.92476  0.11274  0.79242  Biso   1.000  C
  H197     1.0000 0.93240  0.10560  0.80990  Biso   1.000  H
  C172     1.0000 0.90346  0.13385  0.74133  Biso   1.000  C
  H198     1.0000 0.89640  0.14160  0.72380  Biso   1.000  H
  C173     1.0000 0.92632  0.14659  0.75419  Biso   1.000  C
  H199     1.0000 0.93520  0.16270  0.74540  Biso   1.000  H
  H200     1.0000 0.98280  0.26240  0.79470  Biso   1.000  H
  H201     1.0000 0.95950  0.22200  0.75370  Biso   1.000  H
  C174     1.0000 0.98030  0.25310  0.77660  Biso   1.000  C
  H202     1.0000 0.98590  0.26170  0.79520  Biso   1.000  H
  H203     1.0000 0.96080  0.24510  0.77860  Biso   1.000  H
  O59      1.0000 0.96986  0.67328  0.28473  Biso   1.000  O
  O60      1.0000 0.96984  0.63968  0.31768  Biso   1.000  O
  C175     1.0000 0.96010  0.65120  0.29599  Biso   1.000  C
  C176     1.0000 0.93682  0.63602  0.28034  Biso   1.000  C
  C177     1.0000 0.92476  0.61274  0.29242  Biso   1.000  C
  H204     1.0000 0.93240  0.60560  0.30990  Biso   1.000  H
  C178     1.0000 0.90346  0.63385  0.24133  Biso   1.000  C
  H205     1.0000 0.89640  0.64160  0.22380  Biso   1.000  H
  C179     1.0000 0.92632  0.64659  0.25419  Biso   1.000  C
  H206     1.0000 0.93520  0.66270  0.24540  Biso   1.000  H
  H207     1.0000 0.98280  0.76240  0.29470  Biso   1.000  H
  H208     1.0000 0.95950  0.72200  0.25370  Biso   1.000  H
  C180     1.0000 0.98030  0.75310  0.27660  Biso   1.000  C
  H209     1.0000 0.98590  0.76170  0.29520  Biso   1.000  H
  H210     1.0000 0.96080  0.74510  0.27860  Biso   1.000  H
  O61      1.0000 0.46986  0.17328  0.28473  Biso   1.000  O
  O62      1.0000 0.46984  0.13968  0.31768  Biso   1.000  O
  C181     1.0000 0.46010  0.15120  0.29599  Biso   1.000  C
  C182     1.0000 0.43682  0.13602  0.28034  Biso   1.000  C
  C183     1.0000 0.42476  0.11274  0.29242  Biso   1.000  C
  H211     1.0000 0.43240  0.10560  0.30990  Biso   1.000  H
  C184     1.0000 0.40346  0.13385  0.24133  Biso   1.000  C
  H212     1.0000 0.39640  0.14160  0.22380  Biso   1.000  H
  C185     1.0000 0.42632  0.14659  0.25419  Biso   1.000  C
  H213     1.0000 0.43520  0.16270  0.24540  Biso   1.000  H
  H214     1.0000 0.48280  0.26240  0.29470  Biso   1.000  H
  H215     1.0000 0.45950  0.22200  0.25370  Biso   1.000  H
  C186     1.0000 0.48030  0.25310  0.27660  Biso   1.000  C
  H216     1.0000 0.48590  0.26170  0.29520  Biso   1.000  H
  H217     1.0000 0.46080  0.24510  0.27860  Biso   1.000  H
  O63      1.0000 0.46986  0.67328  0.78473  Biso   1.000  O
  O64      1.0000 0.46984  0.63968  0.81768  Biso   1.000  O
  C187     1.0000 0.46010  0.65120  0.79599  Biso   1.000  C
  C188     1.0000 0.43682  0.63602  0.78034  Biso   1.000  C
  C189     1.0000 0.42476  0.61274  0.79242  Biso   1.000  C
  H218     1.0000 0.43240  0.60560  0.80990  Biso   1.000  H
  C190     1.0000 0.40346  0.63385  0.74133  Biso   1.000  C
  H219     1.0000 0.39640  0.64160  0.72380  Biso   1.000  H
  C191     1.0000 0.42632  0.64659  0.75419  Biso   1.000  C
  H220     1.0000 0.43520  0.66270  0.74540  Biso   1.000  H
  H221     1.0000 0.48280  0.76240  0.79470  Biso   1.000  H
  H222     1.0000 0.45950  0.72200  0.75370  Biso   1.000  H
  C192     1.0000 0.48030  0.75310  0.77660  Biso   1.000  C
  H223     1.0000 0.48590  0.76170  0.79520  Biso   1.000  H
  H224     1.0000 0.46080  0.74510  0.77860  Biso   1.000  H
  O65      1.0000 0.21527  0.03014  0.17328  Biso   1.000  O
  O66      1.0000 0.18232  0.03016  0.13968  Biso   1.000  O
  C193     1.0000 0.20401  0.03990  0.15120  Biso   1.000  C
  C194     1.0000 0.21966  0.06318  0.13602  Biso   1.000  C
  C195     1.0000 0.20758  0.07524  0.11274  Biso   1.000  C
  H225     1.0000 0.19010  0.06760  0.10560  Biso   1.000  H
  C196     1.0000 0.25867  0.09654  0.13385  Biso   1.000  C
  H226     1.0000 0.27620  0.10360  0.14160  Biso   1.000  H
  C197     1.0000 0.24581  0.07368  0.14659  Biso   1.000  C
  H227     1.0000 0.25460  0.06480  0.16270  Biso   1.000  H
  H228     1.0000 0.20530  0.01720  0.26240  Biso   1.000  H
  H229     1.0000 0.24630  0.04050  0.22200  Biso   1.000  H
  C198     1.0000 0.22340  0.01970  0.25310  Biso   1.000  C
  H230     1.0000 0.20480  0.01410  0.26170  Biso   1.000  H
  H231     1.0000 0.22140  0.03920  0.24510  Biso   1.000  H
  O67      1.0000 0.21527  0.53014  0.67328  Biso   1.000  O
  O68      1.0000 0.18232  0.53016  0.63968  Biso   1.000  O
  C199     1.0000 0.20401  0.53990  0.65120  Biso   1.000  C
  C200     1.0000 0.21966  0.56318  0.63602  Biso   1.000  C
  C201     1.0000 0.20758  0.57524  0.61274  Biso   1.000  C
  H232     1.0000 0.19010  0.56760  0.60560  Biso   1.000  H
  C202     1.0000 0.25867  0.59654  0.63385  Biso   1.000  C
  H233     1.0000 0.27620  0.60360  0.64160  Biso   1.000  H
  C203     1.0000 0.24581  0.57368  0.64659  Biso   1.000  C
  H234     1.0000 0.25460  0.56480  0.66270  Biso   1.000  H
  H235     1.0000 0.20530  0.51720  0.76240  Biso   1.000  H
  H236     1.0000 0.24630  0.54050  0.72200  Biso   1.000  H
  C204     1.0000 0.22340  0.51970  0.75310  Biso   1.000  C
  H237     1.0000 0.20480  0.51410  0.76170  Biso   1.000  H
  H238     1.0000 0.22140  0.53920  0.74510  Biso   1.000  H
  O69      1.0000 0.71527  0.03014  0.67328  Biso   1.000  O
  O70      1.0000 0.68232  0.03016  0.63968  Biso   1.000  O
  C205     1.0000 0.70401  0.03990  0.65120  Biso   1.000  C
  C206     1.0000 0.71966  0.06318  0.63602  Biso   1.000  C
  C207     1.0000 0.70758  0.07524  0.61274  Biso   1.000  C
  H239     1.0000 0.69010  0.06760  0.60560  Biso   1.000  H
  C208     1.0000 0.75867  0.09654  0.63385  Biso   1.000  C
  H240     1.0000 0.77620  0.10360  0.64160  Biso   1.000  H
  C209     1.0000 0.74581  0.07368  0.64659  Biso   1.000  C
  H241     1.0000 0.75460  0.06480  0.66270  Biso   1.000  H
  H242     1.0000 0.70530  0.01720  0.76240  Biso   1.000  H
  H243     1.0000 0.74630  0.04050  0.72200  Biso   1.000  H
  C210     1.0000 0.72340  0.01970  0.75310  Biso   1.000  C
  H244     1.0000 0.70480  0.01410  0.76170  Biso   1.000  H
  H245     1.0000 0.72140  0.03920  0.74510  Biso   1.000  H
  O71      1.0000 0.71527  0.53014  0.17328  Biso   1.000  O
  O72      1.0000 0.68232  0.53016  0.13968  Biso   1.000  O
  C211     1.0000 0.70401  0.53990  0.15120  Biso   1.000  C
  C212     1.0000 0.71966  0.56318  0.13602  Biso   1.000  C
  C213     1.0000 0.70758  0.57524  0.11274  Biso   1.000  C
  H246     1.0000 0.69010  0.56760  0.10560  Biso   1.000  H
  C214     1.0000 0.75867  0.59654  0.13385  Biso   1.000  C
  H247     1.0000 0.77620  0.60360  0.14160  Biso   1.000  H
  C215     1.0000 0.74581  0.57368  0.14659  Biso   1.000  C
  H248     1.0000 0.75460  0.56480  0.16270  Biso   1.000  H
  H249     1.0000 0.70530  0.51720  0.26240  Biso   1.000  H
  H250     1.0000 0.74630  0.54050  0.22200  Biso   1.000  H
  C216     1.0000 0.72340  0.51970  0.25310  Biso   1.000  C
  H251     1.0000 0.70480  0.51410  0.26170  Biso   1.000  H
  H252     1.0000 0.72140  0.53920  0.24510  Biso   1.000  H
  O73      1.0000 0.78473  0.03014  0.82672  Biso   1.000  O
  O74      1.0000 0.81768  0.03016  0.86032  Biso   1.000  O
  C217     1.0000 0.79599  0.03990  0.84880  Biso   1.000  C
  C218     1.0000 0.78034  0.06318  0.86398  Biso   1.000  C
  C219     1.0000 0.79242  0.07524  0.88726  Biso   1.000  C
  H253     1.0000 0.80990  0.06760  0.89440  Biso   1.000  H
  C220     1.0000 0.74133  0.09654  0.86615  Biso   1.000  C
  H254     1.0000 0.72380  0.10360  0.85840  Biso   1.000  H
  C221     1.0000 0.75419  0.07368  0.85341  Biso   1.000  C
  H255     1.0000 0.74540  0.06480  0.83730  Biso   1.000  H
  H256     1.0000 0.79470  0.01720  0.73760  Biso   1.000  H
  H257     1.0000 0.75370  0.04050  0.77800  Biso   1.000  H
  C222     1.0000 0.77660  0.01970  0.74690  Biso   1.000  C
  H258     1.0000 0.79520  0.01410  0.73830  Biso   1.000  H
  H259     1.0000 0.77860  0.03920  0.75490  Biso   1.000  H
  O75      1.0000 0.78473  0.53014  0.32672  Biso   1.000  O
  O76      1.0000 0.81768  0.53016  0.36032  Biso   1.000  O
  C223     1.0000 0.79599  0.53990  0.34880  Biso   1.000  C
  C224     1.0000 0.78034  0.56318  0.36398  Biso   1.000  C
  C225     1.0000 0.79242  0.57524  0.38726  Biso   1.000  C
  H260     1.0000 0.80990  0.56760  0.39440  Biso   1.000  H
  C226     1.0000 0.74133  0.59654  0.36615  Biso   1.000  C
  H261     1.0000 0.72380  0.60360  0.35840  Biso   1.000  H
  C227     1.0000 0.75419  0.57368  0.35341  Biso   1.000  C
  H262     1.0000 0.74540  0.56480  0.33730  Biso   1.000  H
  H263     1.0000 0.79470  0.51720  0.23760  Biso   1.000  H
  H264     1.0000 0.75370  0.54050  0.27800  Biso   1.000  H
  C228     1.0000 0.77660  0.51970  0.24690  Biso   1.000  C
  H265     1.0000 0.79520  0.51410  0.23830  Biso   1.000  H
  H266     1.0000 0.77860  0.53920  0.25490  Biso   1.000  H
  O77      1.0000 0.28473  0.03014  0.32672  Biso   1.000  O
  O78      1.0000 0.31768  0.03016  0.36032  Biso   1.000  O
  C229     1.0000 0.29599  0.03990  0.34880  Biso   1.000  C
  C230     1.0000 0.28034  0.06318  0.36398  Biso   1.000  C
  C231     1.0000 0.29242  0.07524  0.38726  Biso   1.000  C
  H267     1.0000 0.30990  0.06760  0.39440  Biso   1.000  H
  C232     1.0000 0.24133  0.09654  0.36615  Biso   1.000  C
  H268     1.0000 0.22380  0.10360  0.35840  Biso   1.000  H
  C233     1.0000 0.25419  0.07368  0.35341  Biso   1.000  C
  H269     1.0000 0.24540  0.06480  0.33730  Biso   1.000  H
  H270     1.0000 0.29470  0.01720  0.23760  Biso   1.000  H
  H271     1.0000 0.25370  0.04050  0.27800  Biso   1.000  H
  C234     1.0000 0.27660  0.01970  0.24690  Biso   1.000  C
  H272     1.0000 0.29520  0.01410  0.23830  Biso   1.000  H
  H273     1.0000 0.27860  0.03920  0.25490  Biso   1.000  H
  O79      1.0000 0.28473  0.53014  0.82672  Biso   1.000  O
  O80      1.0000 0.31768  0.53016  0.86032  Biso   1.000  O
  C235     1.0000 0.29599  0.53990  0.84880  Biso   1.000  C
  C236     1.0000 0.28034  0.56318  0.86398  Biso   1.000  C
  C237     1.0000 0.29242  0.57524  0.88726  Biso   1.000  C
  H274     1.0000 0.30990  0.56760  0.89440  Biso   1.000  H
  C238     1.0000 0.24133  0.59654  0.86615  Biso   1.000  C
  H275     1.0000 0.22380  0.60360  0.85840  Biso   1.000  H
  C239     1.0000 0.25419  0.57368  0.85341  Biso   1.000  C
  H276     1.0000 0.24540  0.56480  0.83730  Biso   1.000  H
  H277     1.0000 0.29470  0.51720  0.73760  Biso   1.000  H
  H278     1.0000 0.25370  0.54050  0.77800  Biso   1.000  H
  C240     1.0000 0.27660  0.51970  0.74690  Biso   1.000  C
  H279     1.0000 0.29520  0.51410  0.73830  Biso   1.000  H
  H280     1.0000 0.27860  0.53920  0.75490  Biso   1.000  H
  O81      1.0000 0.21527  0.96986  0.82672  Biso   1.000  O
  O82      1.0000 0.18232  0.96984  0.86032  Biso   1.000  O
  C241     1.0000 0.20401  0.96010  0.84880  Biso   1.000  C
  C242     1.0000 0.21966  0.93682  0.86398  Biso   1.000  C
  C243     1.0000 0.20758  0.92476  0.88726  Biso   1.000  C
  H281     1.0000 0.19010  0.93240  0.89440  Biso   1.000  H
  C244     1.0000 0.25867  0.90346  0.86615  Biso   1.000  C
  H282     1.0000 0.27620  0.89640  0.85840  Biso   1.000  H
  C245     1.0000 0.24581  0.92632  0.85341  Biso   1.000  C
  H283     1.0000 0.25460  0.93520  0.83730  Biso   1.000  H
  H284     1.0000 0.20530  0.98280  0.73760  Biso   1.000  H
  H285     1.0000 0.24630  0.95950  0.77800  Biso   1.000  H
  C246     1.0000 0.22340  0.98030  0.74690  Biso   1.000  C
  H286     1.0000 0.20480  0.98590  0.73830  Biso   1.000  H
  H287     1.0000 0.22140  0.96080  0.75490  Biso   1.000  H
  O83      1.0000 0.21527  0.46986  0.32672  Biso   1.000  O
  O84      1.0000 0.18232  0.46984  0.36032  Biso   1.000  O
  C247     1.0000 0.20401  0.46010  0.34880  Biso   1.000  C
  C248     1.0000 0.21966  0.43682  0.36398  Biso   1.000  C
  C249     1.0000 0.20758  0.42476  0.38726  Biso   1.000  C
  H288     1.0000 0.19010  0.43240  0.39440  Biso   1.000  H
  C250     1.0000 0.25867  0.40346  0.36615  Biso   1.000  C
  H289     1.0000 0.27620  0.39640  0.35840  Biso   1.000  H
  C251     1.0000 0.24581  0.42632  0.35341  Biso   1.000  C
  H290     1.0000 0.25460  0.43520  0.33730  Biso   1.000  H
  H291     1.0000 0.20530  0.48280  0.23760  Biso   1.000  H
  H292     1.0000 0.24630  0.45950  0.27800  Biso   1.000  H
  C252     1.0000 0.22340  0.48030  0.24690  Biso   1.000  C
  H293     1.0000 0.20480  0.48590  0.23830  Biso   1.000  H
  H294     1.0000 0.22140  0.46080  0.25490  Biso   1.000  H
  O85      1.0000 0.71527  0.96986  0.32672  Biso   1.000  O
  O86      1.0000 0.68232  0.96984  0.36032  Biso   1.000  O
  C253     1.0000 0.70401  0.96010  0.34880  Biso   1.000  C
  C254     1.0000 0.71966  0.93682  0.36398  Biso   1.000  C
  C255     1.0000 0.70758  0.92476  0.38726  Biso   1.000  C
  H295     1.0000 0.69010  0.93240  0.39440  Biso   1.000  H
  C256     1.0000 0.75867  0.90346  0.36615  Biso   1.000  C
  H296     1.0000 0.77620  0.89640  0.35840  Biso   1.000  H
  C257     1.0000 0.74581  0.92632  0.35341  Biso   1.000  C
  H297     1.0000 0.75460  0.93520  0.33730  Biso   1.000  H
  H298     1.0000 0.70530  0.98280  0.23760  Biso   1.000  H
  H299     1.0000 0.74630  0.95950  0.27800  Biso   1.000  H
  C258     1.0000 0.72340  0.98030  0.24690  Biso   1.000  C
  H300     1.0000 0.70480  0.98590  0.23830  Biso   1.000  H
  H301     1.0000 0.72140  0.96080  0.25490  Biso   1.000  H
  O87      1.0000 0.71527  0.46986  0.82672  Biso   1.000  O
  O88      1.0000 0.68232  0.46984  0.86032  Biso   1.000  O
  C259     1.0000 0.70401  0.46010  0.84880  Biso   1.000  C
  C260     1.0000 0.71966  0.43682  0.86398  Biso   1.000  C
  C261     1.0000 0.70758  0.42476  0.88726  Biso   1.000  C
  H302     1.0000 0.69010  0.43240  0.89440  Biso   1.000  H
  C262     1.0000 0.75867  0.40346  0.86615  Biso   1.000  C
  H303     1.0000 0.77620  0.39640  0.85840  Biso   1.000  H
  C263     1.0000 0.74581  0.42632  0.85341  Biso   1.000  C
  H304     1.0000 0.75460  0.43520  0.83730  Biso   1.000  H
  H305     1.0000 0.70530  0.48280  0.73760  Biso   1.000  H
  H306     1.0000 0.74630  0.45950  0.77800  Biso   1.000  H
  C264     1.0000 0.72340  0.48030  0.74690  Biso   1.000  C
  H307     1.0000 0.70480  0.48590  0.73830  Biso   1.000  H
  H308     1.0000 0.72140  0.46080  0.75490  Biso   1.000  H
  O89      1.0000 0.78473  0.96986  0.17328  Biso   1.000  O
  O90      1.0000 0.81768  0.96984  0.13968  Biso   1.000  O
  C265     1.0000 0.79599  0.96010  0.15120  Biso   1.000  C
  C266     1.0000 0.78034  0.93682  0.13602  Biso   1.000  C
  C267     1.0000 0.79242  0.92476  0.11274  Biso   1.000  C
  H309     1.0000 0.80990  0.93240  0.10560  Biso   1.000  H
  C268     1.0000 0.74133  0.90346  0.13385  Biso   1.000  C
  H310     1.0000 0.72380  0.89640  0.14160  Biso   1.000  H
  C269     1.0000 0.75419  0.92632  0.14659  Biso   1.000  C
  H311     1.0000 0.74540  0.93520  0.16270  Biso   1.000  H
  H312     1.0000 0.79470  0.98280  0.26240  Biso   1.000  H
  H313     1.0000 0.75370  0.95950  0.22200  Biso   1.000  H
  C270     1.0000 0.77660  0.98030  0.25310  Biso   1.000  C
  H314     1.0000 0.79520  0.98590  0.26170  Biso   1.000  H
  H315     1.0000 0.77860  0.96080  0.24510  Biso   1.000  H
  O91      1.0000 0.78473  0.46986  0.67328  Biso   1.000  O
  O92      1.0000 0.81768  0.46984  0.63968  Biso   1.000  O
  C271     1.0000 0.79599  0.46010  0.65120  Biso   1.000  C
  C272     1.0000 0.78034  0.43682  0.63602  Biso   1.000  C
  C273     1.0000 0.79242  0.42476  0.61274  Biso   1.000  C
  H316     1.0000 0.80990  0.43240  0.60560  Biso   1.000  H
  C274     1.0000 0.74133  0.40346  0.63385  Biso   1.000  C
  H317     1.0000 0.72380  0.39640  0.64160  Biso   1.000  H
  C275     1.0000 0.75419  0.42632  0.64659  Biso   1.000  C
  H318     1.0000 0.74540  0.43520  0.66270  Biso   1.000  H
  H319     1.0000 0.79470  0.48280  0.76240  Biso   1.000  H
  H320     1.0000 0.75370  0.45950  0.72200  Biso   1.000  H
  C276     1.0000 0.77660  0.48030  0.75310  Biso   1.000  C
  H321     1.0000 0.79520  0.48590  0.76170  Biso   1.000  H
  H322     1.0000 0.77860  0.46080  0.74510  Biso   1.000  H
  O93      1.0000 0.28473  0.96986  0.67328  Biso   1.000  O
  O94      1.0000 0.31768  0.96984  0.63968  Biso   1.000  O
  C277     1.0000 0.29599  0.96010  0.65120  Biso   1.000  C
  C278     1.0000 0.28034  0.93682  0.63602  Biso   1.000  C
  C279     1.0000 0.29242  0.92476  0.61274  Biso   1.000  C
  H323     1.0000 0.30990  0.93240  0.60560  Biso   1.000  H
  C280     1.0000 0.24133  0.90346  0.63385  Biso   1.000  C
  H324     1.0000 0.22380  0.89640  0.64160  Biso   1.000  H
  C281     1.0000 0.25419  0.92632  0.64659  Biso   1.000  C
  H325     1.0000 0.24540  0.93520  0.66270  Biso   1.000  H
  H326     1.0000 0.29470  0.98280  0.76240  Biso   1.000  H
  H327     1.0000 0.25370  0.95950  0.72200  Biso   1.000  H
  C282     1.0000 0.27660  0.98030  0.75310  Biso   1.000  C
  H328     1.0000 0.29520  0.98590  0.76170  Biso   1.000  H
  H329     1.0000 0.27860  0.96080  0.74510  Biso   1.000  H
  O95      1.0000 0.28473  0.46986  0.17328  Biso   1.000  O
  O96      1.0000 0.31768  0.46984  0.13968  Biso   1.000  O
  C283     1.0000 0.29599  0.46010  0.15120  Biso   1.000  C
  C284     1.0000 0.28034  0.43682  0.13602  Biso   1.000  C
  C285     1.0000 0.29242  0.42476  0.11274  Biso   1.000  C
  H330     1.0000 0.30990  0.43240  0.10560  Biso   1.000  H
  C286     1.0000 0.24133  0.40346  0.13385  Biso   1.000  C
  H331     1.0000 0.22380  0.39640  0.14160  Biso   1.000  H
  C287     1.0000 0.25419  0.42632  0.14659  Biso   1.000  C
  H332     1.0000 0.24540  0.43520  0.16270  Biso   1.000  H
  H333     1.0000 0.29470  0.48280  0.26240  Biso   1.000  H
  H334     1.0000 0.25370  0.45950  0.22200  Biso   1.000  H
  C288     1.0000 0.27660  0.48030  0.25310  Biso   1.000  C
  H335     1.0000 0.29520  0.48590  0.26170  Biso   1.000  H
  H336     1.0000 0.27860  0.46080  0.24510  Biso   1.000  H
  O97      1.0000 0.21527  0.17328  0.96986  Biso   1.000  O
  O98      1.0000 0.18232  0.13968  0.96984  Biso   1.000  O
  C289     1.0000 0.20401  0.15120  0.96010  Biso   1.000  C
  C290     1.0000 0.21966  0.13602  0.93682  Biso   1.000  C
  C291     1.0000 0.20758  0.11274  0.92476  Biso   1.000  C
  H337     1.0000 0.19010  0.10560  0.93240  Biso   1.000  H
  C292     1.0000 0.25867  0.13385  0.90346  Biso   1.000  C
  H338     1.0000 0.27620  0.14160  0.89640  Biso   1.000  H
  C293     1.0000 0.24581  0.14659  0.92632  Biso   1.000  C
  H339     1.0000 0.25460  0.16270  0.93520  Biso   1.000  H
  H340     1.0000 0.20530  0.26240  0.98280  Biso   1.000  H
  H341     1.0000 0.24630  0.22200  0.95950  Biso   1.000  H
  C294     1.0000 0.22340  0.25310  0.98030  Biso   1.000  C
  H342     1.0000 0.20480  0.26170  0.98590  Biso   1.000  H
  H343     1.0000 0.22140  0.24510  0.96080  Biso   1.000  H
  O99      1.0000 0.21527  0.67328  0.46986  Biso   1.000  O
  O100     1.0000 0.18232  0.63968  0.46984  Biso   1.000  O
  C295     1.0000 0.20401  0.65120  0.46010  Biso   1.000  C
  C296     1.0000 0.21966  0.63602  0.43682  Biso   1.000  C
  C297     1.0000 0.20758  0.61274  0.42476  Biso   1.000  C
  H344     1.0000 0.19010  0.60560  0.43240  Biso   1.000  H
  C298     1.0000 0.25867  0.63385  0.40346  Biso   1.000  C
  H345     1.0000 0.27620  0.64160  0.39640  Biso   1.000  H
  C299     1.0000 0.24581  0.64659  0.42632  Biso   1.000  C
  H346     1.0000 0.25460  0.66270  0.43520  Biso   1.000  H
  H347     1.0000 0.20530  0.76240  0.48280  Biso   1.000  H
  H348     1.0000 0.24630  0.72200  0.45950  Biso   1.000  H
  C300     1.0000 0.22340  0.75310  0.48030  Biso   1.000  C
  H349     1.0000 0.20480  0.76170  0.48590  Biso   1.000  H
  H350     1.0000 0.22140  0.74510  0.46080  Biso   1.000  H
  O101     1.0000 0.71527  0.17328  0.46986  Biso   1.000  O
  O102     1.0000 0.68232  0.13968  0.46984  Biso   1.000  O
  C301     1.0000 0.70401  0.15120  0.46010  Biso   1.000  C
  C302     1.0000 0.71966  0.13602  0.43682  Biso   1.000  C
  C303     1.0000 0.70758  0.11274  0.42476  Biso   1.000  C
  H351     1.0000 0.69010  0.10560  0.43240  Biso   1.000  H
  C304     1.0000 0.75867  0.13385  0.40346  Biso   1.000  C
  H352     1.0000 0.77620  0.14160  0.39640  Biso   1.000  H
  C305     1.0000 0.74581  0.14659  0.42632  Biso   1.000  C
  H353     1.0000 0.75460  0.16270  0.43520  Biso   1.000  H
  H354     1.0000 0.70530  0.26240  0.48280  Biso   1.000  H
  H355     1.0000 0.74630  0.22200  0.45950  Biso   1.000  H
  C306     1.0000 0.72340  0.25310  0.48030  Biso   1.000  C
  H356     1.0000 0.70480  0.26170  0.48590  Biso   1.000  H
  H357     1.0000 0.72140  0.24510  0.46080  Biso   1.000  H
  O103     1.0000 0.71527  0.67328  0.96986  Biso   1.000  O
  O104     1.0000 0.68232  0.63968  0.96984  Biso   1.000  O
  C307     1.0000 0.70401  0.65120  0.96010  Biso   1.000  C
  C308     1.0000 0.71966  0.63602  0.93682  Biso   1.000  C
  C309     1.0000 0.70758  0.61274  0.92476  Biso   1.000  C
  H358     1.0000 0.69010  0.60560  0.93240  Biso   1.000  H
  C310     1.0000 0.75867  0.63385  0.90346  Biso   1.000  C
  H359     1.0000 0.77620  0.64160  0.89640  Biso   1.000  H
  C311     1.0000 0.74581  0.64659  0.92632  Biso   1.000  C
  H360     1.0000 0.75460  0.66270  0.93520  Biso   1.000  H
  H361     1.0000 0.70530  0.76240  0.98280  Biso   1.000  H
  H362     1.0000 0.74630  0.72200  0.95950  Biso   1.000  H
  C312     1.0000 0.72340  0.75310  0.98030  Biso   1.000  C
  H363     1.0000 0.70480  0.76170  0.98590  Biso   1.000  H
  H364     1.0000 0.72140  0.74510  0.96080  Biso   1.000  H
  O105     1.0000 0.78473  0.82672  0.96986  Biso   1.000  O
  O106     1.0000 0.81768  0.86032  0.96984  Biso   1.000  O
  C313     1.0000 0.79599  0.84880  0.96010  Biso   1.000  C
  C314     1.0000 0.78034  0.86398  0.93682  Biso   1.000  C
  C315     1.0000 0.79242  0.88726  0.92476  Biso   1.000  C
  H365     1.0000 0.80990  0.89440  0.93240  Biso   1.000  H
  C316     1.0000 0.74133  0.86615  0.90346  Biso   1.000  C
  H366     1.0000 0.72380  0.85840  0.89640  Biso   1.000  H
  C317     1.0000 0.75419  0.85341  0.92632  Biso   1.000  C
  H367     1.0000 0.74540  0.83730  0.93520  Biso   1.000  H
  H368     1.0000 0.79470  0.73760  0.98280  Biso   1.000  H
  H369     1.0000 0.75370  0.77800  0.95950  Biso   1.000  H
  C318     1.0000 0.77660  0.74690  0.98030  Biso   1.000  C
  H370     1.0000 0.79520  0.73830  0.98590  Biso   1.000  H
  H371     1.0000 0.77860  0.75490  0.96080  Biso   1.000  H
  O107     1.0000 0.78473  0.32672  0.46986  Biso   1.000  O
  O108     1.0000 0.81768  0.36032  0.46984  Biso   1.000  O
  C319     1.0000 0.79599  0.34880  0.46010  Biso   1.000  C
  C320     1.0000 0.78034  0.36398  0.43682  Biso   1.000  C
  C321     1.0000 0.79242  0.38726  0.42476  Biso   1.000  C
  H372     1.0000 0.80990  0.39440  0.43240  Biso   1.000  H
  C322     1.0000 0.74133  0.36615  0.40346  Biso   1.000  C
  H373     1.0000 0.72380  0.35840  0.39640  Biso   1.000  H
  C323     1.0000 0.75419  0.35341  0.42632  Biso   1.000  C
  H374     1.0000 0.74540  0.33730  0.43520  Biso   1.000  H
  H375     1.0000 0.79470  0.23760  0.48280  Biso   1.000  H
  H376     1.0000 0.75370  0.27800  0.45950  Biso   1.000  H
  C324     1.0000 0.77660  0.24690  0.48030  Biso   1.000  C
  H377     1.0000 0.79520  0.23830  0.48590  Biso   1.000  H
  H378     1.0000 0.77860  0.25490  0.46080  Biso   1.000  H
  O109     1.0000 0.28473  0.82672  0.46986  Biso   1.000  O
  O110     1.0000 0.31768  0.86032  0.46984  Biso   1.000  O
  C325     1.0000 0.29599  0.84880  0.46010  Biso   1.000  C
  C326     1.0000 0.28034  0.86398  0.43682  Biso   1.000  C
  C327     1.0000 0.29242  0.88726  0.42476  Biso   1.000  C
  H379     1.0000 0.30990  0.89440  0.43240  Biso   1.000  H
  C328     1.0000 0.24133  0.86615  0.40346  Biso   1.000  C
  H380     1.0000 0.22380  0.85840  0.39640  Biso   1.000  H
  C329     1.0000 0.25419  0.85341  0.42632  Biso   1.000  C
  H381     1.0000 0.24540  0.83730  0.43520  Biso   1.000  H
  H382     1.0000 0.29470  0.73760  0.48280  Biso   1.000  H
  H383     1.0000 0.25370  0.77800  0.45950  Biso   1.000  H
  C330     1.0000 0.27660  0.74690  0.48030  Biso   1.000  C
  H384     1.0000 0.29520  0.73830  0.48590  Biso   1.000  H
  H385     1.0000 0.27860  0.75490  0.46080  Biso   1.000  H
  O111     1.0000 0.28473  0.32672  0.96986  Biso   1.000  O
  O112     1.0000 0.31768  0.36032  0.96984  Biso   1.000  O
  C331     1.0000 0.29599  0.34880  0.96010  Biso   1.000  C
  C332     1.0000 0.28034  0.36398  0.93682  Biso   1.000  C
  C333     1.0000 0.29242  0.38726  0.92476  Biso   1.000  C
  H386     1.0000 0.30990  0.39440  0.93240  Biso   1.000  H
  C334     1.0000 0.24133  0.36615  0.90346  Biso   1.000  C
  H387     1.0000 0.22380  0.35840  0.89640  Biso   1.000  H
  C335     1.0000 0.25419  0.35341  0.92632  Biso   1.000  C
  H388     1.0000 0.24540  0.33730  0.93520  Biso   1.000  H
  H389     1.0000 0.29470  0.23760  0.98280  Biso   1.000  H
  H390     1.0000 0.25370  0.27800  0.95950  Biso   1.000  H
  C336     1.0000 0.27660  0.24690  0.98030  Biso   1.000  C
  H391     1.0000 0.29520  0.23830  0.98590  Biso   1.000  H
  H392     1.0000 0.27860  0.25490  0.96080  Biso   1.000  H
  O113     1.0000 0.21527  0.82672  0.03014  Biso   1.000  O
  O114     1.0000 0.18232  0.86032  0.03016  Biso   1.000  O
  C337     1.0000 0.20401  0.84880  0.03990  Biso   1.000  C
  C338     1.0000 0.21966  0.86398  0.06318  Biso   1.000  C
  C339     1.0000 0.20758  0.88726  0.07524  Biso   1.000  C
  H393     1.0000 0.19010  0.89440  0.06760  Biso   1.000  H
  C340     1.0000 0.25867  0.86615  0.09654  Biso   1.000  C
  H394     1.0000 0.27620  0.85840  0.10360  Biso   1.000  H
  C341     1.0000 0.24581  0.85341  0.07368  Biso   1.000  C
  H395     1.0000 0.25460  0.83730  0.06480  Biso   1.000  H
  H396     1.0000 0.20530  0.73760  0.01720  Biso   1.000  H
  H397     1.0000 0.24630  0.77800  0.04050  Biso   1.000  H
  C342     1.0000 0.22340  0.74690  0.01970  Biso   1.000  C
  H398     1.0000 0.20480  0.73830  0.01410  Biso   1.000  H
  H399     1.0000 0.22140  0.75490  0.03920  Biso   1.000  H
  O115     1.0000 0.21527  0.32672  0.53014  Biso   1.000  O
  O116     1.0000 0.18232  0.36032  0.53016  Biso   1.000  O
  C343     1.0000 0.20401  0.34880  0.53990  Biso   1.000  C
  C344     1.0000 0.21966  0.36398  0.56318  Biso   1.000  C
  C345     1.0000 0.20758  0.38726  0.57524  Biso   1.000  C
  H400     1.0000 0.19010  0.39440  0.56760  Biso   1.000  H
  C346     1.0000 0.25867  0.36615  0.59654  Biso   1.000  C
  H401     1.0000 0.27620  0.35840  0.60360  Biso   1.000  H
  C347     1.0000 0.24581  0.35341  0.57368  Biso   1.000  C
  H402     1.0000 0.25460  0.33730  0.56480  Biso   1.000  H
  H403     1.0000 0.20530  0.23760  0.51720  Biso   1.000  H
  H404     1.0000 0.24630  0.27800  0.54050  Biso   1.000  H
  C348     1.0000 0.22340  0.24690  0.51970  Biso   1.000  C
  H405     1.0000 0.20480  0.23830  0.51410  Biso   1.000  H
  H406     1.0000 0.22140  0.25490  0.53920  Biso   1.000  H
  O117     1.0000 0.71527  0.82672  0.53014  Biso   1.000  O
  O118     1.0000 0.68232  0.86032  0.53016  Biso   1.000  O
  C349     1.0000 0.70401  0.84880  0.53990  Biso   1.000  C
  C350     1.0000 0.71966  0.86398  0.56318  Biso   1.000  C
  C351     1.0000 0.70758  0.88726  0.57524  Biso   1.000  C
  H407     1.0000 0.69010  0.89440  0.56760  Biso   1.000  H
  C352     1.0000 0.75867  0.86615  0.59654  Biso   1.000  C
  H408     1.0000 0.77620  0.85840  0.60360  Biso   1.000  H
  C353     1.0000 0.74581  0.85341  0.57368  Biso   1.000  C
  H409     1.0000 0.75460  0.83730  0.56480  Biso   1.000  H
  H410     1.0000 0.70530  0.73760  0.51720  Biso   1.000  H
  H411     1.0000 0.74630  0.77800  0.54050  Biso   1.000  H
  C354     1.0000 0.72340  0.74690  0.51970  Biso   1.000  C
  H412     1.0000 0.70480  0.73830  0.51410  Biso   1.000  H
  H413     1.0000 0.72140  0.75490  0.53920  Biso   1.000  H
  O119     1.0000 0.71527  0.32672  0.03014  Biso   1.000  O
  O120     1.0000 0.68232  0.36032  0.03016  Biso   1.000  O
  C355     1.0000 0.70401  0.34880  0.03990  Biso   1.000  C
  C356     1.0000 0.71966  0.36398  0.06318  Biso   1.000  C
  C357     1.0000 0.70758  0.38726  0.07524  Biso   1.000  C
  H414     1.0000 0.69010  0.39440  0.06760  Biso   1.000  H
  C358     1.0000 0.75867  0.36615  0.09654  Biso   1.000  C
  H415     1.0000 0.77620  0.35840  0.10360  Biso   1.000  H
  C359     1.0000 0.74581  0.35341  0.07368  Biso   1.000  C
  H416     1.0000 0.75460  0.33730  0.06480  Biso   1.000  H
  H417     1.0000 0.70530  0.23760  0.01720  Biso   1.000  H
  H418     1.0000 0.74630  0.27800  0.04050  Biso   1.000  H
  C360     1.0000 0.72340  0.24690  0.01970  Biso   1.000  C
  H419     1.0000 0.70480  0.23830  0.01410  Biso   1.000  H
  H420     1.0000 0.72140  0.25490  0.03920  Biso   1.000  H
  O121     1.0000 0.78473  0.17328  0.03014  Biso   1.000  O
  O122     1.0000 0.81768  0.13968  0.03016  Biso   1.000  O
  C361     1.0000 0.79599  0.15120  0.03990  Biso   1.000  C
  C362     1.0000 0.78034  0.13602  0.06318  Biso   1.000  C
  C363     1.0000 0.79242  0.11274  0.07524  Biso   1.000  C
  H421     1.0000 0.80990  0.10560  0.06760  Biso   1.000  H
  C364     1.0000 0.74133  0.13385  0.09654  Biso   1.000  C
  H422     1.0000 0.72380  0.14160  0.10360  Biso   1.000  H
  C365     1.0000 0.75419  0.14659  0.07368  Biso   1.000  C
  H423     1.0000 0.74540  0.16270  0.06480  Biso   1.000  H
  H424     1.0000 0.79470  0.26240  0.01720  Biso   1.000  H
  H425     1.0000 0.75370  0.22200  0.04050  Biso   1.000  H
  C366     1.0000 0.77660  0.25310  0.01970  Biso   1.000  C
  H426     1.0000 0.79520  0.26170  0.01410  Biso   1.000  H
  H427     1.0000 0.77860  0.24510  0.03920  Biso   1.000  H
  O123     1.0000 0.78473  0.67328  0.53014  Biso   1.000  O
  O124     1.0000 0.81768  0.63968  0.53016  Biso   1.000  O
  C367     1.0000 0.79599  0.65120  0.53990  Biso   1.000  C
  C368     1.0000 0.78034  0.63602  0.56318  Biso   1.000  C
  C369     1.0000 0.79242  0.61274  0.57524  Biso   1.000  C
  H428     1.0000 0.80990  0.60560  0.56760  Biso   1.000  H
  C370     1.0000 0.74133  0.63385  0.59654  Biso   1.000  C
  H429     1.0000 0.72380  0.64160  0.60360  Biso   1.000  H
  C371     1.0000 0.75419  0.64659  0.57368  Biso   1.000  C
  H430     1.0000 0.74540  0.66270  0.56480  Biso   1.000  H
  H431     1.0000 0.79470  0.76240  0.51720  Biso   1.000  H
  H432     1.0000 0.75370  0.72200  0.54050  Biso   1.000  H
  C372     1.0000 0.77660  0.75310  0.51970  Biso   1.000  C
  H433     1.0000 0.79520  0.76170  0.51410  Biso   1.000  H
  H434     1.0000 0.77860  0.74510  0.53920  Biso   1.000  H
  O125     1.0000 0.28473  0.17328  0.53014  Biso   1.000  O
  O126     1.0000 0.31768  0.13968  0.53016  Biso   1.000  O
  C373     1.0000 0.29599  0.15120  0.53990  Biso   1.000  C
  C374     1.0000 0.28034  0.13602  0.56318  Biso   1.000  C
  C375     1.0000 0.29242  0.11274  0.57524  Biso   1.000  C
  H435     1.0000 0.30990  0.10560  0.56760  Biso   1.000  H
  C376     1.0000 0.24133  0.13385  0.59654  Biso   1.000  C
  H436     1.0000 0.22380  0.14160  0.60360  Biso   1.000  H
  C377     1.0000 0.25419  0.14659  0.57368  Biso   1.000  C
  H437     1.0000 0.24540  0.16270  0.56480  Biso   1.000  H
  H438     1.0000 0.29470  0.26240  0.51720  Biso   1.000  H
  H439     1.0000 0.25370  0.22200  0.54050  Biso   1.000  H
  C378     1.0000 0.27660  0.25310  0.51970  Biso   1.000  C
  H440     1.0000 0.29520  0.26170  0.51410  Biso   1.000  H
  H441     1.0000 0.27860  0.24510  0.53920  Biso   1.000  H
  O127     1.0000 0.28473  0.67328  0.03014  Biso   1.000  O
  O128     1.0000 0.31768  0.63968  0.03016  Biso   1.000  O
  C379     1.0000 0.29599  0.65120  0.03990  Biso   1.000  C
  C380     1.0000 0.28034  0.63602  0.06318  Biso   1.000  C
  C381     1.0000 0.29242  0.61274  0.07524  Biso   1.000  C
  H442     1.0000 0.30990  0.60560  0.06760  Biso   1.000  H
  C382     1.0000 0.24133  0.63385  0.09654  Biso   1.000  C
  H443     1.0000 0.22380  0.64160  0.10360  Biso   1.000  H
  C383     1.0000 0.25419  0.64659  0.07368  Biso   1.000  C
  H444     1.0000 0.24540  0.66270  0.06480  Biso   1.000  H
  H445     1.0000 0.29470  0.76240  0.01720  Biso   1.000  H
  H446     1.0000 0.25370  0.72200  0.04050  Biso   1.000  H
  C384     1.0000 0.27660  0.75310  0.01970  Biso   1.000  C
  H447     1.0000 0.29520  0.76170  0.01410  Biso   1.000  H
  H448     1.0000 0.27860  0.74510  0.03920  Biso   1.000  H
  O129     1.0000 0.17328  0.03014  0.78473  Biso   1.000  O
  O130     1.0000 0.13968  0.03016  0.81768  Biso   1.000  O
  C385     1.0000 0.15120  0.03990  0.79599  Biso   1.000  C
  C386     1.0000 0.13602  0.06318  0.78034  Biso   1.000  C
  C387     1.0000 0.11274  0.07524  0.79242  Biso   1.000  C
  H449     1.0000 0.10560  0.06760  0.80990  Biso   1.000  H
  C388     1.0000 0.13385  0.09654  0.74133  Biso   1.000  C
  H450     1.0000 0.14160  0.10360  0.72380  Biso   1.000  H
  C389     1.0000 0.14659  0.07368  0.75419  Biso   1.000  C
  H451     1.0000 0.16270  0.06480  0.74540  Biso   1.000  H
  H452     1.0000 0.26240  0.01720  0.79470  Biso   1.000  H
  H453     1.0000 0.22200  0.04050  0.75370  Biso   1.000  H
  C390     1.0000 0.25310  0.01970  0.77660  Biso   1.000  C
  H454     1.0000 0.26170  0.01410  0.79520  Biso   1.000  H
  H455     1.0000 0.24510  0.03920  0.77860  Biso   1.000  H
  O131     1.0000 0.17328  0.53014  0.28473  Biso   1.000  O
  O132     1.0000 0.13968  0.53016  0.31768  Biso   1.000  O
  C391     1.0000 0.15120  0.53990  0.29599  Biso   1.000  C
  C392     1.0000 0.13602  0.56318  0.28034  Biso   1.000  C
  C393     1.0000 0.11274  0.57524  0.29242  Biso   1.000  C
  H456     1.0000 0.10560  0.56760  0.30990  Biso   1.000  H
  C394     1.0000 0.13385  0.59654  0.24133  Biso   1.000  C
  H457     1.0000 0.14160  0.60360  0.22380  Biso   1.000  H
  C395     1.0000 0.14659  0.57368  0.25419  Biso   1.000  C
  H458     1.0000 0.16270  0.56480  0.24540  Biso   1.000  H
  H459     1.0000 0.26240  0.51720  0.29470  Biso   1.000  H
  H460     1.0000 0.22200  0.54050  0.25370  Biso   1.000  H
  C396     1.0000 0.25310  0.51970  0.27660  Biso   1.000  C
  H461     1.0000 0.26170  0.51410  0.29520  Biso   1.000  H
  H462     1.0000 0.24510  0.53920  0.27860  Biso   1.000  H
  O133     1.0000 0.67328  0.03014  0.28473  Biso   1.000  O
  O134     1.0000 0.63968  0.03016  0.31768  Biso   1.000  O
  C397     1.0000 0.65120  0.03990  0.29599  Biso   1.000  C
  C398     1.0000 0.63602  0.06318  0.28034  Biso   1.000  C
  C399     1.0000 0.61274  0.07524  0.29242  Biso   1.000  C
  H463     1.0000 0.60560  0.06760  0.30990  Biso   1.000  H
  C400     1.0000 0.63385  0.09654  0.24133  Biso   1.000  C
  H464     1.0000 0.64160  0.10360  0.22380  Biso   1.000  H
  C401     1.0000 0.64659  0.07368  0.25419  Biso   1.000  C
  H465     1.0000 0.66270  0.06480  0.24540  Biso   1.000  H
  H466     1.0000 0.76240  0.01720  0.29470  Biso   1.000  H
  H467     1.0000 0.72200  0.04050  0.25370  Biso   1.000  H
  C402     1.0000 0.75310  0.01970  0.27660  Biso   1.000  C
  H468     1.0000 0.76170  0.01410  0.29520  Biso   1.000  H
  H469     1.0000 0.74510  0.03920  0.27860  Biso   1.000  H
  O135     1.0000 0.67328  0.53014  0.78473  Biso   1.000  O
  O136     1.0000 0.63968  0.53016  0.81768  Biso   1.000  O
  C403     1.0000 0.65120  0.53990  0.79599  Biso   1.000  C
  C404     1.0000 0.63602  0.56318  0.78034  Biso   1.000  C
  C405     1.0000 0.61274  0.57524  0.79242  Biso   1.000  C
  H470     1.0000 0.60560  0.56760  0.80990  Biso   1.000  H
  C406     1.0000 0.63385  0.59654  0.74133  Biso   1.000  C
  H471     1.0000 0.64160  0.60360  0.72380  Biso   1.000  H
  C407     1.0000 0.64659  0.57368  0.75419  Biso   1.000  C
  H472     1.0000 0.66270  0.56480  0.74540  Biso   1.000  H
  H473     1.0000 0.76240  0.51720  0.79470  Biso   1.000  H
  H474     1.0000 0.72200  0.54050  0.75370  Biso   1.000  H
  C408     1.0000 0.75310  0.51970  0.77660  Biso   1.000  C
  H475     1.0000 0.76170  0.51410  0.79520  Biso   1.000  H
  H476     1.0000 0.74510  0.53920  0.77860  Biso   1.000  H
  O137     1.0000 0.82672  0.03014  0.21527  Biso   1.000  O
  O138     1.0000 0.86032  0.03016  0.18232  Biso   1.000  O
  C409     1.0000 0.84880  0.03990  0.20401  Biso   1.000  C
  C410     1.0000 0.86398  0.06318  0.21966  Biso   1.000  C
  C411     1.0000 0.88726  0.07524  0.20758  Biso   1.000  C
  H477     1.0000 0.89440  0.06760  0.19010  Biso   1.000  H
  C412     1.0000 0.86615  0.09654  0.25867  Biso   1.000  C
  H478     1.0000 0.85840  0.10360  0.27620  Biso   1.000  H
  C413     1.0000 0.85341  0.07368  0.24581  Biso   1.000  C
  H479     1.0000 0.83730  0.06480  0.25460  Biso   1.000  H
  H480     1.0000 0.73760  0.01720  0.20530  Biso   1.000  H
  H481     1.0000 0.77800  0.04050  0.24630  Biso   1.000  H
  C414     1.0000 0.74690  0.01970  0.22340  Biso   1.000  C
  H482     1.0000 0.73830  0.01410  0.20480  Biso   1.000  H
  H483     1.0000 0.75490  0.03920  0.22140  Biso   1.000  H
  O139     1.0000 0.82672  0.53014  0.71527  Biso   1.000  O
  O140     1.0000 0.86032  0.53016  0.68232  Biso   1.000  O
  C415     1.0000 0.84880  0.53990  0.70401  Biso   1.000  C
  C416     1.0000 0.86398  0.56318  0.71966  Biso   1.000  C
  C417     1.0000 0.88726  0.57524  0.70758  Biso   1.000  C
  H484     1.0000 0.89440  0.56760  0.69010  Biso   1.000  H
  C418     1.0000 0.86615  0.59654  0.75867  Biso   1.000  C
  H485     1.0000 0.85840  0.60360  0.77620  Biso   1.000  H
  C419     1.0000 0.85341  0.57368  0.74581  Biso   1.000  C
  H486     1.0000 0.83730  0.56480  0.75460  Biso   1.000  H
  H487     1.0000 0.73760  0.51720  0.70530  Biso   1.000  H
  H488     1.0000 0.77800  0.54050  0.74630  Biso   1.000  H
  C420     1.0000 0.74690  0.51970  0.72340  Biso   1.000  C
  H489     1.0000 0.73830  0.51410  0.70480  Biso   1.000  H
  H490     1.0000 0.75490  0.53920  0.72140  Biso   1.000  H
  O141     1.0000 0.32672  0.03014  0.71527  Biso   1.000  O
  O142     1.0000 0.36032  0.03016  0.68232  Biso   1.000  O
  C421     1.0000 0.34880  0.03990  0.70401  Biso   1.000  C
  C422     1.0000 0.36398  0.06318  0.71966  Biso   1.000  C
  C423     1.0000 0.38726  0.07524  0.70758  Biso   1.000  C
  H491     1.0000 0.39440  0.06760  0.69010  Biso   1.000  H
  C424     1.0000 0.36615  0.09654  0.75867  Biso   1.000  C
  H492     1.0000 0.35840  0.10360  0.77620  Biso   1.000  H
  C425     1.0000 0.35341  0.07368  0.74581  Biso   1.000  C
  H493     1.0000 0.33730  0.06480  0.75460  Biso   1.000  H
  H494     1.0000 0.23760  0.01720  0.70530  Biso   1.000  H
  H495     1.0000 0.27800  0.04050  0.74630  Biso   1.000  H
  C426     1.0000 0.24690  0.01970  0.72340  Biso   1.000  C
  H496     1.0000 0.23830  0.01410  0.70480  Biso   1.000  H
  H497     1.0000 0.25490  0.03920  0.72140  Biso   1.000  H
  O143     1.0000 0.32672  0.53014  0.21527  Biso   1.000  O
  O144     1.0000 0.36032  0.53016  0.18232  Biso   1.000  O
  C427     1.0000 0.34880  0.53990  0.20401  Biso   1.000  C
  C428     1.0000 0.36398  0.56318  0.21966  Biso   1.000  C
  C429     1.0000 0.38726  0.57524  0.20758  Biso   1.000  C
  H498     1.0000 0.39440  0.56760  0.19010  Biso   1.000  H
  C430     1.0000 0.36615  0.59654  0.25867  Biso   1.000  C
  H499     1.0000 0.35840  0.60360  0.27620  Biso   1.000  H
  C431     1.0000 0.35341  0.57368  0.24581  Biso   1.000  C
  H500     1.0000 0.33730  0.56480  0.25460  Biso   1.000  H
  H501     1.0000 0.23760  0.51720  0.20530  Biso   1.000  H
  H502     1.0000 0.27800  0.54050  0.24630  Biso   1.000  H
  C432     1.0000 0.24690  0.51970  0.22340  Biso   1.000  C
  H503     1.0000 0.23830  0.51410  0.20480  Biso   1.000  H
  H504     1.0000 0.25490  0.53920  0.22140  Biso   1.000  H
  O145     1.0000 0.82672  0.96986  0.78473  Biso   1.000  O
  O146     1.0000 0.86032  0.96984  0.81768  Biso   1.000  O
  C433     1.0000 0.84880  0.96010  0.79599  Biso   1.000  C
  C434     1.0000 0.86398  0.93682  0.78034  Biso   1.000  C
  C435     1.0000 0.88726  0.92476  0.79242  Biso   1.000  C
  H505     1.0000 0.89440  0.93240  0.80990  Biso   1.000  H
  C436     1.0000 0.86615  0.90346  0.74133  Biso   1.000  C
  H506     1.0000 0.85840  0.89640  0.72380  Biso   1.000  H
  C437     1.0000 0.85341  0.92632  0.75419  Biso   1.000  C
  H507     1.0000 0.83730  0.93520  0.74540  Biso   1.000  H
  H508     1.0000 0.73760  0.98280  0.79470  Biso   1.000  H
  H509     1.0000 0.77800  0.95950  0.75370  Biso   1.000  H
  C438     1.0000 0.74690  0.98030  0.77660  Biso   1.000  C
  H510     1.0000 0.73830  0.98590  0.79520  Biso   1.000  H
  H511     1.0000 0.75490  0.96080  0.77860  Biso   1.000  H
  O147     1.0000 0.82672  0.46986  0.28473  Biso   1.000  O
  O148     1.0000 0.86032  0.46984  0.31768  Biso   1.000  O
  C439     1.0000 0.84880  0.46010  0.29599  Biso   1.000  C
  C440     1.0000 0.86398  0.43682  0.28034  Biso   1.000  C
  C441     1.0000 0.88726  0.42476  0.29242  Biso   1.000  C
  H512     1.0000 0.89440  0.43240  0.30990  Biso   1.000  H
  C442     1.0000 0.86615  0.40346  0.24133  Biso   1.000  C
  H513     1.0000 0.85840  0.39640  0.22380  Biso   1.000  H
  C443     1.0000 0.85341  0.42632  0.25419  Biso   1.000  C
  H514     1.0000 0.83730  0.43520  0.24540  Biso   1.000  H
  H515     1.0000 0.73760  0.48280  0.29470  Biso   1.000  H
  H516     1.0000 0.77800  0.45950  0.25370  Biso   1.000  H
  C444     1.0000 0.74690  0.48030  0.27660  Biso   1.000  C
  H517     1.0000 0.73830  0.48590  0.29520  Biso   1.000  H
  H518     1.0000 0.75490  0.46080  0.27860  Biso   1.000  H
  O149     1.0000 0.32672  0.96986  0.28473  Biso   1.000  O
  O150     1.0000 0.36032  0.96984  0.31768  Biso   1.000  O
  C445     1.0000 0.34880  0.96010  0.29599  Biso   1.000  C
  C446     1.0000 0.36398  0.93682  0.28034  Biso   1.000  C
  C447     1.0000 0.38726  0.92476  0.29242  Biso   1.000  C
  H519     1.0000 0.39440  0.93240  0.30990  Biso   1.000  H
  C448     1.0000 0.36615  0.90346  0.24133  Biso   1.000  C
  H520     1.0000 0.35840  0.89640  0.22380  Biso   1.000  H
  C449     1.0000 0.35341  0.92632  0.25419  Biso   1.000  C
  H521     1.0000 0.33730  0.93520  0.24540  Biso   1.000  H
  H522     1.0000 0.23760  0.98280  0.29470  Biso   1.000  H
  H523     1.0000 0.27800  0.95950  0.25370  Biso   1.000  H
  C450     1.0000 0.24690  0.98030  0.27660  Biso   1.000  C
  H524     1.0000 0.23830  0.98590  0.29520  Biso   1.000  H
  H525     1.0000 0.25490  0.96080  0.27860  Biso   1.000  H
  O151     1.0000 0.32672  0.46986  0.78473  Biso   1.000  O
  O152     1.0000 0.36032  0.46984  0.81768  Biso   1.000  O
  C451     1.0000 0.34880  0.46010  0.79599  Biso   1.000  C
  C452     1.0000 0.36398  0.43682  0.78034  Biso   1.000  C
  C453     1.0000 0.38726  0.42476  0.79242  Biso   1.000  C
  H526     1.0000 0.39440  0.43240  0.80990  Biso   1.000  H
  C454     1.0000 0.36615  0.40346  0.74133  Biso   1.000  C
  H527     1.0000 0.35840  0.39640  0.72380  Biso   1.000  H
  C455     1.0000 0.35341  0.42632  0.75419  Biso   1.000  C
  H528     1.0000 0.33730  0.43520  0.74540  Biso   1.000  H
  H529     1.0000 0.23760  0.48280  0.79470  Biso   1.000  H
  H530     1.0000 0.27800  0.45950  0.75370  Biso   1.000  H
  C456     1.0000 0.24690  0.48030  0.77660  Biso   1.000  C
  H531     1.0000 0.23830  0.48590  0.79520  Biso   1.000  H
  H532     1.0000 0.25490  0.46080  0.77860  Biso   1.000  H
  O153     1.0000 0.17328  0.96986  0.21527  Biso   1.000  O
  O154     1.0000 0.13968  0.96984  0.18232  Biso   1.000  O
  C457     1.0000 0.15120  0.96010  0.20401  Biso   1.000  C
  C458     1.0000 0.13602  0.93682  0.21966  Biso   1.000  C
  C459     1.0000 0.11274  0.92476  0.20758  Biso   1.000  C
  H533     1.0000 0.10560  0.93240  0.19010  Biso   1.000  H
  C460     1.0000 0.13385  0.90346  0.25867  Biso   1.000  C
  H534     1.0000 0.14160  0.89640  0.27620  Biso   1.000  H
  C461     1.0000 0.14659  0.92632  0.24581  Biso   1.000  C
  H535     1.0000 0.16270  0.93520  0.25460  Biso   1.000  H
  H536     1.0000 0.26240  0.98280  0.20530  Biso   1.000  H
  H537     1.0000 0.22200  0.95950  0.24630  Biso   1.000  H
  C462     1.0000 0.25310  0.98030  0.22340  Biso   1.000  C
  H538     1.0000 0.26170  0.98590  0.20480  Biso   1.000  H
  H539     1.0000 0.24510  0.96080  0.22140  Biso   1.000  H
  O155     1.0000 0.17328  0.46986  0.71527  Biso   1.000  O
  O156     1.0000 0.13968  0.46984  0.68232  Biso   1.000  O
  C463     1.0000 0.15120  0.46010  0.70401  Biso   1.000  C
  C464     1.0000 0.13602  0.43682  0.71966  Biso   1.000  C
  C465     1.0000 0.11274  0.42476  0.70758  Biso   1.000  C
  H540     1.0000 0.10560  0.43240  0.69010  Biso   1.000  H
  C466     1.0000 0.13385  0.40346  0.75867  Biso   1.000  C
  H541     1.0000 0.14160  0.39640  0.77620  Biso   1.000  H
  C467     1.0000 0.14659  0.42632  0.74581  Biso   1.000  C
  H542     1.0000 0.16270  0.43520  0.75460  Biso   1.000  H
  H543     1.0000 0.26240  0.48280  0.70530  Biso   1.000  H
  H544     1.0000 0.22200  0.45950  0.74630  Biso   1.000  H
  C468     1.0000 0.25310  0.48030  0.72340  Biso   1.000  C
  H545     1.0000 0.26170  0.48590  0.70480  Biso   1.000  H
  H546     1.0000 0.24510  0.46080  0.72140  Biso   1.000  H
  O157     1.0000 0.67328  0.96986  0.71527  Biso   1.000  O
  O158     1.0000 0.63968  0.96984  0.68232  Biso   1.000  O
  C469     1.0000 0.65120  0.96010  0.70401  Biso   1.000  C
  C470     1.0000 0.63602  0.93682  0.71966  Biso   1.000  C
  C471     1.0000 0.61274  0.92476  0.70758  Biso   1.000  C
  H547     1.0000 0.60560  0.93240  0.69010  Biso   1.000  H
  C472     1.0000 0.63385  0.90346  0.75867  Biso   1.000  C
  H548     1.0000 0.64160  0.89640  0.77620  Biso   1.000  H
  C473     1.0000 0.64659  0.92632  0.74581  Biso   1.000  C
  H549     1.0000 0.66270  0.93520  0.75460  Biso   1.000  H
  H550     1.0000 0.76240  0.98280  0.70530  Biso   1.000  H
  H551     1.0000 0.72200  0.95950  0.74630  Biso   1.000  H
  C474     1.0000 0.75310  0.98030  0.72340  Biso   1.000  C
  H552     1.0000 0.76170  0.98590  0.70480  Biso   1.000  H
  H553     1.0000 0.74510  0.96080  0.72140  Biso   1.000  H
  O159     1.0000 0.67328  0.46986  0.21527  Biso   1.000  O
  O160     1.0000 0.63968  0.46984  0.18232  Biso   1.000  O
  C475     1.0000 0.65120  0.46010  0.20401  Biso   1.000  C
  C476     1.0000 0.63602  0.43682  0.21966  Biso   1.000  C
  C477     1.0000 0.61274  0.42476  0.20758  Biso   1.000  C
  H554     1.0000 0.60560  0.43240  0.19010  Biso   1.000  H
  C478     1.0000 0.63385  0.40346  0.25867  Biso   1.000  C
  H555     1.0000 0.64160  0.39640  0.27620  Biso   1.000  H
  C479     1.0000 0.64659  0.42632  0.24581  Biso   1.000  C
  H556     1.0000 0.66270  0.43520  0.25460  Biso   1.000  H
  H557     1.0000 0.76240  0.48280  0.20530  Biso   1.000  H
  H558     1.0000 0.72200  0.45950  0.24630  Biso   1.000  H
  C480     1.0000 0.75310  0.48030  0.22340  Biso   1.000  C
  H559     1.0000 0.76170  0.48590  0.20480  Biso   1.000  H
  H560     1.0000 0.74510  0.46080  0.22140  Biso   1.000  H
  O161     1.0000 0.03014  0.21527  0.82672  Biso   1.000  O
  O162     1.0000 0.03016  0.18232  0.86032  Biso   1.000  O
  C481     1.0000 0.03990  0.20401  0.84880  Biso   1.000  C
  C482     1.0000 0.06318  0.21966  0.86398  Biso   1.000  C
  C483     1.0000 0.07524  0.20758  0.88726  Biso   1.000  C
  H561     1.0000 0.06760  0.19010  0.89440  Biso   1.000  H
  C484     1.0000 0.09654  0.25867  0.86615  Biso   1.000  C
  H562     1.0000 0.10360  0.27620  0.85840  Biso   1.000  H
  C485     1.0000 0.07368  0.24581  0.85341  Biso   1.000  C
  H563     1.0000 0.06480  0.25460  0.83730  Biso   1.000  H
  H564     1.0000 0.01720  0.20530  0.73760  Biso   1.000  H
  H565     1.0000 0.04050  0.24630  0.77800  Biso   1.000  H
  C486     1.0000 0.01970  0.22340  0.74690  Biso   1.000  C
  H566     1.0000 0.01410  0.20480  0.73830  Biso   1.000  H
  H567     1.0000 0.03920  0.22140  0.75490  Biso   1.000  H
  O163     1.0000 0.03014  0.71527  0.32672  Biso   1.000  O
  O164     1.0000 0.03016  0.68232  0.36032  Biso   1.000  O
  C487     1.0000 0.03990  0.70401  0.34880  Biso   1.000  C
  C488     1.0000 0.06318  0.71966  0.36398  Biso   1.000  C
  C489     1.0000 0.07524  0.70758  0.38726  Biso   1.000  C
  H568     1.0000 0.06760  0.69010  0.39440  Biso   1.000  H
  C490     1.0000 0.09654  0.75867  0.36615  Biso   1.000  C
  H569     1.0000 0.10360  0.77620  0.35840  Biso   1.000  H
  C491     1.0000 0.07368  0.74581  0.35341  Biso   1.000  C
  H570     1.0000 0.06480  0.75460  0.33730  Biso   1.000  H
  H571     1.0000 0.01720  0.70530  0.23760  Biso   1.000  H
  H572     1.0000 0.04050  0.74630  0.27800  Biso   1.000  H
  C492     1.0000 0.01970  0.72340  0.24690  Biso   1.000  C
  H573     1.0000 0.01410  0.70480  0.23830  Biso   1.000  H
  H574     1.0000 0.03920  0.72140  0.25490  Biso   1.000  H
  O165     1.0000 0.53014  0.21527  0.32672  Biso   1.000  O
  O166     1.0000 0.53016  0.18232  0.36032  Biso   1.000  O
  C493     1.0000 0.53990  0.20401  0.34880  Biso   1.000  C
  C494     1.0000 0.56318  0.21966  0.36398  Biso   1.000  C
  C495     1.0000 0.57524  0.20758  0.38726  Biso   1.000  C
  H575     1.0000 0.56760  0.19010  0.39440  Biso   1.000  H
  C496     1.0000 0.59654  0.25867  0.36615  Biso   1.000  C
  H576     1.0000 0.60360  0.27620  0.35840  Biso   1.000  H
  C497     1.0000 0.57368  0.24581  0.35341  Biso   1.000  C
  H577     1.0000 0.56480  0.25460  0.33730  Biso   1.000  H
  H578     1.0000 0.51720  0.20530  0.23760  Biso   1.000  H
  H579     1.0000 0.54050  0.24630  0.27800  Biso   1.000  H
  C498     1.0000 0.51970  0.22340  0.24690  Biso   1.000  C
  H580     1.0000 0.51410  0.20480  0.23830  Biso   1.000  H
  H581     1.0000 0.53920  0.22140  0.25490  Biso   1.000  H
  O167     1.0000 0.53014  0.71527  0.82672  Biso   1.000  O
  O168     1.0000 0.53016  0.68232  0.86032  Biso   1.000  O
  C499     1.0000 0.53990  0.70401  0.84880  Biso   1.000  C
  C500     1.0000 0.56318  0.71966  0.86398  Biso   1.000  C
  C501     1.0000 0.57524  0.70758  0.88726  Biso   1.000  C
  H582     1.0000 0.56760  0.69010  0.89440  Biso   1.000  H
  C502     1.0000 0.59654  0.75867  0.86615  Biso   1.000  C
  H583     1.0000 0.60360  0.77620  0.85840  Biso   1.000  H
  C503     1.0000 0.57368  0.74581  0.85341  Biso   1.000  C
  H584     1.0000 0.56480  0.75460  0.83730  Biso   1.000  H
  H585     1.0000 0.51720  0.70530  0.73760  Biso   1.000  H
  H586     1.0000 0.54050  0.74630  0.77800  Biso   1.000  H
  C504     1.0000 0.51970  0.72340  0.74690  Biso   1.000  C
  H587     1.0000 0.51410  0.70480  0.73830  Biso   1.000  H
  H588     1.0000 0.53920  0.72140  0.75490  Biso   1.000  H
  O169     1.0000 0.03014  0.78473  0.17328  Biso   1.000  O
  O170     1.0000 0.03016  0.81768  0.13968  Biso   1.000  O
  C505     1.0000 0.03990  0.79599  0.15120  Biso   1.000  C
  C506     1.0000 0.06318  0.78034  0.13602  Biso   1.000  C
  C507     1.0000 0.07524  0.79242  0.11274  Biso   1.000  C
  H589     1.0000 0.06760  0.80990  0.10560  Biso   1.000  H
  C508     1.0000 0.09654  0.74133  0.13385  Biso   1.000  C
  H590     1.0000 0.10360  0.72380  0.14160  Biso   1.000  H
  C509     1.0000 0.07368  0.75419  0.14659  Biso   1.000  C
  H591     1.0000 0.06480  0.74540  0.16270  Biso   1.000  H
  H592     1.0000 0.01720  0.79470  0.26240  Biso   1.000  H
  H593     1.0000 0.04050  0.75370  0.22200  Biso   1.000  H
  C510     1.0000 0.01970  0.77660  0.25310  Biso   1.000  C
  H594     1.0000 0.01410  0.79520  0.26170  Biso   1.000  H
  H595     1.0000 0.03920  0.77860  0.24510  Biso   1.000  H
  O171     1.0000 0.03014  0.28473  0.67328  Biso   1.000  O
  O172     1.0000 0.03016  0.31768  0.63968  Biso   1.000  O
  C511     1.0000 0.03990  0.29599  0.65120  Biso   1.000  C
  C512     1.0000 0.06318  0.28034  0.63602  Biso   1.000  C
  C513     1.0000 0.07524  0.29242  0.61274  Biso   1.000  C
  H596     1.0000 0.06760  0.30990  0.60560  Biso   1.000  H
  C514     1.0000 0.09654  0.24133  0.63385  Biso   1.000  C
  H597     1.0000 0.10360  0.22380  0.64160  Biso   1.000  H
  C515     1.0000 0.07368  0.25419  0.64659  Biso   1.000  C
  H598     1.0000 0.06480  0.24540  0.66270  Biso   1.000  H
  H599     1.0000 0.01720  0.29470  0.76240  Biso   1.000  H
  H600     1.0000 0.04050  0.25370  0.72200  Biso   1.000  H
  C516     1.0000 0.01970  0.27660  0.75310  Biso   1.000  C
  H601     1.0000 0.01410  0.29520  0.76170  Biso   1.000  H
  H602     1.0000 0.03920  0.27860  0.74510  Biso   1.000  H
  O173     1.0000 0.53014  0.78473  0.67328  Biso   1.000  O
  O174     1.0000 0.53016  0.81768  0.63968  Biso   1.000  O
  C517     1.0000 0.53990  0.79599  0.65120  Biso   1.000  C
  C518     1.0000 0.56318  0.78034  0.63602  Biso   1.000  C
  C519     1.0000 0.57524  0.79242  0.61274  Biso   1.000  C
  H603     1.0000 0.56760  0.80990  0.60560  Biso   1.000  H
  C520     1.0000 0.59654  0.74133  0.63385  Biso   1.000  C
  H604     1.0000 0.60360  0.72380  0.64160  Biso   1.000  H
  C521     1.0000 0.57368  0.75419  0.64659  Biso   1.000  C
  H605     1.0000 0.56480  0.74540  0.66270  Biso   1.000  H
  H606     1.0000 0.51720  0.79470  0.76240  Biso   1.000  H
  H607     1.0000 0.54050  0.75370  0.72200  Biso   1.000  H
  C522     1.0000 0.51970  0.77660  0.75310  Biso   1.000  C
  H608     1.0000 0.51410  0.79520  0.76170  Biso   1.000  H
  H609     1.0000 0.53920  0.77860  0.74510  Biso   1.000  H
  O175     1.0000 0.53014  0.28473  0.17328  Biso   1.000  O
  O176     1.0000 0.53016  0.31768  0.13968  Biso   1.000  O
  C523     1.0000 0.53990  0.29599  0.15120  Biso   1.000  C
  C524     1.0000 0.56318  0.28034  0.13602  Biso   1.000  C
  C525     1.0000 0.57524  0.29242  0.11274  Biso   1.000  C
  H610     1.0000 0.56760  0.30990  0.10560  Biso   1.000  H
  C526     1.0000 0.59654  0.24133  0.13385  Biso   1.000  C
  H611     1.0000 0.60360  0.22380  0.14160  Biso   1.000  H
  C527     1.0000 0.57368  0.25419  0.14659  Biso   1.000  C
  H612     1.0000 0.56480  0.24540  0.16270  Biso   1.000  H
  H613     1.0000 0.51720  0.29470  0.26240  Biso   1.000  H
  H614     1.0000 0.54050  0.25370  0.22200  Biso   1.000  H
  C528     1.0000 0.51970  0.27660  0.25310  Biso   1.000  C
  H615     1.0000 0.51410  0.29520  0.26170  Biso   1.000  H
  H616     1.0000 0.53920  0.27860  0.24510  Biso   1.000  H
  O177     1.0000 0.96986  0.21527  0.17328  Biso   1.000  O
  O178     1.0000 0.96984  0.18232  0.13968  Biso   1.000  O
  C529     1.0000 0.96010  0.20401  0.15120  Biso   1.000  C
  C530     1.0000 0.93682  0.21966  0.13602  Biso   1.000  C
  C531     1.0000 0.92476  0.20758  0.11274  Biso   1.000  C
  H617     1.0000 0.93240  0.19010  0.10560  Biso   1.000  H
  C532     1.0000 0.90346  0.25867  0.13385  Biso   1.000  C
  H618     1.0000 0.89640  0.27620  0.14160  Biso   1.000  H
  C533     1.0000 0.92632  0.24581  0.14659  Biso   1.000  C
  H619     1.0000 0.93520  0.25460  0.16270  Biso   1.000  H
  H620     1.0000 0.98280  0.20530  0.26240  Biso   1.000  H
  H621     1.0000 0.95950  0.24630  0.22200  Biso   1.000  H
  C534     1.0000 0.98030  0.22340  0.25310  Biso   1.000  C
  H622     1.0000 0.98590  0.20480  0.26170  Biso   1.000  H
  H623     1.0000 0.96080  0.22140  0.24510  Biso   1.000  H
  O179     1.0000 0.96986  0.71527  0.67328  Biso   1.000  O
  O180     1.0000 0.96984  0.68232  0.63968  Biso   1.000  O
  C535     1.0000 0.96010  0.70401  0.65120  Biso   1.000  C
  C536     1.0000 0.93682  0.71966  0.63602  Biso   1.000  C
  C537     1.0000 0.92476  0.70758  0.61274  Biso   1.000  C
  H624     1.0000 0.93240  0.69010  0.60560  Biso   1.000  H
  C538     1.0000 0.90346  0.75867  0.63385  Biso   1.000  C
  H625     1.0000 0.89640  0.77620  0.64160  Biso   1.000  H
  C539     1.0000 0.92632  0.74581  0.64659  Biso   1.000  C
  H626     1.0000 0.93520  0.75460  0.66270  Biso   1.000  H
  H627     1.0000 0.98280  0.70530  0.76240  Biso   1.000  H
  H628     1.0000 0.95950  0.74630  0.72200  Biso   1.000  H
  C540     1.0000 0.98030  0.72340  0.75310  Biso   1.000  C
  H629     1.0000 0.98590  0.70480  0.76170  Biso   1.000  H
  H630     1.0000 0.96080  0.72140  0.74510  Biso   1.000  H
  O181     1.0000 0.46986  0.21527  0.67328  Biso   1.000  O
  O182     1.0000 0.46984  0.18232  0.63968  Biso   1.000  O
  C541     1.0000 0.46010  0.20401  0.65120  Biso   1.000  C
  C542     1.0000 0.43682  0.21966  0.63602  Biso   1.000  C
  C543     1.0000 0.42476  0.20758  0.61274  Biso   1.000  C
  H631     1.0000 0.43240  0.19010  0.60560  Biso   1.000  H
  C544     1.0000 0.40346  0.25867  0.63385  Biso   1.000  C
  H632     1.0000 0.39640  0.27620  0.64160  Biso   1.000  H
  C545     1.0000 0.42632  0.24581  0.64659  Biso   1.000  C
  H633     1.0000 0.43520  0.25460  0.66270  Biso   1.000  H
  H634     1.0000 0.48280  0.20530  0.76240  Biso   1.000  H
  H635     1.0000 0.45950  0.24630  0.72200  Biso   1.000  H
  C546     1.0000 0.48030  0.22340  0.75310  Biso   1.000  C
  H636     1.0000 0.48590  0.20480  0.76170  Biso   1.000  H
  H637     1.0000 0.46080  0.22140  0.74510  Biso   1.000  H
  O183     1.0000 0.46986  0.71527  0.17328  Biso   1.000  O
  O184     1.0000 0.46984  0.68232  0.13968  Biso   1.000  O
  C547     1.0000 0.46010  0.70401  0.15120  Biso   1.000  C
  C548     1.0000 0.43682  0.71966  0.13602  Biso   1.000  C
  C549     1.0000 0.42476  0.70758  0.11274  Biso   1.000  C
  H638     1.0000 0.43240  0.69010  0.10560  Biso   1.000  H
  C550     1.0000 0.40346  0.75867  0.13385  Biso   1.000  C
  H639     1.0000 0.39640  0.77620  0.14160  Biso   1.000  H
  C551     1.0000 0.42632  0.74581  0.14659  Biso   1.000  C
  H640     1.0000 0.43520  0.75460  0.16270  Biso   1.000  H
  H641     1.0000 0.48280  0.70530  0.26240  Biso   1.000  H
  H642     1.0000 0.45950  0.74630  0.22200  Biso   1.000  H
  C552     1.0000 0.48030  0.72340  0.25310  Biso   1.000  C
  H643     1.0000 0.48590  0.70480  0.26170  Biso   1.000  H
  H644     1.0000 0.46080  0.72140  0.24510  Biso   1.000  H
  O185     1.0000 0.96986  0.78473  0.82672  Biso   1.000  O
  O186     1.0000 0.96984  0.81768  0.86032  Biso   1.000  O
  C553     1.0000 0.96010  0.79599  0.84880  Biso   1.000  C
  C554     1.0000 0.93682  0.78034  0.86398  Biso   1.000  C
  C555     1.0000 0.92476  0.79242  0.88726  Biso   1.000  C
  H645     1.0000 0.93240  0.80990  0.89440  Biso   1.000  H
  C556     1.0000 0.90346  0.74133  0.86615  Biso   1.000  C
  H646     1.0000 0.89640  0.72380  0.85840  Biso   1.000  H
  C557     1.0000 0.92632  0.75419  0.85341  Biso   1.000  C
  H647     1.0000 0.93520  0.74540  0.83730  Biso   1.000  H
  H648     1.0000 0.98280  0.79470  0.73760  Biso   1.000  H
  H649     1.0000 0.95950  0.75370  0.77800  Biso   1.000  H
  C558     1.0000 0.98030  0.77660  0.74690  Biso   1.000  C
  H650     1.0000 0.98590  0.79520  0.73830  Biso   1.000  H
  H651     1.0000 0.96080  0.77860  0.75490  Biso   1.000  H
  O187     1.0000 0.96986  0.28473  0.32672  Biso   1.000  O
  O188     1.0000 0.96984  0.31768  0.36032  Biso   1.000  O
  C559     1.0000 0.96010  0.29599  0.34880  Biso   1.000  C
  C560     1.0000 0.93682  0.28034  0.36398  Biso   1.000  C
  C561     1.0000 0.92476  0.29242  0.38726  Biso   1.000  C
  H652     1.0000 0.93240  0.30990  0.39440  Biso   1.000  H
  C562     1.0000 0.90346  0.24133  0.36615  Biso   1.000  C
  H653     1.0000 0.89640  0.22380  0.35840  Biso   1.000  H
  C563     1.0000 0.92632  0.25419  0.35341  Biso   1.000  C
  H654     1.0000 0.93520  0.24540  0.33730  Biso   1.000  H
  H655     1.0000 0.98280  0.29470  0.23760  Biso   1.000  H
  H656     1.0000 0.95950  0.25370  0.27800  Biso   1.000  H
  C564     1.0000 0.98030  0.27660  0.24690  Biso   1.000  C
  H657     1.0000 0.98590  0.29520  0.23830  Biso   1.000  H
  H658     1.0000 0.96080  0.27860  0.25490  Biso   1.000  H
  O189     1.0000 0.46986  0.78473  0.32672  Biso   1.000  O
  O190     1.0000 0.46984  0.81768  0.36032  Biso   1.000  O
  C565     1.0000 0.46010  0.79599  0.34880  Biso   1.000  C
  C566     1.0000 0.43682  0.78034  0.36398  Biso   1.000  C
  C567     1.0000 0.42476  0.79242  0.38726  Biso   1.000  C
  H659     1.0000 0.43240  0.80990  0.39440  Biso   1.000  H
  C568     1.0000 0.40346  0.74133  0.36615  Biso   1.000  C
  H660     1.0000 0.39640  0.72380  0.35840  Biso   1.000  H
  C569     1.0000 0.42632  0.75419  0.35341  Biso   1.000  C
  H661     1.0000 0.43520  0.74540  0.33730  Biso   1.000  H
  H662     1.0000 0.48280  0.79470  0.23760  Biso   1.000  H
  H663     1.0000 0.45950  0.75370  0.27800  Biso   1.000  H
  C570     1.0000 0.48030  0.77660  0.24690  Biso   1.000  C
  H664     1.0000 0.48590  0.79520  0.23830  Biso   1.000  H
  H665     1.0000 0.46080  0.77860  0.25490  Biso   1.000  H
  O191     1.0000 0.46986  0.28473  0.82672  Biso   1.000  O
  O192     1.0000 0.46984  0.31768  0.86032  Biso   1.000  O
  C571     1.0000 0.46010  0.29599  0.84880  Biso   1.000  C
  C572     1.0000 0.43682  0.28034  0.86398  Biso   1.000  C
  C573     1.0000 0.42476  0.29242  0.88726  Biso   1.000  C
  H666     1.0000 0.43240  0.30990  0.89440  Biso   1.000  H
  C574     1.0000 0.40346  0.24133  0.86615  Biso   1.000  C
  H667     1.0000 0.39640  0.22380  0.85840  Biso   1.000  H
  C575     1.0000 0.42632  0.25419  0.85341  Biso   1.000  C
  H668     1.0000 0.43520  0.24540  0.83730  Biso   1.000  H
  H669     1.0000 0.48280  0.29470  0.73760  Biso   1.000  H
  H670     1.0000 0.45950  0.25370  0.77800  Biso   1.000  H
  C576     1.0000 0.48030  0.27660  0.74690  Biso   1.000  C
  H671     1.0000 0.48590  0.29520  0.73830  Biso   1.000  H
  H672     1.0000 0.46080  0.27860  0.75490  Biso   1.000  H
  O193     1.0000 0.82672  0.78473  0.96986  Biso   1.000  O
  O194     1.0000 0.86032  0.81768  0.96984  Biso   1.000  O
  C577     1.0000 0.84880  0.79599  0.96010  Biso   1.000  C
  C578     1.0000 0.86398  0.78034  0.93682  Biso   1.000  C
  C579     1.0000 0.88726  0.79242  0.92476  Biso   1.000  C
  H673     1.0000 0.89440  0.80990  0.93240  Biso   1.000  H
  C580     1.0000 0.86615  0.74133  0.90346  Biso   1.000  C
  H674     1.0000 0.85840  0.72380  0.89640  Biso   1.000  H
  C581     1.0000 0.85341  0.75419  0.92632  Biso   1.000  C
  H675     1.0000 0.83730  0.74540  0.93520  Biso   1.000  H
  H676     1.0000 0.73760  0.79470  0.98280  Biso   1.000  H
  H677     1.0000 0.77800  0.75370  0.95950  Biso   1.000  H
  C582     1.0000 0.74690  0.77660  0.98030  Biso   1.000  C
  H678     1.0000 0.73830  0.79520  0.98590  Biso   1.000  H
  H679     1.0000 0.75490  0.77860  0.96080  Biso   1.000  H
  O195     1.0000 0.82672  0.28473  0.46986  Biso   1.000  O
  O196     1.0000 0.86032  0.31768  0.46984  Biso   1.000  O
  C583     1.0000 0.84880  0.29599  0.46010  Biso   1.000  C
  C584     1.0000 0.86398  0.28034  0.43682  Biso   1.000  C
  C585     1.0000 0.88726  0.29242  0.42476  Biso   1.000  C
  H680     1.0000 0.89440  0.30990  0.43240  Biso   1.000  H
  C586     1.0000 0.86615  0.24133  0.40346  Biso   1.000  C
  H681     1.0000 0.85840  0.22380  0.39640  Biso   1.000  H
  C587     1.0000 0.85341  0.25419  0.42632  Biso   1.000  C
  H682     1.0000 0.83730  0.24540  0.43520  Biso   1.000  H
  H683     1.0000 0.73760  0.29470  0.48280  Biso   1.000  H
  H684     1.0000 0.77800  0.25370  0.45950  Biso   1.000  H
  C588     1.0000 0.74690  0.27660  0.48030  Biso   1.000  C
  H685     1.0000 0.73830  0.29520  0.48590  Biso   1.000  H
  H686     1.0000 0.75490  0.27860  0.46080  Biso   1.000  H
  O197     1.0000 0.32672  0.78473  0.46986  Biso   1.000  O
  O198     1.0000 0.36032  0.81768  0.46984  Biso   1.000  O
  C589     1.0000 0.34880  0.79599  0.46010  Biso   1.000  C
  C590     1.0000 0.36398  0.78034  0.43682  Biso   1.000  C
  C591     1.0000 0.38726  0.79242  0.42476  Biso   1.000  C
  H687     1.0000 0.39440  0.80990  0.43240  Biso   1.000  H
  C592     1.0000 0.36615  0.74133  0.40346  Biso   1.000  C
  H688     1.0000 0.35840  0.72380  0.39640  Biso   1.000  H
  C593     1.0000 0.35341  0.75419  0.42632  Biso   1.000  C
  H689     1.0000 0.33730  0.74540  0.43520  Biso   1.000  H
  H690     1.0000 0.23760  0.79470  0.48280  Biso   1.000  H
  H691     1.0000 0.27800  0.75370  0.45950  Biso   1.000  H
  C594     1.0000 0.24690  0.77660  0.48030  Biso   1.000  C
  H692     1.0000 0.23830  0.79520  0.48590  Biso   1.000  H
  H693     1.0000 0.25490  0.77860  0.46080  Biso   1.000  H
  O199     1.0000 0.32672  0.28473  0.96986  Biso   1.000  O
  O200     1.0000 0.36032  0.31768  0.96984  Biso   1.000  O
  C595     1.0000 0.34880  0.29599  0.96010  Biso   1.000  C
  C596     1.0000 0.36398  0.28034  0.93682  Biso   1.000  C
  C597     1.0000 0.38726  0.29242  0.92476  Biso   1.000  C
  H694     1.0000 0.39440  0.30990  0.93240  Biso   1.000  H
  C598     1.0000 0.36615  0.24133  0.90346  Biso   1.000  C
  H695     1.0000 0.35840  0.22380  0.89640  Biso   1.000  H
  C599     1.0000 0.35341  0.25419  0.92632  Biso   1.000  C
  H696     1.0000 0.33730  0.24540  0.93520  Biso   1.000  H
  H697     1.0000 0.23760  0.29470  0.98280  Biso   1.000  H
  H698     1.0000 0.27800  0.25370  0.95950  Biso   1.000  H
  C600     1.0000 0.24690  0.27660  0.98030  Biso   1.000  C
  H699     1.0000 0.23830  0.29520  0.98590  Biso   1.000  H
  H700     1.0000 0.25490  0.27860  0.96080  Biso   1.000  H
  O201     1.0000 0.17328  0.21527  0.96986  Biso   1.000  O
  O202     1.0000 0.13968  0.18232  0.96984  Biso   1.000  O
  C601     1.0000 0.15120  0.20401  0.96010  Biso   1.000  C
  C602     1.0000 0.13602  0.21966  0.93682  Biso   1.000  C
  C603     1.0000 0.11274  0.20758  0.92476  Biso   1.000  C
  H701     1.0000 0.10560  0.19010  0.93240  Biso   1.000  H
  C604     1.0000 0.13385  0.25867  0.90346  Biso   1.000  C
  H702     1.0000 0.14160  0.27620  0.89640  Biso   1.000  H
  C605     1.0000 0.14659  0.24581  0.92632  Biso   1.000  C
  H703     1.0000 0.16270  0.25460  0.93520  Biso   1.000  H
  H704     1.0000 0.26240  0.20530  0.98280  Biso   1.000  H
  H705     1.0000 0.22200  0.24630  0.95950  Biso   1.000  H
  C606     1.0000 0.25310  0.22340  0.98030  Biso   1.000  C
  H706     1.0000 0.26170  0.20480  0.98590  Biso   1.000  H
  H707     1.0000 0.24510  0.22140  0.96080  Biso   1.000  H
  O203     1.0000 0.17328  0.71527  0.46986  Biso   1.000  O
  O204     1.0000 0.13968  0.68232  0.46984  Biso   1.000  O
  C607     1.0000 0.15120  0.70401  0.46010  Biso   1.000  C
  C608     1.0000 0.13602  0.71966  0.43682  Biso   1.000  C
  C609     1.0000 0.11274  0.70758  0.42476  Biso   1.000  C
  H708     1.0000 0.10560  0.69010  0.43240  Biso   1.000  H
  C610     1.0000 0.13385  0.75867  0.40346  Biso   1.000  C
  H709     1.0000 0.14160  0.77620  0.39640  Biso   1.000  H
  C611     1.0000 0.14659  0.74581  0.42632  Biso   1.000  C
  H710     1.0000 0.16270  0.75460  0.43520  Biso   1.000  H
  H711     1.0000 0.26240  0.70530  0.48280  Biso   1.000  H
  H712     1.0000 0.22200  0.74630  0.45950  Biso   1.000  H
  C612     1.0000 0.25310  0.72340  0.48030  Biso   1.000  C
  H713     1.0000 0.26170  0.70480  0.48590  Biso   1.000  H
  H714     1.0000 0.24510  0.72140  0.46080  Biso   1.000  H
  O205     1.0000 0.67328  0.21527  0.46986  Biso   1.000  O
  O206     1.0000 0.63968  0.18232  0.46984  Biso   1.000  O
  C613     1.0000 0.65120  0.20401  0.46010  Biso   1.000  C
  C614     1.0000 0.63602  0.21966  0.43682  Biso   1.000  C
  C615     1.0000 0.61274  0.20758  0.42476  Biso   1.000  C
  H715     1.0000 0.60560  0.19010  0.43240  Biso   1.000  H
  C616     1.0000 0.63385  0.25867  0.40346  Biso   1.000  C
  H716     1.0000 0.64160  0.27620  0.39640  Biso   1.000  H
  C617     1.0000 0.64659  0.24581  0.42632  Biso   1.000  C
  H717     1.0000 0.66270  0.25460  0.43520  Biso   1.000  H
  H718     1.0000 0.76240  0.20530  0.48280  Biso   1.000  H
  H719     1.0000 0.72200  0.24630  0.45950  Biso   1.000  H
  C618     1.0000 0.75310  0.22340  0.48030  Biso   1.000  C
  H720     1.0000 0.76170  0.20480  0.48590  Biso   1.000  H
  H721     1.0000 0.74510  0.22140  0.46080  Biso   1.000  H
  O207     1.0000 0.67328  0.71527  0.96986  Biso   1.000  O
  O208     1.0000 0.63968  0.68232  0.96984  Biso   1.000  O
  C619     1.0000 0.65120  0.70401  0.96010  Biso   1.000  C
  C620     1.0000 0.63602  0.71966  0.93682  Biso   1.000  C
  C621     1.0000 0.61274  0.70758  0.92476  Biso   1.000  C
  H722     1.0000 0.60560  0.69010  0.93240  Biso   1.000  H
  C622     1.0000 0.63385  0.75867  0.90346  Biso   1.000  C
  H723     1.0000 0.64160  0.77620  0.89640  Biso   1.000  H
  C623     1.0000 0.64659  0.74581  0.92632  Biso   1.000  C
  H724     1.0000 0.66270  0.75460  0.93520  Biso   1.000  H
  H725     1.0000 0.76240  0.70530  0.98280  Biso   1.000  H
  H726     1.0000 0.72200  0.74630  0.95950  Biso   1.000  H
  C624     1.0000 0.75310  0.72340  0.98030  Biso   1.000  C
  H727     1.0000 0.76170  0.70480  0.98590  Biso   1.000  H
  H728     1.0000 0.74510  0.72140  0.96080  Biso   1.000  H
  O209     1.0000 0.17328  0.78473  0.03014  Biso   1.000  O
  O210     1.0000 0.13968  0.81768  0.03016  Biso   1.000  O
  C625     1.0000 0.15120  0.79599  0.03990  Biso   1.000  C
  C626     1.0000 0.13602  0.78034  0.06318  Biso   1.000  C
  C627     1.0000 0.11274  0.79242  0.07524  Biso   1.000  C
  H729     1.0000 0.10560  0.80990  0.06760  Biso   1.000  H
  C628     1.0000 0.13385  0.74133  0.09654  Biso   1.000  C
  H730     1.0000 0.14160  0.72380  0.10360  Biso   1.000  H
  C629     1.0000 0.14659  0.75419  0.07368  Biso   1.000  C
  H731     1.0000 0.16270  0.74540  0.06480  Biso   1.000  H
  H732     1.0000 0.26240  0.79470  0.01720  Biso   1.000  H
  H733     1.0000 0.22200  0.75370  0.04050  Biso   1.000  H
  C630     1.0000 0.25310  0.77660  0.01970  Biso   1.000  C
  H734     1.0000 0.26170  0.79520  0.01410  Biso   1.000  H
  H735     1.0000 0.24510  0.77860  0.03920  Biso   1.000  H
  O211     1.0000 0.17328  0.28473  0.53014  Biso   1.000  O
  O212     1.0000 0.13968  0.31768  0.53016  Biso   1.000  O
  C631     1.0000 0.15120  0.29599  0.53990  Biso   1.000  C
  C632     1.0000 0.13602  0.28034  0.56318  Biso   1.000  C
  C633     1.0000 0.11274  0.29242  0.57524  Biso   1.000  C
  H736     1.0000 0.10560  0.30990  0.56760  Biso   1.000  H
  C634     1.0000 0.13385  0.24133  0.59654  Biso   1.000  C
  H737     1.0000 0.14160  0.22380  0.60360  Biso   1.000  H
  C635     1.0000 0.14659  0.25419  0.57368  Biso   1.000  C
  H738     1.0000 0.16270  0.24540  0.56480  Biso   1.000  H
  H739     1.0000 0.26240  0.29470  0.51720  Biso   1.000  H
  H740     1.0000 0.22200  0.25370  0.54050  Biso   1.000  H
  C636     1.0000 0.25310  0.27660  0.51970  Biso   1.000  C
  H741     1.0000 0.26170  0.29520  0.51410  Biso   1.000  H
  H742     1.0000 0.24510  0.27860  0.53920  Biso   1.000  H
  O213     1.0000 0.67328  0.78473  0.53014  Biso   1.000  O
  O214     1.0000 0.63968  0.81768  0.53016  Biso   1.000  O
  C637     1.0000 0.65120  0.79599  0.53990  Biso   1.000  C
  C638     1.0000 0.63602  0.78034  0.56318  Biso   1.000  C
  C639     1.0000 0.61274  0.79242  0.57524  Biso   1.000  C
  H743     1.0000 0.60560  0.80990  0.56760  Biso   1.000  H
  C640     1.0000 0.63385  0.74133  0.59654  Biso   1.000  C
  H744     1.0000 0.64160  0.72380  0.60360  Biso   1.000  H
  C641     1.0000 0.64659  0.75419  0.57368  Biso   1.000  C
  H745     1.0000 0.66270  0.74540  0.56480  Biso   1.000  H
  H746     1.0000 0.76240  0.79470  0.51720  Biso   1.000  H
  H747     1.0000 0.72200  0.75370  0.54050  Biso   1.000  H
  C642     1.0000 0.75310  0.77660  0.51970  Biso   1.000  C
  H748     1.0000 0.76170  0.79520  0.51410  Biso   1.000  H
  H749     1.0000 0.74510  0.77860  0.53920  Biso   1.000  H
  O215     1.0000 0.67328  0.28473  0.03014  Biso   1.000  O
  O216     1.0000 0.63968  0.31768  0.03016  Biso   1.000  O
  C643     1.0000 0.65120  0.29599  0.03990  Biso   1.000  C
  C644     1.0000 0.63602  0.28034  0.06318  Biso   1.000  C
  C645     1.0000 0.61274  0.29242  0.07524  Biso   1.000  C
  H750     1.0000 0.60560  0.30990  0.06760  Biso   1.000  H
  C646     1.0000 0.63385  0.24133  0.09654  Biso   1.000  C
  H751     1.0000 0.64160  0.22380  0.10360  Biso   1.000  H
  C647     1.0000 0.64659  0.25419  0.07368  Biso   1.000  C
  H752     1.0000 0.66270  0.24540  0.06480  Biso   1.000  H
  H753     1.0000 0.76240  0.29470  0.01720  Biso   1.000  H
  H754     1.0000 0.72200  0.25370  0.04050  Biso   1.000  H
  C648     1.0000 0.75310  0.27660  0.01970  Biso   1.000  C
  H755     1.0000 0.76170  0.29520  0.01410  Biso   1.000  H
  H756     1.0000 0.74510  0.27860  0.03920  Biso   1.000  H
  O217     1.0000 0.82672  0.21527  0.03014  Biso   1.000  O
  O218     1.0000 0.86032  0.18232  0.03016  Biso   1.000  O
  C649     1.0000 0.84880  0.20401  0.03990  Biso   1.000  C
  C650     1.0000 0.86398  0.21966  0.06318  Biso   1.000  C
  C651     1.0000 0.88726  0.20758  0.07524  Biso   1.000  C
  H757     1.0000 0.89440  0.19010  0.06760  Biso   1.000  H
  C652     1.0000 0.86615  0.25867  0.09654  Biso   1.000  C
  H758     1.0000 0.85840  0.27620  0.10360  Biso   1.000  H
  C653     1.0000 0.85341  0.24581  0.07368  Biso   1.000  C
  H759     1.0000 0.83730  0.25460  0.06480  Biso   1.000  H
  H760     1.0000 0.73760  0.20530  0.01720  Biso   1.000  H
  H761     1.0000 0.77800  0.24630  0.04050  Biso   1.000  H
  C654     1.0000 0.74690  0.22340  0.01970  Biso   1.000  C
  H762     1.0000 0.73830  0.20480  0.01410  Biso   1.000  H
  H763     1.0000 0.75490  0.22140  0.03920  Biso   1.000  H
  O219     1.0000 0.82672  0.71527  0.53014  Biso   1.000  O
  O220     1.0000 0.86032  0.68232  0.53016  Biso   1.000  O
  C655     1.0000 0.84880  0.70401  0.53990  Biso   1.000  C
  C656     1.0000 0.86398  0.71966  0.56318  Biso   1.000  C
  C657     1.0000 0.88726  0.70758  0.57524  Biso   1.000  C
  H764     1.0000 0.89440  0.69010  0.56760  Biso   1.000  H
  C658     1.0000 0.86615  0.75867  0.59654  Biso   1.000  C
  H765     1.0000 0.85840  0.77620  0.60360  Biso   1.000  H
  C659     1.0000 0.85341  0.74581  0.57368  Biso   1.000  C
  H766     1.0000 0.83730  0.75460  0.56480  Biso   1.000  H
  H767     1.0000 0.73760  0.70530  0.51720  Biso   1.000  H
  H768     1.0000 0.77800  0.74630  0.54050  Biso   1.000  H
  C660     1.0000 0.74690  0.72340  0.51970  Biso   1.000  C
  H769     1.0000 0.73830  0.70480  0.51410  Biso   1.000  H
  H770     1.0000 0.75490  0.72140  0.53920  Biso   1.000  H
  O221     1.0000 0.32672  0.21527  0.53014  Biso   1.000  O
  O222     1.0000 0.36032  0.18232  0.53016  Biso   1.000  O
  C661     1.0000 0.34880  0.20401  0.53990  Biso   1.000  C
  C662     1.0000 0.36398  0.21966  0.56318  Biso   1.000  C
  C663     1.0000 0.38726  0.20758  0.57524  Biso   1.000  C
  H771     1.0000 0.39440  0.19010  0.56760  Biso   1.000  H
  C664     1.0000 0.36615  0.25867  0.59654  Biso   1.000  C
  H772     1.0000 0.35840  0.27620  0.60360  Biso   1.000  H
  C665     1.0000 0.35341  0.24581  0.57368  Biso   1.000  C
  H773     1.0000 0.33730  0.25460  0.56480  Biso   1.000  H
  H774     1.0000 0.23760  0.20530  0.51720  Biso   1.000  H
  H775     1.0000 0.27800  0.24630  0.54050  Biso   1.000  H
  C666     1.0000 0.24690  0.22340  0.51970  Biso   1.000  C
  H776     1.0000 0.23830  0.20480  0.51410  Biso   1.000  H
  H777     1.0000 0.25490  0.22140  0.53920  Biso   1.000  H
  O223     1.0000 0.32672  0.71527  0.03014  Biso   1.000  O
  O224     1.0000 0.36032  0.68232  0.03016  Biso   1.000  O
  C667     1.0000 0.34880  0.70401  0.03990  Biso   1.000  C
  C668     1.0000 0.36398  0.71966  0.06318  Biso   1.000  C
  C669     1.0000 0.38726  0.70758  0.07524  Biso   1.000  C
  H778     1.0000 0.39440  0.69010  0.06760  Biso   1.000  H
  C670     1.0000 0.36615  0.75867  0.09654  Biso   1.000  C
  H779     1.0000 0.35840  0.77620  0.10360  Biso   1.000  H
  C671     1.0000 0.35341  0.74581  0.07368  Biso   1.000  C
  H780     1.0000 0.33730  0.75460  0.06480  Biso   1.000  H
  H781     1.0000 0.23760  0.70530  0.01720  Biso   1.000  H
  H782     1.0000 0.27800  0.74630  0.04050  Biso   1.000  H
  C672     1.0000 0.24690  0.72340  0.01970  Biso   1.000  C
  H783     1.0000 0.23830  0.70480  0.01410  Biso   1.000  H
  H784     1.0000 0.25490  0.72140  0.03920  Biso   1.000  H
  O225     1.0000 0.96986  0.82672  0.78473  Biso   1.000  O
  O226     1.0000 0.96984  0.86032  0.81768  Biso   1.000  O
  C673     1.0000 0.96010  0.84880  0.79599  Biso   1.000  C
  C674     1.0000 0.93682  0.86398  0.78034  Biso   1.000  C
  C675     1.0000 0.92476  0.88726  0.79242  Biso   1.000  C
  H785     1.0000 0.93240  0.89440  0.80990  Biso   1.000  H
  C676     1.0000 0.90346  0.86615  0.74133  Biso   1.000  C
  H786     1.0000 0.89640  0.85840  0.72380  Biso   1.000  H
  C677     1.0000 0.92632  0.85341  0.75419  Biso   1.000  C
  H787     1.0000 0.93520  0.83730  0.74540  Biso   1.000  H
  H788     1.0000 0.98280  0.73760  0.79470  Biso   1.000  H
  H789     1.0000 0.95950  0.77800  0.75370  Biso   1.000  H
  C678     1.0000 0.98030  0.74690  0.77660  Biso   1.000  C
  H790     1.0000 0.98590  0.73830  0.79520  Biso   1.000  H
  H791     1.0000 0.96080  0.75490  0.77860  Biso   1.000  H
  O227     1.0000 0.96986  0.32672  0.28473  Biso   1.000  O
  O228     1.0000 0.96984  0.36032  0.31768  Biso   1.000  O
  C679     1.0000 0.96010  0.34880  0.29599  Biso   1.000  C
  C680     1.0000 0.93682  0.36398  0.28034  Biso   1.000  C
  C681     1.0000 0.92476  0.38726  0.29242  Biso   1.000  C
  H792     1.0000 0.93240  0.39440  0.30990  Biso   1.000  H
  C682     1.0000 0.90346  0.36615  0.24133  Biso   1.000  C
  H793     1.0000 0.89640  0.35840  0.22380  Biso   1.000  H
  C683     1.0000 0.92632  0.35341  0.25419  Biso   1.000  C
  H794     1.0000 0.93520  0.33730  0.24540  Biso   1.000  H
  H795     1.0000 0.98280  0.23760  0.29470  Biso   1.000  H
  H796     1.0000 0.95950  0.27800  0.25370  Biso   1.000  H
  C684     1.0000 0.98030  0.24690  0.27660  Biso   1.000  C
  H797     1.0000 0.98590  0.23830  0.29520  Biso   1.000  H
  H798     1.0000 0.96080  0.25490  0.27860  Biso   1.000  H
  O229     1.0000 0.46986  0.82672  0.28473  Biso   1.000  O
  O230     1.0000 0.46984  0.86032  0.31768  Biso   1.000  O
  C685     1.0000 0.46010  0.84880  0.29599  Biso   1.000  C
  C686     1.0000 0.43682  0.86398  0.28034  Biso   1.000  C
  C687     1.0000 0.42476  0.88726  0.29242  Biso   1.000  C
  H799     1.0000 0.43240  0.89440  0.30990  Biso   1.000  H
  C688     1.0000 0.40346  0.86615  0.24133  Biso   1.000  C
  H800     1.0000 0.39640  0.85840  0.22380  Biso   1.000  H
  C689     1.0000 0.42632  0.85341  0.25419  Biso   1.000  C
  H801     1.0000 0.43520  0.83730  0.24540  Biso   1.000  H
  H802     1.0000 0.48280  0.73760  0.29470  Biso   1.000  H
  H803     1.0000 0.45950  0.77800  0.25370  Biso   1.000  H
  C690     1.0000 0.48030  0.74690  0.27660  Biso   1.000  C
  H804     1.0000 0.48590  0.73830  0.29520  Biso   1.000  H
  H805     1.0000 0.46080  0.75490  0.27860  Biso   1.000  H
  O231     1.0000 0.46986  0.32672  0.78473  Biso   1.000  O
  O232     1.0000 0.46984  0.36032  0.81768  Biso   1.000  O
  C691     1.0000 0.46010  0.34880  0.79599  Biso   1.000  C
  C692     1.0000 0.43682  0.36398  0.78034  Biso   1.000  C
  C693     1.0000 0.42476  0.38726  0.79242  Biso   1.000  C
  H806     1.0000 0.43240  0.39440  0.80990  Biso   1.000  H
  C694     1.0000 0.40346  0.36615  0.74133  Biso   1.000  C
  H807     1.0000 0.39640  0.35840  0.72380  Biso   1.000  H
  C695     1.0000 0.42632  0.35341  0.75419  Biso   1.000  C
  H808     1.0000 0.43520  0.33730  0.74540  Biso   1.000  H
  H809     1.0000 0.48280  0.23760  0.79470  Biso   1.000  H
  H810     1.0000 0.45950  0.27800  0.75370  Biso   1.000  H
  C696     1.0000 0.48030  0.24690  0.77660  Biso   1.000  C
  H811     1.0000 0.48590  0.23830  0.79520  Biso   1.000  H
  H812     1.0000 0.46080  0.25490  0.77860  Biso   1.000  H
  O233     1.0000 0.96986  0.17328  0.21527  Biso   1.000  O
  O234     1.0000 0.96984  0.13968  0.18232  Biso   1.000  O
  C697     1.0000 0.96010  0.15120  0.20401  Biso   1.000  C
  C698     1.0000 0.93682  0.13602  0.21966  Biso   1.000  C
  C699     1.0000 0.92476  0.11274  0.20758  Biso   1.000  C
  H813     1.0000 0.93240  0.10560  0.19010  Biso   1.000  H
  C700     1.0000 0.90346  0.13385  0.25867  Biso   1.000  C
  H814     1.0000 0.89640  0.14160  0.27620  Biso   1.000  H
  C701     1.0000 0.92632  0.14659  0.24581  Biso   1.000  C
  H815     1.0000 0.93520  0.16270  0.25460  Biso   1.000  H
  H816     1.0000 0.98280  0.26240  0.20530  Biso   1.000  H
  H817     1.0000 0.95950  0.22200  0.24630  Biso   1.000  H
  C702     1.0000 0.98030  0.25310  0.22340  Biso   1.000  C
  H818     1.0000 0.98590  0.26170  0.20480  Biso   1.000  H
  H819     1.0000 0.96080  0.24510  0.22140  Biso   1.000  H
  O235     1.0000 0.96986  0.67328  0.71527  Biso   1.000  O
  O236     1.0000 0.96984  0.63968  0.68232  Biso   1.000  O
  C703     1.0000 0.96010  0.65120  0.70401  Biso   1.000  C
  C704     1.0000 0.93682  0.63602  0.71966  Biso   1.000  C
  C705     1.0000 0.92476  0.61274  0.70758  Biso   1.000  C
  H820     1.0000 0.93240  0.60560  0.69010  Biso   1.000  H
  C706     1.0000 0.90346  0.63385  0.75867  Biso   1.000  C
  H821     1.0000 0.89640  0.64160  0.77620  Biso   1.000  H
  C707     1.0000 0.92632  0.64659  0.74581  Biso   1.000  C
  H822     1.0000 0.93520  0.66270  0.75460  Biso   1.000  H
  H823     1.0000 0.98280  0.76240  0.70530  Biso   1.000  H
  H824     1.0000 0.95950  0.72200  0.74630  Biso   1.000  H
  C708     1.0000 0.98030  0.75310  0.72340  Biso   1.000  C
  H825     1.0000 0.98590  0.76170  0.70480  Biso   1.000  H
  H826     1.0000 0.96080  0.74510  0.72140  Biso   1.000  H
  O237     1.0000 0.46986  0.17328  0.71527  Biso   1.000  O
  O238     1.0000 0.46984  0.13968  0.68232  Biso   1.000  O
  C709     1.0000 0.46010  0.15120  0.70401  Biso   1.000  C
  C710     1.0000 0.43682  0.13602  0.71966  Biso   1.000  C
  C711     1.0000 0.42476  0.11274  0.70758  Biso   1.000  C
  H827     1.0000 0.43240  0.10560  0.69010  Biso   1.000  H
  C712     1.0000 0.40346  0.13385  0.75867  Biso   1.000  C
  H828     1.0000 0.39640  0.14160  0.77620  Biso   1.000  H
  C713     1.0000 0.42632  0.14659  0.74581  Biso   1.000  C
  H829     1.0000 0.43520  0.16270  0.75460  Biso   1.000  H
  H830     1.0000 0.48280  0.26240  0.70530  Biso   1.000  H
  H831     1.0000 0.45950  0.22200  0.74630  Biso   1.000  H
  C714     1.0000 0.48030  0.25310  0.72340  Biso   1.000  C
  H832     1.0000 0.48590  0.26170  0.70480  Biso   1.000  H
  H833     1.0000 0.46080  0.24510  0.72140  Biso   1.000  H
  O239     1.0000 0.46986  0.67328  0.21527  Biso   1.000  O
  O240     1.0000 0.46984  0.63968  0.18232  Biso   1.000  O
  C715     1.0000 0.46010  0.65120  0.20401  Biso   1.000  C
  C716     1.0000 0.43682  0.63602  0.21966  Biso   1.000  C
  C717     1.0000 0.42476  0.61274  0.20758  Biso   1.000  C
  H834     1.0000 0.43240  0.60560  0.19010  Biso   1.000  H
  C718     1.0000 0.40346  0.63385  0.25867  Biso   1.000  C
  H835     1.0000 0.39640  0.64160  0.27620  Biso   1.000  H
  C719     1.0000 0.42632  0.64659  0.24581  Biso   1.000  C
  H836     1.0000 0.43520  0.66270  0.25460  Biso   1.000  H
  H837     1.0000 0.48280  0.76240  0.20530  Biso   1.000  H
  H838     1.0000 0.45950  0.72200  0.24630  Biso   1.000  H
  C720     1.0000 0.48030  0.75310  0.22340  Biso   1.000  C
  H839     1.0000 0.48590  0.76170  0.20480  Biso   1.000  H
  H840     1.0000 0.46080  0.74510  0.22140  Biso   1.000  H
  O241     1.0000 0.03014  0.17328  0.78473  Biso   1.000  O
  O242     1.0000 0.03016  0.13968  0.81768  Biso   1.000  O
  C721     1.0000 0.03990  0.15120  0.79599  Biso   1.000  C
  C722     1.0000 0.06318  0.13602  0.78034  Biso   1.000  C
  C723     1.0000 0.07524  0.11274  0.79242  Biso   1.000  C
  H841     1.0000 0.06760  0.10560  0.80990  Biso   1.000  H
  C724     1.0000 0.09654  0.13385  0.74133  Biso   1.000  C
  H842     1.0000 0.10360  0.14160  0.72380  Biso   1.000  H
  C725     1.0000 0.07368  0.14659  0.75419  Biso   1.000  C
  H843     1.0000 0.06480  0.16270  0.74540  Biso   1.000  H
  H844     1.0000 0.01720  0.26240  0.79470  Biso   1.000  H
  H845     1.0000 0.04050  0.22200  0.75370  Biso   1.000  H
  C726     1.0000 0.01970  0.25310  0.77660  Biso   1.000  C
  H846     1.0000 0.01410  0.26170  0.79520  Biso   1.000  H
  H847     1.0000 0.03920  0.24510  0.77860  Biso   1.000  H
  O243     1.0000 0.03014  0.67328  0.28473  Biso   1.000  O
  O244     1.0000 0.03016  0.63968  0.31768  Biso   1.000  O
  C727     1.0000 0.03990  0.65120  0.29599  Biso   1.000  C
  C728     1.0000 0.06318  0.63602  0.28034  Biso   1.000  C
  C729     1.0000 0.07524  0.61274  0.29242  Biso   1.000  C
  H848     1.0000 0.06760  0.60560  0.30990  Biso   1.000  H
  C730     1.0000 0.09654  0.63385  0.24133  Biso   1.000  C
  H849     1.0000 0.10360  0.64160  0.22380  Biso   1.000  H
  C731     1.0000 0.07368  0.64659  0.25419  Biso   1.000  C
  H850     1.0000 0.06480  0.66270  0.24540  Biso   1.000  H
  H851     1.0000 0.01720  0.76240  0.29470  Biso   1.000  H
  H852     1.0000 0.04050  0.72200  0.25370  Biso   1.000  H
  C732     1.0000 0.01970  0.75310  0.27660  Biso   1.000  C
  H853     1.0000 0.01410  0.76170  0.29520  Biso   1.000  H
  H854     1.0000 0.03920  0.74510  0.27860  Biso   1.000  H
  O245     1.0000 0.53014  0.17328  0.28473  Biso   1.000  O
  O246     1.0000 0.53016  0.13968  0.31768  Biso   1.000  O
  C733     1.0000 0.53990  0.15120  0.29599  Biso   1.000  C
  C734     1.0000 0.56318  0.13602  0.28034  Biso   1.000  C
  C735     1.0000 0.57524  0.11274  0.29242  Biso   1.000  C
  H855     1.0000 0.56760  0.10560  0.30990  Biso   1.000  H
  C736     1.0000 0.59654  0.13385  0.24133  Biso   1.000  C
  H856     1.0000 0.60360  0.14160  0.22380  Biso   1.000  H
  C737     1.0000 0.57368  0.14659  0.25419  Biso   1.000  C
  H857     1.0000 0.56480  0.16270  0.24540  Biso   1.000  H
  H858     1.0000 0.51720  0.26240  0.29470  Biso   1.000  H
  H859     1.0000 0.54050  0.22200  0.25370  Biso   1.000  H
  C738     1.0000 0.51970  0.25310  0.27660  Biso   1.000  C
  H860     1.0000 0.51410  0.26170  0.29520  Biso   1.000  H
  H861     1.0000 0.53920  0.24510  0.27860  Biso   1.000  H
  O247     1.0000 0.53014  0.67328  0.78473  Biso   1.000  O
  O248     1.0000 0.53016  0.63968  0.81768  Biso   1.000  O
  C739     1.0000 0.53990  0.65120  0.79599  Biso   1.000  C
  C740     1.0000 0.56318  0.63602  0.78034  Biso   1.000  C
  C741     1.0000 0.57524  0.61274  0.79242  Biso   1.000  C
  H862     1.0000 0.56760  0.60560  0.80990  Biso   1.000  H
  C742     1.0000 0.59654  0.63385  0.74133  Biso   1.000  C
  H863     1.0000 0.60360  0.64160  0.72380  Biso   1.000  H
  C743     1.0000 0.57368  0.64659  0.75419  Biso   1.000  C
  H864     1.0000 0.56480  0.66270  0.74540  Biso   1.000  H
  H865     1.0000 0.51720  0.76240  0.79470  Biso   1.000  H
  H866     1.0000 0.54050  0.72200  0.75370  Biso   1.000  H
  C744     1.0000 0.51970  0.75310  0.77660  Biso   1.000  C
  H867     1.0000 0.51410  0.76170  0.79520  Biso   1.000  H
  H868     1.0000 0.53920  0.74510  0.77860  Biso   1.000  H
  O249     1.0000 0.03014  0.82672  0.21527  Biso   1.000  O
  O250     1.0000 0.03016  0.86032  0.18232  Biso   1.000  O
  C745     1.0000 0.03990  0.84880  0.20401  Biso   1.000  C
  C746     1.0000 0.06318  0.86398  0.21966  Biso   1.000  C
  C747     1.0000 0.07524  0.88726  0.20758  Biso   1.000  C
  H869     1.0000 0.06760  0.89440  0.19010  Biso   1.000  H
  C748     1.0000 0.09654  0.86615  0.25867  Biso   1.000  C
  H870     1.0000 0.10360  0.85840  0.27620  Biso   1.000  H
  C749     1.0000 0.07368  0.85341  0.24581  Biso   1.000  C
  H871     1.0000 0.06480  0.83730  0.25460  Biso   1.000  H
  H872     1.0000 0.01720  0.73760  0.20530  Biso   1.000  H
  H873     1.0000 0.04050  0.77800  0.24630  Biso   1.000  H
  C750     1.0000 0.01970  0.74690  0.22340  Biso   1.000  C
  H874     1.0000 0.01410  0.73830  0.20480  Biso   1.000  H
  H875     1.0000 0.03920  0.75490  0.22140  Biso   1.000  H
  O251     1.0000 0.03014  0.32672  0.71527  Biso   1.000  O
  O252     1.0000 0.03016  0.36032  0.68232  Biso   1.000  O
  C751     1.0000 0.03990  0.34880  0.70401  Biso   1.000  C
  C752     1.0000 0.06318  0.36398  0.71966  Biso   1.000  C
  C753     1.0000 0.07524  0.38726  0.70758  Biso   1.000  C
  H876     1.0000 0.06760  0.39440  0.69010  Biso   1.000  H
  C754     1.0000 0.09654  0.36615  0.75867  Biso   1.000  C
  H877     1.0000 0.10360  0.35840  0.77620  Biso   1.000  H
  C755     1.0000 0.07368  0.35341  0.74581  Biso   1.000  C
  H878     1.0000 0.06480  0.33730  0.75460  Biso   1.000  H
  H879     1.0000 0.01720  0.23760  0.70530  Biso   1.000  H
  H880     1.0000 0.04050  0.27800  0.74630  Biso   1.000  H
  C756     1.0000 0.01970  0.24690  0.72340  Biso   1.000  C
  H881     1.0000 0.01410  0.23830  0.70480  Biso   1.000  H
  H882     1.0000 0.03920  0.25490  0.72140  Biso   1.000  H
  O253     1.0000 0.53014  0.82672  0.71527  Biso   1.000  O
  O254     1.0000 0.53016  0.86032  0.68232  Biso   1.000  O
  C757     1.0000 0.53990  0.84880  0.70401  Biso   1.000  C
  C758     1.0000 0.56318  0.86398  0.71966  Biso   1.000  C
  C759     1.0000 0.57524  0.88726  0.70758  Biso   1.000  C
  H883     1.0000 0.56760  0.89440  0.69010  Biso   1.000  H
  C760     1.0000 0.59654  0.86615  0.75867  Biso   1.000  C
  H884     1.0000 0.60360  0.85840  0.77620  Biso   1.000  H
  C761     1.0000 0.57368  0.85341  0.74581  Biso   1.000  C
  H885     1.0000 0.56480  0.83730  0.75460  Biso   1.000  H
  H886     1.0000 0.51720  0.73760  0.70530  Biso   1.000  H
  H887     1.0000 0.54050  0.77800  0.74630  Biso   1.000  H
  C762     1.0000 0.51970  0.74690  0.72340  Biso   1.000  C
  H888     1.0000 0.51410  0.73830  0.70480  Biso   1.000  H
  H889     1.0000 0.53920  0.75490  0.72140  Biso   1.000  H
  O255     1.0000 0.53014  0.32672  0.21527  Biso   1.000  O
  O256     1.0000 0.53016  0.36032  0.18232  Biso   1.000  O
  C763     1.0000 0.53990  0.34880  0.20401  Biso   1.000  C
  C764     1.0000 0.56318  0.36398  0.21966  Biso   1.000  C
  C765     1.0000 0.57524  0.38726  0.20758  Biso   1.000  C
  H890     1.0000 0.56760  0.39440  0.19010  Biso   1.000  H
  C766     1.0000 0.59654  0.36615  0.25867  Biso   1.000  C
  H891     1.0000 0.60360  0.35840  0.27620  Biso   1.000  H
  C767     1.0000 0.57368  0.35341  0.24581  Biso   1.000  C
  H892     1.0000 0.56480  0.33730  0.25460  Biso   1.000  H
  H893     1.0000 0.51720  0.23760  0.20530  Biso   1.000  H
  H894     1.0000 0.54050  0.27800  0.24630  Biso   1.000  H
  C768     1.0000 0.51970  0.24690  0.22340  Biso   1.000  C
  H895     1.0000 0.51410  0.23830  0.20480  Biso   1.000  H
  H896     1.0000 0.53920  0.25490  0.22140  Biso   1.000  H
  O257     1.0000 0.78473  0.96986  0.82672  Biso   1.000  O
  O258     1.0000 0.81768  0.96984  0.86032  Biso   1.000  O
  C769     1.0000 0.79599  0.96010  0.84880  Biso   1.000  C
  C770     1.0000 0.78034  0.93682  0.86398  Biso   1.000  C
  C771     1.0000 0.79242  0.92476  0.88726  Biso   1.000  C
  H897     1.0000 0.80990  0.93240  0.89440  Biso   1.000  H
  C772     1.0000 0.74133  0.90346  0.86615  Biso   1.000  C
  H898     1.0000 0.72380  0.89640  0.85840  Biso   1.000  H
  C773     1.0000 0.75419  0.92632  0.85341  Biso   1.000  C
  H899     1.0000 0.74540  0.93520  0.83730  Biso   1.000  H
  H900     1.0000 0.79470  0.98280  0.73760  Biso   1.000  H
  H901     1.0000 0.75370  0.95950  0.77800  Biso   1.000  H
  C774     1.0000 0.77660  0.98030  0.74690  Biso   1.000  C
  H902     1.0000 0.79520  0.98590  0.73830  Biso   1.000  H
  H903     1.0000 0.77860  0.96080  0.75490  Biso   1.000  H
  O259     1.0000 0.78473  0.46986  0.32672  Biso   1.000  O
  O260     1.0000 0.81768  0.46984  0.36032  Biso   1.000  O
  C775     1.0000 0.79599  0.46010  0.34880  Biso   1.000  C
  C776     1.0000 0.78034  0.43682  0.36398  Biso   1.000  C
  C777     1.0000 0.79242  0.42476  0.38726  Biso   1.000  C
  H904     1.0000 0.80990  0.43240  0.39440  Biso   1.000  H
  C778     1.0000 0.74133  0.40346  0.36615  Biso   1.000  C
  H905     1.0000 0.72380  0.39640  0.35840  Biso   1.000  H
  C779     1.0000 0.75419  0.42632  0.35341  Biso   1.000  C
  H906     1.0000 0.74540  0.43520  0.33730  Biso   1.000  H
  H907     1.0000 0.79470  0.48280  0.23760  Biso   1.000  H
  H908     1.0000 0.75370  0.45950  0.27800  Biso   1.000  H
  C780     1.0000 0.77660  0.48030  0.24690  Biso   1.000  C
  H909     1.0000 0.79520  0.48590  0.23830  Biso   1.000  H
  H910     1.0000 0.77860  0.46080  0.25490  Biso   1.000  H
  O261     1.0000 0.28473  0.96986  0.32672  Biso   1.000  O
  O262     1.0000 0.31768  0.96984  0.36032  Biso   1.000  O
  C781     1.0000 0.29599  0.96010  0.34880  Biso   1.000  C
  C782     1.0000 0.28034  0.93682  0.36398  Biso   1.000  C
  C783     1.0000 0.29242  0.92476  0.38726  Biso   1.000  C
  H911     1.0000 0.30990  0.93240  0.39440  Biso   1.000  H
  C784     1.0000 0.24133  0.90346  0.36615  Biso   1.000  C
  H912     1.0000 0.22380  0.89640  0.35840  Biso   1.000  H
  C785     1.0000 0.25419  0.92632  0.35341  Biso   1.000  C
  H913     1.0000 0.24540  0.93520  0.33730  Biso   1.000  H
  H914     1.0000 0.29470  0.98280  0.23760  Biso   1.000  H
  H915     1.0000 0.25370  0.95950  0.27800  Biso   1.000  H
  C786     1.0000 0.27660  0.98030  0.24690  Biso   1.000  C
  H916     1.0000 0.29520  0.98590  0.23830  Biso   1.000  H
  H917     1.0000 0.27860  0.96080  0.25490  Biso   1.000  H
  O263     1.0000 0.28473  0.46986  0.82672  Biso   1.000  O
  O264     1.0000 0.31768  0.46984  0.86032  Biso   1.000  O
  C787     1.0000 0.29599  0.46010  0.84880  Biso   1.000  C
  C788     1.0000 0.28034  0.43682  0.86398  Biso   1.000  C
  C789     1.0000 0.29242  0.42476  0.88726  Biso   1.000  C
  H918     1.0000 0.30990  0.43240  0.89440  Biso   1.000  H
  C790     1.0000 0.24133  0.40346  0.86615  Biso   1.000  C
  H919     1.0000 0.22380  0.39640  0.85840  Biso   1.000  H
  C791     1.0000 0.25419  0.42632  0.85341  Biso   1.000  C
  H920     1.0000 0.24540  0.43520  0.83730  Biso   1.000  H
  H921     1.0000 0.29470  0.48280  0.73760  Biso   1.000  H
  H922     1.0000 0.25370  0.45950  0.77800  Biso   1.000  H
  C792     1.0000 0.27660  0.48030  0.74690  Biso   1.000  C
  H923     1.0000 0.29520  0.48590  0.73830  Biso   1.000  H
  H924     1.0000 0.27860  0.46080  0.75490  Biso   1.000  H
  O265     1.0000 0.21527  0.96986  0.17328  Biso   1.000  O
  O266     1.0000 0.18232  0.96984  0.13968  Biso   1.000  O
  C793     1.0000 0.20401  0.96010  0.15120  Biso   1.000  C
  C794     1.0000 0.21966  0.93682  0.13602  Biso   1.000  C
  C795     1.0000 0.20758  0.92476  0.11274  Biso   1.000  C
  H925     1.0000 0.19010  0.93240  0.10560  Biso   1.000  H
  C796     1.0000 0.25867  0.90346  0.13385  Biso   1.000  C
  H926     1.0000 0.27620  0.89640  0.14160  Biso   1.000  H
  C797     1.0000 0.24581  0.92632  0.14659  Biso   1.000  C
  H927     1.0000 0.25460  0.93520  0.16270  Biso   1.000  H
  H928     1.0000 0.20530  0.98280  0.26240  Biso   1.000  H
  H929     1.0000 0.24630  0.95950  0.22200  Biso   1.000  H
  C798     1.0000 0.22340  0.98030  0.25310  Biso   1.000  C
  H930     1.0000 0.20480  0.98590  0.26170  Biso   1.000  H
  H931     1.0000 0.22140  0.96080  0.24510  Biso   1.000  H
  O267     1.0000 0.21527  0.46986  0.67328  Biso   1.000  O
  O268     1.0000 0.18232  0.46984  0.63968  Biso   1.000  O
  C799     1.0000 0.20401  0.46010  0.65120  Biso   1.000  C
  C800     1.0000 0.21966  0.43682  0.63602  Biso   1.000  C
  C801     1.0000 0.20758  0.42476  0.61274  Biso   1.000  C
  H932     1.0000 0.19010  0.43240  0.60560  Biso   1.000  H
  C802     1.0000 0.25867  0.40346  0.63385  Biso   1.000  C
  H933     1.0000 0.27620  0.39640  0.64160  Biso   1.000  H
  C803     1.0000 0.24581  0.42632  0.64659  Biso   1.000  C
  H934     1.0000 0.25460  0.43520  0.66270  Biso   1.000  H
  H935     1.0000 0.20530  0.48280  0.76240  Biso   1.000  H
  H936     1.0000 0.24630  0.45950  0.72200  Biso   1.000  H
  C804     1.0000 0.22340  0.48030  0.75310  Biso   1.000  C
  H937     1.0000 0.20480  0.48590  0.76170  Biso   1.000  H
  H938     1.0000 0.22140  0.46080  0.74510  Biso   1.000  H
  O269     1.0000 0.71527  0.96986  0.67328  Biso   1.000  O
  O270     1.0000 0.68232  0.96984  0.63968  Biso   1.000  O
  C805     1.0000 0.70401  0.96010  0.65120  Biso   1.000  C
  C806     1.0000 0.71966  0.93682  0.63602  Biso   1.000  C
  C807     1.0000 0.70758  0.92476  0.61274  Biso   1.000  C
  H939     1.0000 0.69010  0.93240  0.60560  Biso   1.000  H
  C808     1.0000 0.75867  0.90346  0.63385  Biso   1.000  C
  H940     1.0000 0.77620  0.89640  0.64160  Biso   1.000  H
  C809     1.0000 0.74581  0.92632  0.64659  Biso   1.000  C
  H941     1.0000 0.75460  0.93520  0.66270  Biso   1.000  H
  H942     1.0000 0.70530  0.98280  0.76240  Biso   1.000  H
  H943     1.0000 0.74630  0.95950  0.72200  Biso   1.000  H
  C810     1.0000 0.72340  0.98030  0.75310  Biso   1.000  C
  H944     1.0000 0.70480  0.98590  0.76170  Biso   1.000  H
  H945     1.0000 0.72140  0.96080  0.74510  Biso   1.000  H
  O271     1.0000 0.71527  0.46986  0.17328  Biso   1.000  O
  O272     1.0000 0.68232  0.46984  0.13968  Biso   1.000  O
  C811     1.0000 0.70401  0.46010  0.15120  Biso   1.000  C
  C812     1.0000 0.71966  0.43682  0.13602  Biso   1.000  C
  C813     1.0000 0.70758  0.42476  0.11274  Biso   1.000  C
  H946     1.0000 0.69010  0.43240  0.10560  Biso   1.000  H
  C814     1.0000 0.75867  0.40346  0.13385  Biso   1.000  C
  H947     1.0000 0.77620  0.39640  0.14160  Biso   1.000  H
  C815     1.0000 0.74581  0.42632  0.14659  Biso   1.000  C
  H948     1.0000 0.75460  0.43520  0.16270  Biso   1.000  H
  H949     1.0000 0.70530  0.48280  0.26240  Biso   1.000  H
  H950     1.0000 0.74630  0.45950  0.22200  Biso   1.000  H
  C816     1.0000 0.72340  0.48030  0.25310  Biso   1.000  C
  H951     1.0000 0.70480  0.48590  0.26170  Biso   1.000  H
  H952     1.0000 0.72140  0.46080  0.24510  Biso   1.000  H
  O273     1.0000 0.78473  0.03014  0.17328  Biso   1.000  O
  O274     1.0000 0.81768  0.03016  0.13968  Biso   1.000  O
  C817     1.0000 0.79599  0.03990  0.15120  Biso   1.000  C
  C818     1.0000 0.78034  0.06318  0.13602  Biso   1.000  C
  C819     1.0000 0.79242  0.07524  0.11274  Biso   1.000  C
  H953     1.0000 0.80990  0.06760  0.10560  Biso   1.000  H
  C820     1.0000 0.74133  0.09654  0.13385  Biso   1.000  C
  H954     1.0000 0.72380  0.10360  0.14160  Biso   1.000  H
  C821     1.0000 0.75419  0.07368  0.14659  Biso   1.000  C
  H955     1.0000 0.74540  0.06480  0.16270  Biso   1.000  H
  H956     1.0000 0.79470  0.01720  0.26240  Biso   1.000  H
  H957     1.0000 0.75370  0.04050  0.22200  Biso   1.000  H
  C822     1.0000 0.77660  0.01970  0.25310  Biso   1.000  C
  H958     1.0000 0.79520  0.01410  0.26170  Biso   1.000  H
  H959     1.0000 0.77860  0.03920  0.24510  Biso   1.000  H
  O275     1.0000 0.78473  0.53014  0.67328  Biso   1.000  O
  O276     1.0000 0.81768  0.53016  0.63968  Biso   1.000  O
  C823     1.0000 0.79599  0.53990  0.65120  Biso   1.000  C
  C824     1.0000 0.78034  0.56318  0.63602  Biso   1.000  C
  C825     1.0000 0.79242  0.57524  0.61274  Biso   1.000  C
  H960     1.0000 0.80990  0.56760  0.60560  Biso   1.000  H
  C826     1.0000 0.74133  0.59654  0.63385  Biso   1.000  C
  H961     1.0000 0.72380  0.60360  0.64160  Biso   1.000  H
  C827     1.0000 0.75419  0.57368  0.64659  Biso   1.000  C
  H962     1.0000 0.74540  0.56480  0.66270  Biso   1.000  H
  H963     1.0000 0.79470  0.51720  0.76240  Biso   1.000  H
  H964     1.0000 0.75370  0.54050  0.72200  Biso   1.000  H
  C828     1.0000 0.77660  0.51970  0.75310  Biso   1.000  C
  H965     1.0000 0.79520  0.51410  0.76170  Biso   1.000  H
  H966     1.0000 0.77860  0.53920  0.74510  Biso   1.000  H
  O277     1.0000 0.28473  0.03014  0.67328  Biso   1.000  O
  O278     1.0000 0.31768  0.03016  0.63968  Biso   1.000  O
  C829     1.0000 0.29599  0.03990  0.65120  Biso   1.000  C
  C830     1.0000 0.28034  0.06318  0.63602  Biso   1.000  C
  C831     1.0000 0.29242  0.07524  0.61274  Biso   1.000  C
  H967     1.0000 0.30990  0.06760  0.60560  Biso   1.000  H
  C832     1.0000 0.24133  0.09654  0.63385  Biso   1.000  C
  H968     1.0000 0.22380  0.10360  0.64160  Biso   1.000  H
  C833     1.0000 0.25419  0.07368  0.64659  Biso   1.000  C
  H969     1.0000 0.24540  0.06480  0.66270  Biso   1.000  H
  H970     1.0000 0.29470  0.01720  0.76240  Biso   1.000  H
  H971     1.0000 0.25370  0.04050  0.72200  Biso   1.000  H
  C834     1.0000 0.27660  0.01970  0.75310  Biso   1.000  C
  H972     1.0000 0.29520  0.01410  0.76170  Biso   1.000  H
  H973     1.0000 0.27860  0.03920  0.74510  Biso   1.000  H
  O279     1.0000 0.28473  0.53014  0.17328  Biso   1.000  O
  O280     1.0000 0.31768  0.53016  0.13968  Biso   1.000  O
  C835     1.0000 0.29599  0.53990  0.15120  Biso   1.000  C
  C836     1.0000 0.28034  0.56318  0.13602  Biso   1.000  C
  C837     1.0000 0.29242  0.57524  0.11274  Biso   1.000  C
  H974     1.0000 0.30990  0.56760  0.10560  Biso   1.000  H
  C838     1.0000 0.24133  0.59654  0.13385  Biso   1.000  C
  H975     1.0000 0.22380  0.60360  0.14160  Biso   1.000  H
  C839     1.0000 0.25419  0.57368  0.14659  Biso   1.000  C
  H976     1.0000 0.24540  0.56480  0.16270  Biso   1.000  H
  H977     1.0000 0.29470  0.51720  0.26240  Biso   1.000  H
  H978     1.0000 0.25370  0.54050  0.22200  Biso   1.000  H
  C840     1.0000 0.27660  0.51970  0.25310  Biso   1.000  C
  H979     1.0000 0.29520  0.51410  0.26170  Biso   1.000  H
  H980     1.0000 0.27860  0.53920  0.24510  Biso   1.000  H
  O281     1.0000 0.21527  0.03014  0.82672  Biso   1.000  O
  O282     1.0000 0.18232  0.03016  0.86032  Biso   1.000  O
  C841     1.0000 0.20401  0.03990  0.84880  Biso   1.000  C
  C842     1.0000 0.21966  0.06318  0.86398  Biso   1.000  C
  C843     1.0000 0.20758  0.07524  0.88726  Biso   1.000  C
  H981     1.0000 0.19010  0.06760  0.89440  Biso   1.000  H
  C844     1.0000 0.25867  0.09654  0.86615  Biso   1.000  C
  H982     1.0000 0.27620  0.10360  0.85840  Biso   1.000  H
  C845     1.0000 0.24581  0.07368  0.85341  Biso   1.000  C
  H983     1.0000 0.25460  0.06480  0.83730  Biso   1.000  H
  H984     1.0000 0.20530  0.01720  0.73760  Biso   1.000  H
  H985     1.0000 0.24630  0.04050  0.77800  Biso   1.000  H
  C846     1.0000 0.22340  0.01970  0.74690  Biso   1.000  C
  H986     1.0000 0.20480  0.01410  0.73830  Biso   1.000  H
  H987     1.0000 0.22140  0.03920  0.75490  Biso   1.000  H
  O283     1.0000 0.21527  0.53014  0.32672  Biso   1.000  O
  O284     1.0000 0.18232  0.53016  0.36032  Biso   1.000  O
  C847     1.0000 0.20401  0.53990  0.34880  Biso   1.000  C
  C848     1.0000 0.21966  0.56318  0.36398  Biso   1.000  C
  C849     1.0000 0.20758  0.57524  0.38726  Biso   1.000  C
  H988     1.0000 0.19010  0.56760  0.39440  Biso   1.000  H
  C850     1.0000 0.25867  0.59654  0.36615  Biso   1.000  C
  H989     1.0000 0.27620  0.60360  0.35840  Biso   1.000  H
  C851     1.0000 0.24581  0.57368  0.35341  Biso   1.000  C
  H990     1.0000 0.25460  0.56480  0.33730  Biso   1.000  H
  H991     1.0000 0.20530  0.51720  0.23760  Biso   1.000  H
  H992     1.0000 0.24630  0.54050  0.27800  Biso   1.000  H
  C852     1.0000 0.22340  0.51970  0.24690  Biso   1.000  C
  H993     1.0000 0.20480  0.51410  0.23830  Biso   1.000  H
  H994     1.0000 0.22140  0.53920  0.25490  Biso   1.000  H
  O285     1.0000 0.71527  0.03014  0.32672  Biso   1.000  O
  O286     1.0000 0.68232  0.03016  0.36032  Biso   1.000  O
  C853     1.0000 0.70401  0.03990  0.34880  Biso   1.000  C
  C854     1.0000 0.71966  0.06318  0.36398  Biso   1.000  C
  C855     1.0000 0.70758  0.07524  0.38726  Biso   1.000  C
  H995     1.0000 0.69010  0.06760  0.39440  Biso   1.000  H
  C856     1.0000 0.75867  0.09654  0.36615  Biso   1.000  C
  H996     1.0000 0.77620  0.10360  0.35840  Biso   1.000  H
  C857     1.0000 0.74581  0.07368  0.35341  Biso   1.000  C
  H997     1.0000 0.75460  0.06480  0.33730  Biso   1.000  H
  H998     1.0000 0.70530  0.01720  0.23760  Biso   1.000  H
  H999     1.0000 0.74630  0.04050  0.27800  Biso   1.000  H
  C858     1.0000 0.72340  0.01970  0.24690  Biso   1.000  C
  H1000    1.0000 0.70480  0.01410  0.23830  Biso   1.000  H
  H1001    1.0000 0.72140  0.03920  0.25490  Biso   1.000  H
  O287     1.0000 0.71527  0.53014  0.82672  Biso   1.000  O
  O288     1.0000 0.68232  0.53016  0.86032  Biso   1.000  O
  C859     1.0000 0.70401  0.53990  0.84880  Biso   1.000  C
  C860     1.0000 0.71966  0.56318  0.86398  Biso   1.000  C
  C861     1.0000 0.70758  0.57524  0.88726  Biso   1.000  C
  H1002    1.0000 0.69010  0.56760  0.89440  Biso   1.000  H
  C862     1.0000 0.75867  0.59654  0.86615  Biso   1.000  C
  H1003    1.0000 0.77620  0.60360  0.85840  Biso   1.000  H
  C863     1.0000 0.74581  0.57368  0.85341  Biso   1.000  C
  H1004    1.0000 0.75460  0.56480  0.83730  Biso   1.000  H
  H1005    1.0000 0.70530  0.51720  0.73760  Biso   1.000  H
  H1006    1.0000 0.74630  0.54050  0.77800  Biso   1.000  H
  C864     1.0000 0.72340  0.51970  0.74690  Biso   1.000  C
  H1007    1.0000 0.70480  0.51410  0.73830  Biso   1.000  H
  H1008    1.0000 0.72140  0.53920  0.75490  Biso   1.000  H
  O289     1.0000 0.78473  0.82672  0.03014  Biso   1.000  O
  O290     1.0000 0.81768  0.86032  0.03016  Biso   1.000  O
  C865     1.0000 0.79599  0.84880  0.03990  Biso   1.000  C
  C866     1.0000 0.78034  0.86398  0.06318  Biso   1.000  C
  C867     1.0000 0.79242  0.88726  0.07524  Biso   1.000  C
  H1009    1.0000 0.80990  0.89440  0.06760  Biso   1.000  H
  C868     1.0000 0.74133  0.86615  0.09654  Biso   1.000  C
  H1010    1.0000 0.72380  0.85840  0.10360  Biso   1.000  H
  C869     1.0000 0.75419  0.85341  0.07368  Biso   1.000  C
  H1011    1.0000 0.74540  0.83730  0.06480  Biso   1.000  H
  H1012    1.0000 0.79470  0.73760  0.01720  Biso   1.000  H
  H1013    1.0000 0.75370  0.77800  0.04050  Biso   1.000  H
  C870     1.0000 0.77660  0.74690  0.01970  Biso   1.000  C
  H1014    1.0000 0.79520  0.73830  0.01410  Biso   1.000  H
  H1015    1.0000 0.77860  0.75490  0.03920  Biso   1.000  H
  O291     1.0000 0.78473  0.32672  0.53014  Biso   1.000  O
  O292     1.0000 0.81768  0.36032  0.53016  Biso   1.000  O
  C871     1.0000 0.79599  0.34880  0.53990  Biso   1.000  C
  C872     1.0000 0.78034  0.36398  0.56318  Biso   1.000  C
  C873     1.0000 0.79242  0.38726  0.57524  Biso   1.000  C
  H1016    1.0000 0.80990  0.39440  0.56760  Biso   1.000  H
  C874     1.0000 0.74133  0.36615  0.59654  Biso   1.000  C
  H1017    1.0000 0.72380  0.35840  0.60360  Biso   1.000  H
  C875     1.0000 0.75419  0.35341  0.57368  Biso   1.000  C
  H1018    1.0000 0.74540  0.33730  0.56480  Biso   1.000  H
  H1019    1.0000 0.79470  0.23760  0.51720  Biso   1.000  H
  H1020    1.0000 0.75370  0.27800  0.54050  Biso   1.000  H
  C876     1.0000 0.77660  0.24690  0.51970  Biso   1.000  C
  H1021    1.0000 0.79520  0.23830  0.51410  Biso   1.000  H
  H1022    1.0000 0.77860  0.25490  0.53920  Biso   1.000  H
  O293     1.0000 0.28473  0.82672  0.53014  Biso   1.000  O
  O294     1.0000 0.31768  0.86032  0.53016  Biso   1.000  O
  C877     1.0000 0.29599  0.84880  0.53990  Biso   1.000  C
  C878     1.0000 0.28034  0.86398  0.56318  Biso   1.000  C
  C879     1.0000 0.29242  0.88726  0.57524  Biso   1.000  C
  H1023    1.0000 0.30990  0.89440  0.56760  Biso   1.000  H
  C880     1.0000 0.24133  0.86615  0.59654  Biso   1.000  C
  H1024    1.0000 0.22380  0.85840  0.60360  Biso   1.000  H
  C881     1.0000 0.25419  0.85341  0.57368  Biso   1.000  C
  H1025    1.0000 0.24540  0.83730  0.56480  Biso   1.000  H
  H1026    1.0000 0.29470  0.73760  0.51720  Biso   1.000  H
  H1027    1.0000 0.25370  0.77800  0.54050  Biso   1.000  H
  C882     1.0000 0.27660  0.74690  0.51970  Biso   1.000  C
  H1028    1.0000 0.29520  0.73830  0.51410  Biso   1.000  H
  H1029    1.0000 0.27860  0.75490  0.53920  Biso   1.000  H
  O295     1.0000 0.28473  0.32672  0.03014  Biso   1.000  O
  O296     1.0000 0.31768  0.36032  0.03016  Biso   1.000  O
  C883     1.0000 0.29599  0.34880  0.03990  Biso   1.000  C
  C884     1.0000 0.28034  0.36398  0.06318  Biso   1.000  C
  C885     1.0000 0.29242  0.38726  0.07524  Biso   1.000  C
  H1030    1.0000 0.30990  0.39440  0.06760  Biso   1.000  H
  C886     1.0000 0.24133  0.36615  0.09654  Biso   1.000  C
  H1031    1.0000 0.22380  0.35840  0.10360  Biso   1.000  H
  C887     1.0000 0.25419  0.35341  0.07368  Biso   1.000  C
  H1032    1.0000 0.24540  0.33730  0.06480  Biso   1.000  H
  H1033    1.0000 0.29470  0.23760  0.01720  Biso   1.000  H
  H1034    1.0000 0.25370  0.27800  0.04050  Biso   1.000  H
  C888     1.0000 0.27660  0.24690  0.01970  Biso   1.000  C
  H1035    1.0000 0.29520  0.23830  0.01410  Biso   1.000  H
  H1036    1.0000 0.27860  0.25490  0.03920  Biso   1.000  H
  O297     1.0000 0.21527  0.17328  0.03014  Biso   1.000  O
  O298     1.0000 0.18232  0.13968  0.03016  Biso   1.000  O
  C889     1.0000 0.20401  0.15120  0.03990  Biso   1.000  C
  C890     1.0000 0.21966  0.13602  0.06318  Biso   1.000  C
  C891     1.0000 0.20758  0.11274  0.07524  Biso   1.000  C
  H1037    1.0000 0.19010  0.10560  0.06760  Biso   1.000  H
  C892     1.0000 0.25867  0.13385  0.09654  Biso   1.000  C
  H1038    1.0000 0.27620  0.14160  0.10360  Biso   1.000  H
  C893     1.0000 0.24581  0.14659  0.07368  Biso   1.000  C
  H1039    1.0000 0.25460  0.16270  0.06480  Biso   1.000  H
  H1040    1.0000 0.20530  0.26240  0.01720  Biso   1.000  H
  H1041    1.0000 0.24630  0.22200  0.04050  Biso   1.000  H
  C894     1.0000 0.22340  0.25310  0.01970  Biso   1.000  C
  H1042    1.0000 0.20480  0.26170  0.01410  Biso   1.000  H
  H1043    1.0000 0.22140  0.24510  0.03920  Biso   1.000  H
  O299     1.0000 0.21527  0.67328  0.53014  Biso   1.000  O
  O300     1.0000 0.18232  0.63968  0.53016  Biso   1.000  O
  C895     1.0000 0.20401  0.65120  0.53990  Biso   1.000  C
  C896     1.0000 0.21966  0.63602  0.56318  Biso   1.000  C
  C897     1.0000 0.20758  0.61274  0.57524  Biso   1.000  C
  H1044    1.0000 0.19010  0.60560  0.56760  Biso   1.000  H
  C898     1.0000 0.25867  0.63385  0.59654  Biso   1.000  C
  H1045    1.0000 0.27620  0.64160  0.60360  Biso   1.000  H
  C899     1.0000 0.24581  0.64659  0.57368  Biso   1.000  C
  H1046    1.0000 0.25460  0.66270  0.56480  Biso   1.000  H
  H1047    1.0000 0.20530  0.76240  0.51720  Biso   1.000  H
  H1048    1.0000 0.24630  0.72200  0.54050  Biso   1.000  H
  C900     1.0000 0.22340  0.75310  0.51970  Biso   1.000  C
  H1049    1.0000 0.20480  0.76170  0.51410  Biso   1.000  H
  H1050    1.0000 0.22140  0.74510  0.53920  Biso   1.000  H
  O301     1.0000 0.71527  0.17328  0.53014  Biso   1.000  O
  O302     1.0000 0.68232  0.13968  0.53016  Biso   1.000  O
  C901     1.0000 0.70401  0.15120  0.53990  Biso   1.000  C
  C902     1.0000 0.71966  0.13602  0.56318  Biso   1.000  C
  C903     1.0000 0.70758  0.11274  0.57524  Biso   1.000  C
  H1051    1.0000 0.69010  0.10560  0.56760  Biso   1.000  H
  C904     1.0000 0.75867  0.13385  0.59654  Biso   1.000  C
  H1052    1.0000 0.77620  0.14160  0.60360  Biso   1.000  H
  C905     1.0000 0.74581  0.14659  0.57368  Biso   1.000  C
  H1053    1.0000 0.75460  0.16270  0.56480  Biso   1.000  H
  H1054    1.0000 0.70530  0.26240  0.51720  Biso   1.000  H
  H1055    1.0000 0.74630  0.22200  0.54050  Biso   1.000  H
  C906     1.0000 0.72340  0.25310  0.51970  Biso   1.000  C
  H1056    1.0000 0.70480  0.26170  0.51410  Biso   1.000  H
  H1057    1.0000 0.72140  0.24510  0.53920  Biso   1.000  H
  O303     1.0000 0.71527  0.67328  0.03014  Biso   1.000  O
  O304     1.0000 0.68232  0.63968  0.03016  Biso   1.000  O
  C907     1.0000 0.70401  0.65120  0.03990  Biso   1.000  C
  C908     1.0000 0.71966  0.63602  0.06318  Biso   1.000  C
  C909     1.0000 0.70758  0.61274  0.07524  Biso   1.000  C
  H1058    1.0000 0.69010  0.60560  0.06760  Biso   1.000  H
  C910     1.0000 0.75867  0.63385  0.09654  Biso   1.000  C
  H1059    1.0000 0.77620  0.64160  0.10360  Biso   1.000  H
  C911     1.0000 0.74581  0.64659  0.07368  Biso   1.000  C
  H1060    1.0000 0.75460  0.66270  0.06480  Biso   1.000  H
  H1061    1.0000 0.70530  0.76240  0.01720  Biso   1.000  H
  H1062    1.0000 0.74630  0.72200  0.04050  Biso   1.000  H
  C912     1.0000 0.72340  0.75310  0.01970  Biso   1.000  C
  H1063    1.0000 0.70480  0.76170  0.01410  Biso   1.000  H
  H1064    1.0000 0.72140  0.74510  0.03920  Biso   1.000  H
  O305     1.0000 0.78473  0.17328  0.96986  Biso   1.000  O
  O306     1.0000 0.81768  0.13968  0.96984  Biso   1.000  O
  C913     1.0000 0.79599  0.15120  0.96010  Biso   1.000  C
  C914     1.0000 0.78034  0.13602  0.93682  Biso   1.000  C
  C915     1.0000 0.79242  0.11274  0.92476  Biso   1.000  C
  H1065    1.0000 0.80990  0.10560  0.93240  Biso   1.000  H
  C916     1.0000 0.74133  0.13385  0.90346  Biso   1.000  C
  H1066    1.0000 0.72380  0.14160  0.89640  Biso   1.000  H
  C917     1.0000 0.75419  0.14659  0.92632  Biso   1.000  C
  H1067    1.0000 0.74540  0.16270  0.93520  Biso   1.000  H
  H1068    1.0000 0.79470  0.26240  0.98280  Biso   1.000  H
  H1069    1.0000 0.75370  0.22200  0.95950  Biso   1.000  H
  C918     1.0000 0.77660  0.25310  0.98030  Biso   1.000  C
  H1070    1.0000 0.79520  0.26170  0.98590  Biso   1.000  H
  H1071    1.0000 0.77860  0.24510  0.96080  Biso   1.000  H
  O307     1.0000 0.78473  0.67328  0.46986  Biso   1.000  O
  O308     1.0000 0.81768  0.63968  0.46984  Biso   1.000  O
  C919     1.0000 0.79599  0.65120  0.46010  Biso   1.000  C
  C920     1.0000 0.78034  0.63602  0.43682  Biso   1.000  C
  C921     1.0000 0.79242  0.61274  0.42476  Biso   1.000  C
  H1072    1.0000 0.80990  0.60560  0.43240  Biso   1.000  H
  C922     1.0000 0.74133  0.63385  0.40346  Biso   1.000  C
  H1073    1.0000 0.72380  0.64160  0.39640  Biso   1.000  H
  C923     1.0000 0.75419  0.64659  0.42632  Biso   1.000  C
  H1074    1.0000 0.74540  0.66270  0.43520  Biso   1.000  H
  H1075    1.0000 0.79470  0.76240  0.48280  Biso   1.000  H
  H1076    1.0000 0.75370  0.72200  0.45950  Biso   1.000  H
  C924     1.0000 0.77660  0.75310  0.48030  Biso   1.000  C
  H1077    1.0000 0.79520  0.76170  0.48590  Biso   1.000  H
  H1078    1.0000 0.77860  0.74510  0.46080  Biso   1.000  H
  O309     1.0000 0.28473  0.17328  0.46986  Biso   1.000  O
  O310     1.0000 0.31768  0.13968  0.46984  Biso   1.000  O
  C925     1.0000 0.29599  0.15120  0.46010  Biso   1.000  C
  C926     1.0000 0.28034  0.13602  0.43682  Biso   1.000  C
  C927     1.0000 0.29242  0.11274  0.42476  Biso   1.000  C
  H1079    1.0000 0.30990  0.10560  0.43240  Biso   1.000  H
  C928     1.0000 0.24133  0.13385  0.40346  Biso   1.000  C
  H1080    1.0000 0.22380  0.14160  0.39640  Biso   1.000  H
  C929     1.0000 0.25419  0.14659  0.42632  Biso   1.000  C
  H1081    1.0000 0.24540  0.16270  0.43520  Biso   1.000  H
  H1082    1.0000 0.29470  0.26240  0.48280  Biso   1.000  H
  H1083    1.0000 0.25370  0.22200  0.45950  Biso   1.000  H
  C930     1.0000 0.27660  0.25310  0.48030  Biso   1.000  C
  H1084    1.0000 0.29520  0.26170  0.48590  Biso   1.000  H
  H1085    1.0000 0.27860  0.24510  0.46080  Biso   1.000  H
  O311     1.0000 0.28473  0.67328  0.96986  Biso   1.000  O
  O312     1.0000 0.31768  0.63968  0.96984  Biso   1.000  O
  C931     1.0000 0.29599  0.65120  0.96010  Biso   1.000  C
  C932     1.0000 0.28034  0.63602  0.93682  Biso   1.000  C
  C933     1.0000 0.29242  0.61274  0.92476  Biso   1.000  C
  H1086    1.0000 0.30990  0.60560  0.93240  Biso   1.000  H
  C934     1.0000 0.24133  0.63385  0.90346  Biso   1.000  C
  H1087    1.0000 0.22380  0.64160  0.89640  Biso   1.000  H
  C935     1.0000 0.25419  0.64659  0.92632  Biso   1.000  C
  H1088    1.0000 0.24540  0.66270  0.93520  Biso   1.000  H
  H1089    1.0000 0.29470  0.76240  0.98280  Biso   1.000  H
  H1090    1.0000 0.25370  0.72200  0.95950  Biso   1.000  H
  C936     1.0000 0.27660  0.75310  0.98030  Biso   1.000  C
  H1091    1.0000 0.29520  0.76170  0.98590  Biso   1.000  H
  H1092    1.0000 0.27860  0.74510  0.96080  Biso   1.000  H
  O313     1.0000 0.21527  0.82672  0.96986  Biso   1.000  O
  O314     1.0000 0.18232  0.86032  0.96984  Biso   1.000  O
  C937     1.0000 0.20401  0.84880  0.96010  Biso   1.000  C
  C938     1.0000 0.21966  0.86398  0.93682  Biso   1.000  C
  C939     1.0000 0.20758  0.88726  0.92476  Biso   1.000  C
  H1093    1.0000 0.19010  0.89440  0.93240  Biso   1.000  H
  C940     1.0000 0.25867  0.86615  0.90346  Biso   1.000  C
  H1094    1.0000 0.27620  0.85840  0.89640  Biso   1.000  H
  C941     1.0000 0.24581  0.85341  0.92632  Biso   1.000  C
  H1095    1.0000 0.25460  0.83730  0.93520  Biso   1.000  H
  H1096    1.0000 0.20530  0.73760  0.98280  Biso   1.000  H
  H1097    1.0000 0.24630  0.77800  0.95950  Biso   1.000  H
  C942     1.0000 0.22340  0.74690  0.98030  Biso   1.000  C
  H1098    1.0000 0.20480  0.73830  0.98590  Biso   1.000  H
  H1099    1.0000 0.22140  0.75490  0.96080  Biso   1.000  H
  O315     1.0000 0.21527  0.32672  0.46986  Biso   1.000  O
  O316     1.0000 0.18232  0.36032  0.46984  Biso   1.000  O
  C943     1.0000 0.20401  0.34880  0.46010  Biso   1.000  C
  C944     1.0000 0.21966  0.36398  0.43682  Biso   1.000  C
  C945     1.0000 0.20758  0.38726  0.42476  Biso   1.000  C
  H1100    1.0000 0.19010  0.39440  0.43240  Biso   1.000  H
  C946     1.0000 0.25867  0.36615  0.40346  Biso   1.000  C
  H1101    1.0000 0.27620  0.35840  0.39640  Biso   1.000  H
  C947     1.0000 0.24581  0.35341  0.42632  Biso   1.000  C
  H1102    1.0000 0.25460  0.33730  0.43520  Biso   1.000  H
  H1103    1.0000 0.20530  0.23760  0.48280  Biso   1.000  H
  H1104    1.0000 0.24630  0.27800  0.45950  Biso   1.000  H
  C948     1.0000 0.22340  0.24690  0.48030  Biso   1.000  C
  H1105    1.0000 0.20480  0.23830  0.48590  Biso   1.000  H
  H1106    1.0000 0.22140  0.25490  0.46080  Biso   1.000  H
  O317     1.0000 0.71527  0.82672  0.46986  Biso   1.000  O
  O318     1.0000 0.68232  0.86032  0.46984  Biso   1.000  O
  C949     1.0000 0.70401  0.84880  0.46010  Biso   1.000  C
  C950     1.0000 0.71966  0.86398  0.43682  Biso   1.000  C
  C951     1.0000 0.70758  0.88726  0.42476  Biso   1.000  C
  H1107    1.0000 0.69010  0.89440  0.43240  Biso   1.000  H
  C952     1.0000 0.75867  0.86615  0.40346  Biso   1.000  C
  H1108    1.0000 0.77620  0.85840  0.39640  Biso   1.000  H
  C953     1.0000 0.74581  0.85341  0.42632  Biso   1.000  C
  H1109    1.0000 0.75460  0.83730  0.43520  Biso   1.000  H
  H1110    1.0000 0.70530  0.73760  0.48280  Biso   1.000  H
  H1111    1.0000 0.74630  0.77800  0.45950  Biso   1.000  H
  C954     1.0000 0.72340  0.74690  0.48030  Biso   1.000  C
  H1112    1.0000 0.70480  0.73830  0.48590  Biso   1.000  H
  H1113    1.0000 0.72140  0.75490  0.46080  Biso   1.000  H
  O319     1.0000 0.71527  0.32672  0.96986  Biso   1.000  O
  O320     1.0000 0.68232  0.36032  0.96984  Biso   1.000  O
  C955     1.0000 0.70401  0.34880  0.96010  Biso   1.000  C
  C956     1.0000 0.71966  0.36398  0.93682  Biso   1.000  C
  C957     1.0000 0.70758  0.38726  0.92476  Biso   1.000  C
  H1114    1.0000 0.69010  0.39440  0.93240  Biso   1.000  H
  C958     1.0000 0.75867  0.36615  0.90346  Biso   1.000  C
  H1115    1.0000 0.77620  0.35840  0.89640  Biso   1.000  H
  C959     1.0000 0.74581  0.35341  0.92632  Biso   1.000  C
  H1116    1.0000 0.75460  0.33730  0.93520  Biso   1.000  H
  H1117    1.0000 0.70530  0.23760  0.98280  Biso   1.000  H
  H1118    1.0000 0.74630  0.27800  0.95950  Biso   1.000  H
  C960     1.0000 0.72340  0.24690  0.98030  Biso   1.000  C
  H1119    1.0000 0.70480  0.23830  0.98590  Biso   1.000  H
  H1120    1.0000 0.72140  0.25490  0.96080  Biso   1.000  H
  O321     1.0000 0.82672  0.96986  0.21527  Biso   1.000  O
  O322     1.0000 0.86032  0.96984  0.18232  Biso   1.000  O
  C961     1.0000 0.84880  0.96010  0.20401  Biso   1.000  C
  C962     1.0000 0.86398  0.93682  0.21966  Biso   1.000  C
  C963     1.0000 0.88726  0.92476  0.20758  Biso   1.000  C
  H1121    1.0000 0.89440  0.93240  0.19010  Biso   1.000  H
  C964     1.0000 0.86615  0.90346  0.25867  Biso   1.000  C
  H1122    1.0000 0.85840  0.89640  0.27620  Biso   1.000  H
  C965     1.0000 0.85341  0.92632  0.24581  Biso   1.000  C
  H1123    1.0000 0.83730  0.93520  0.25460  Biso   1.000  H
  H1124    1.0000 0.73760  0.98280  0.20530  Biso   1.000  H
  H1125    1.0000 0.77800  0.95950  0.24630  Biso   1.000  H
  C966     1.0000 0.74690  0.98030  0.22340  Biso   1.000  C
  H1126    1.0000 0.73830  0.98590  0.20480  Biso   1.000  H
  H1127    1.0000 0.75490  0.96080  0.22140  Biso   1.000  H
  O323     1.0000 0.82672  0.46986  0.71527  Biso   1.000  O
  O324     1.0000 0.86032  0.46984  0.68232  Biso   1.000  O
  C967     1.0000 0.84880  0.46010  0.70401  Biso   1.000  C
  C968     1.0000 0.86398  0.43682  0.71966  Biso   1.000  C
  C969     1.0000 0.88726  0.42476  0.70758  Biso   1.000  C
  H1128    1.0000 0.89440  0.43240  0.69010  Biso   1.000  H
  C970     1.0000 0.86615  0.40346  0.75867  Biso   1.000  C
  H1129    1.0000 0.85840  0.39640  0.77620  Biso   1.000  H
  C971     1.0000 0.85341  0.42632  0.74581  Biso   1.000  C
  H1130    1.0000 0.83730  0.43520  0.75460  Biso   1.000  H
  H1131    1.0000 0.73760  0.48280  0.70530  Biso   1.000  H
  H1132    1.0000 0.77800  0.45950  0.74630  Biso   1.000  H
  C972     1.0000 0.74690  0.48030  0.72340  Biso   1.000  C
  H1133    1.0000 0.73830  0.48590  0.70480  Biso   1.000  H
  H1134    1.0000 0.75490  0.46080  0.72140  Biso   1.000  H
  O325     1.0000 0.32672  0.96986  0.71527  Biso   1.000  O
  O326     1.0000 0.36032  0.96984  0.68232  Biso   1.000  O
  C973     1.0000 0.34880  0.96010  0.70401  Biso   1.000  C
  C974     1.0000 0.36398  0.93682  0.71966  Biso   1.000  C
  C975     1.0000 0.38726  0.92476  0.70758  Biso   1.000  C
  H1135    1.0000 0.39440  0.93240  0.69010  Biso   1.000  H
  C976     1.0000 0.36615  0.90346  0.75867  Biso   1.000  C
  H1136    1.0000 0.35840  0.89640  0.77620  Biso   1.000  H
  C977     1.0000 0.35341  0.92632  0.74581  Biso   1.000  C
  H1137    1.0000 0.33730  0.93520  0.75460  Biso   1.000  H
  H1138    1.0000 0.23760  0.98280  0.70530  Biso   1.000  H
  H1139    1.0000 0.27800  0.95950  0.74630  Biso   1.000  H
  C978     1.0000 0.24690  0.98030  0.72340  Biso   1.000  C
  H1140    1.0000 0.23830  0.98590  0.70480  Biso   1.000  H
  H1141    1.0000 0.25490  0.96080  0.72140  Biso   1.000  H
  O327     1.0000 0.32672  0.46986  0.21527  Biso   1.000  O
  O328     1.0000 0.36032  0.46984  0.18232  Biso   1.000  O
  C979     1.0000 0.34880  0.46010  0.20401  Biso   1.000  C
  C980     1.0000 0.36398  0.43682  0.21966  Biso   1.000  C
  C981     1.0000 0.38726  0.42476  0.20758  Biso   1.000  C
  H1142    1.0000 0.39440  0.43240  0.19010  Biso   1.000  H
  C982     1.0000 0.36615  0.40346  0.25867  Biso   1.000  C
  H1143    1.0000 0.35840  0.39640  0.27620  Biso   1.000  H
  C983     1.0000 0.35341  0.42632  0.24581  Biso   1.000  C
  H1144    1.0000 0.33730  0.43520  0.25460  Biso   1.000  H
  H1145    1.0000 0.23760  0.48280  0.20530  Biso   1.000  H
  H1146    1.0000 0.27800  0.45950  0.24630  Biso   1.000  H
  C984     1.0000 0.24690  0.48030  0.22340  Biso   1.000  C
  H1147    1.0000 0.23830  0.48590  0.20480  Biso   1.000  H
  H1148    1.0000 0.25490  0.46080  0.22140  Biso   1.000  H
  O329     1.0000 0.17328  0.96986  0.78473  Biso   1.000  O
  O330     1.0000 0.13968  0.96984  0.81768  Biso   1.000  O
  C985     1.0000 0.15120  0.96010  0.79599  Biso   1.000  C
  C986     1.0000 0.13602  0.93682  0.78034  Biso   1.000  C
  C987     1.0000 0.11274  0.92476  0.79242  Biso   1.000  C
  H1149    1.0000 0.10560  0.93240  0.80990  Biso   1.000  H
  C988     1.0000 0.13385  0.90346  0.74133  Biso   1.000  C
  H1150    1.0000 0.14160  0.89640  0.72380  Biso   1.000  H
  C989     1.0000 0.14659  0.92632  0.75419  Biso   1.000  C
  H1151    1.0000 0.16270  0.93520  0.74540  Biso   1.000  H
  H1152    1.0000 0.26240  0.98280  0.79470  Biso   1.000  H
  H1153    1.0000 0.22200  0.95950  0.75370  Biso   1.000  H
  C990     1.0000 0.25310  0.98030  0.77660  Biso   1.000  C
  H1154    1.0000 0.26170  0.98590  0.79520  Biso   1.000  H
  H1155    1.0000 0.24510  0.96080  0.77860  Biso   1.000  H
  O331     1.0000 0.17328  0.46986  0.28473  Biso   1.000  O
  O332     1.0000 0.13968  0.46984  0.31768  Biso   1.000  O
  C991     1.0000 0.15120  0.46010  0.29599  Biso   1.000  C
  C992     1.0000 0.13602  0.43682  0.28034  Biso   1.000  C
  C993     1.0000 0.11274  0.42476  0.29242  Biso   1.000  C
  H1156    1.0000 0.10560  0.43240  0.30990  Biso   1.000  H
  C994     1.0000 0.13385  0.40346  0.24133  Biso   1.000  C
  H1157    1.0000 0.14160  0.39640  0.22380  Biso   1.000  H
  C995     1.0000 0.14659  0.42632  0.25419  Biso   1.000  C
  H1158    1.0000 0.16270  0.43520  0.24540  Biso   1.000  H
  H1159    1.0000 0.26240  0.48280  0.29470  Biso   1.000  H
  H1160    1.0000 0.22200  0.45950  0.25370  Biso   1.000  H
  C996     1.0000 0.25310  0.48030  0.27660  Biso   1.000  C
  H1161    1.0000 0.26170  0.48590  0.29520  Biso   1.000  H
  H1162    1.0000 0.24510  0.46080  0.27860  Biso   1.000  H
  O333     1.0000 0.67328  0.96986  0.28473  Biso   1.000  O
  O334     1.0000 0.63968  0.96984  0.31768  Biso   1.000  O
  C997     1.0000 0.65120  0.96010  0.29599  Biso   1.000  C
  C998     1.0000 0.63602  0.93682  0.28034  Biso   1.000  C
  C999     1.0000 0.61274  0.92476  0.29242  Biso   1.000  C
  H1163    1.0000 0.60560  0.93240  0.30990  Biso   1.000  H
  C1000    1.0000 0.63385  0.90346  0.24133  Biso   1.000  C
  H1164    1.0000 0.64160  0.89640  0.22380  Biso   1.000  H
  C1001    1.0000 0.64659  0.92632  0.25419  Biso   1.000  C
  H1165    1.0000 0.66270  0.93520  0.24540  Biso   1.000  H
  H1166    1.0000 0.76240  0.98280  0.29470  Biso   1.000  H
  H1167    1.0000 0.72200  0.95950  0.25370  Biso   1.000  H
  C1002    1.0000 0.75310  0.98030  0.27660  Biso   1.000  C
  H1168    1.0000 0.76170  0.98590  0.29520  Biso   1.000  H
  H1169    1.0000 0.74510  0.96080  0.27860  Biso   1.000  H
  O335     1.0000 0.67328  0.46986  0.78473  Biso   1.000  O
  O336     1.0000 0.63968  0.46984  0.81768  Biso   1.000  O
  C1003    1.0000 0.65120  0.46010  0.79599  Biso   1.000  C
  C1004    1.0000 0.63602  0.43682  0.78034  Biso   1.000  C
  C1005    1.0000 0.61274  0.42476  0.79242  Biso   1.000  C
  H1170    1.0000 0.60560  0.43240  0.80990  Biso   1.000  H
  C1006    1.0000 0.63385  0.40346  0.74133  Biso   1.000  C
  H1171    1.0000 0.64160  0.39640  0.72380  Biso   1.000  H
  C1007    1.0000 0.64659  0.42632  0.75419  Biso   1.000  C
  H1172    1.0000 0.66270  0.43520  0.74540  Biso   1.000  H
  H1173    1.0000 0.76240  0.48280  0.79470  Biso   1.000  H
  H1174    1.0000 0.72200  0.45950  0.75370  Biso   1.000  H
  C1008    1.0000 0.75310  0.48030  0.77660  Biso   1.000  C
  H1175    1.0000 0.76170  0.48590  0.79520  Biso   1.000  H
  H1176    1.0000 0.74510  0.46080  0.77860  Biso   1.000  H
  O337     1.0000 0.17328  0.03014  0.21527  Biso   1.000  O
  O338     1.0000 0.13968  0.03016  0.18232  Biso   1.000  O
  C1009    1.0000 0.15120  0.03990  0.20401  Biso   1.000  C
  C1010    1.0000 0.13602  0.06318  0.21966  Biso   1.000  C
  C1011    1.0000 0.11274  0.07524  0.20758  Biso   1.000  C
  H1177    1.0000 0.10560  0.06760  0.19010  Biso   1.000  H
  C1012    1.0000 0.13385  0.09654  0.25867  Biso   1.000  C
  H1178    1.0000 0.14160  0.10360  0.27620  Biso   1.000  H
  C1013    1.0000 0.14659  0.07368  0.24581  Biso   1.000  C
  H1179    1.0000 0.16270  0.06480  0.25460  Biso   1.000  H
  H1180    1.0000 0.26240  0.01720  0.20530  Biso   1.000  H
  H1181    1.0000 0.22200  0.04050  0.24630  Biso   1.000  H
  C1014    1.0000 0.25310  0.01970  0.22340  Biso   1.000  C
  H1182    1.0000 0.26170  0.01410  0.20480  Biso   1.000  H
  H1183    1.0000 0.24510  0.03920  0.22140  Biso   1.000  H
  O339     1.0000 0.17328  0.53014  0.71527  Biso   1.000  O
  O340     1.0000 0.13968  0.53016  0.68232  Biso   1.000  O
  C1015    1.0000 0.15120  0.53990  0.70401  Biso   1.000  C
  C1016    1.0000 0.13602  0.56318  0.71966  Biso   1.000  C
  C1017    1.0000 0.11274  0.57524  0.70758  Biso   1.000  C
  H1184    1.0000 0.10560  0.56760  0.69010  Biso   1.000  H
  C1018    1.0000 0.13385  0.59654  0.75867  Biso   1.000  C
  H1185    1.0000 0.14160  0.60360  0.77620  Biso   1.000  H
  C1019    1.0000 0.14659  0.57368  0.74581  Biso   1.000  C
  H1186    1.0000 0.16270  0.56480  0.75460  Biso   1.000  H
  H1187    1.0000 0.26240  0.51720  0.70530  Biso   1.000  H
  H1188    1.0000 0.22200  0.54050  0.74630  Biso   1.000  H
  C1020    1.0000 0.25310  0.51970  0.72340  Biso   1.000  C
  H1189    1.0000 0.26170  0.51410  0.70480  Biso   1.000  H
  H1190    1.0000 0.24510  0.53920  0.72140  Biso   1.000  H
  O341     1.0000 0.67328  0.03014  0.71527  Biso   1.000  O
  O342     1.0000 0.63968  0.03016  0.68232  Biso   1.000  O
  C1021    1.0000 0.65120  0.03990  0.70401  Biso   1.000  C
  C1022    1.0000 0.63602  0.06318  0.71966  Biso   1.000  C
  C1023    1.0000 0.61274  0.07524  0.70758  Biso   1.000  C
  H1191    1.0000 0.60560  0.06760  0.69010  Biso   1.000  H
  C1024    1.0000 0.63385  0.09654  0.75867  Biso   1.000  C
  H1192    1.0000 0.64160  0.10360  0.77620  Biso   1.000  H
  C1025    1.0000 0.64659  0.07368  0.74581  Biso   1.000  C
  H1193    1.0000 0.66270  0.06480  0.75460  Biso   1.000  H
  H1194    1.0000 0.76240  0.01720  0.70530  Biso   1.000  H
  H1195    1.0000 0.72200  0.04050  0.74630  Biso   1.000  H
  C1026    1.0000 0.75310  0.01970  0.72340  Biso   1.000  C
  H1196    1.0000 0.76170  0.01410  0.70480  Biso   1.000  H
  H1197    1.0000 0.74510  0.03920  0.72140  Biso   1.000  H
  O343     1.0000 0.67328  0.53014  0.21527  Biso   1.000  O
  O344     1.0000 0.63968  0.53016  0.18232  Biso   1.000  O
  C1027    1.0000 0.65120  0.53990  0.20401  Biso   1.000  C
  C1028    1.0000 0.63602  0.56318  0.21966  Biso   1.000  C
  C1029    1.0000 0.61274  0.57524  0.20758  Biso   1.000  C
  H1198    1.0000 0.60560  0.56760  0.19010  Biso   1.000  H
  C1030    1.0000 0.63385  0.59654  0.25867  Biso   1.000  C
  H1199    1.0000 0.64160  0.60360  0.27620  Biso   1.000  H
  C1031    1.0000 0.64659  0.57368  0.24581  Biso   1.000  C
  H1200    1.0000 0.66270  0.56480  0.25460  Biso   1.000  H
  H1201    1.0000 0.76240  0.51720  0.20530  Biso   1.000  H
  H1202    1.0000 0.72200  0.54050  0.24630  Biso   1.000  H
  C1032    1.0000 0.75310  0.51970  0.22340  Biso   1.000  C
  H1203    1.0000 0.76170  0.51410  0.20480  Biso   1.000  H
  H1204    1.0000 0.74510  0.53920  0.22140  Biso   1.000  H
  O345     1.0000 0.82672  0.03014  0.78473  Biso   1.000  O
  O346     1.0000 0.86032  0.03016  0.81768  Biso   1.000  O
  C1033    1.0000 0.84880  0.03990  0.79599  Biso   1.000  C
  C1034    1.0000 0.86398  0.06318  0.78034  Biso   1.000  C
  C1035    1.0000 0.88726  0.07524  0.79242  Biso   1.000  C
  H1205    1.0000 0.89440  0.06760  0.80990  Biso   1.000  H
  C1036    1.0000 0.86615  0.09654  0.74133  Biso   1.000  C
  H1206    1.0000 0.85840  0.10360  0.72380  Biso   1.000  H
  C1037    1.0000 0.85341  0.07368  0.75419  Biso   1.000  C
  H1207    1.0000 0.83730  0.06480  0.74540  Biso   1.000  H
  H1208    1.0000 0.73760  0.01720  0.79470  Biso   1.000  H
  H1209    1.0000 0.77800  0.04050  0.75370  Biso   1.000  H
  C1038    1.0000 0.74690  0.01970  0.77660  Biso   1.000  C
  H1210    1.0000 0.73830  0.01410  0.79520  Biso   1.000  H
  H1211    1.0000 0.75490  0.03920  0.77860  Biso   1.000  H
  O347     1.0000 0.82672  0.53014  0.28473  Biso   1.000  O
  O348     1.0000 0.86032  0.53016  0.31768  Biso   1.000  O
  C1039    1.0000 0.84880  0.53990  0.29599  Biso   1.000  C
  C1040    1.0000 0.86398  0.56318  0.28034  Biso   1.000  C
  C1041    1.0000 0.88726  0.57524  0.29242  Biso   1.000  C
  H1212    1.0000 0.89440  0.56760  0.30990  Biso   1.000  H
  C1042    1.0000 0.86615  0.59654  0.24133  Biso   1.000  C
  H1213    1.0000 0.85840  0.60360  0.22380  Biso   1.000  H
  C1043    1.0000 0.85341  0.57368  0.25419  Biso   1.000  C
  H1214    1.0000 0.83730  0.56480  0.24540  Biso   1.000  H
  H1215    1.0000 0.73760  0.51720  0.29470  Biso   1.000  H
  H1216    1.0000 0.77800  0.54050  0.25370  Biso   1.000  H
  C1044    1.0000 0.74690  0.51970  0.27660  Biso   1.000  C
  H1217    1.0000 0.73830  0.51410  0.29520  Biso   1.000  H
  H1218    1.0000 0.75490  0.53920  0.27860  Biso   1.000  H
  O349     1.0000 0.32672  0.03014  0.28473  Biso   1.000  O
  O350     1.0000 0.36032  0.03016  0.31768  Biso   1.000  O
  C1045    1.0000 0.34880  0.03990  0.29599  Biso   1.000  C
  C1046    1.0000 0.36398  0.06318  0.28034  Biso   1.000  C
  C1047    1.0000 0.38726  0.07524  0.29242  Biso   1.000  C
  H1219    1.0000 0.39440  0.06760  0.30990  Biso   1.000  H
  C1048    1.0000 0.36615  0.09654  0.24133  Biso   1.000  C
  H1220    1.0000 0.35840  0.10360  0.22380  Biso   1.000  H
  C1049    1.0000 0.35341  0.07368  0.25419  Biso   1.000  C
  H1221    1.0000 0.33730  0.06480  0.24540  Biso   1.000  H
  H1222    1.0000 0.23760  0.01720  0.29470  Biso   1.000  H
  H1223    1.0000 0.27800  0.04050  0.25370  Biso   1.000  H
  C1050    1.0000 0.24690  0.01970  0.27660  Biso   1.000  C
  H1224    1.0000 0.23830  0.01410  0.29520  Biso   1.000  H
  H1225    1.0000 0.25490  0.03920  0.27860  Biso   1.000  H
  O351     1.0000 0.32672  0.53014  0.78473  Biso   1.000  O
  O352     1.0000 0.36032  0.53016  0.81768  Biso   1.000  O
  C1051    1.0000 0.34880  0.53990  0.79599  Biso   1.000  C
  C1052    1.0000 0.36398  0.56318  0.78034  Biso   1.000  C
  C1053    1.0000 0.38726  0.57524  0.79242  Biso   1.000  C
  H1226    1.0000 0.39440  0.56760  0.80990  Biso   1.000  H
  C1054    1.0000 0.36615  0.59654  0.74133  Biso   1.000  C
  H1227    1.0000 0.35840  0.60360  0.72380  Biso   1.000  H
  C1055    1.0000 0.35341  0.57368  0.75419  Biso   1.000  C
  H1228    1.0000 0.33730  0.56480  0.74540  Biso   1.000  H
  H1229    1.0000 0.23760  0.51720  0.79470  Biso   1.000  H
  H1230    1.0000 0.27800  0.54050  0.75370  Biso   1.000  H
  C1056    1.0000 0.24690  0.51970  0.77660  Biso   1.000  C
  H1231    1.0000 0.23830  0.51410  0.79520  Biso   1.000  H
  H1232    1.0000 0.25490  0.53920  0.77860  Biso   1.000  H
  O353     1.0000 0.96986  0.78473  0.17328  Biso   1.000  O
  O354     1.0000 0.96984  0.81768  0.13968  Biso   1.000  O
  C1057    1.0000 0.96010  0.79599  0.15120  Biso   1.000  C
  C1058    1.0000 0.93682  0.78034  0.13602  Biso   1.000  C
  C1059    1.0000 0.92476  0.79242  0.11274  Biso   1.000  C
  H1233    1.0000 0.93240  0.80990  0.10560  Biso   1.000  H
  C1060    1.0000 0.90346  0.74133  0.13385  Biso   1.000  C
  H1234    1.0000 0.89640  0.72380  0.14160  Biso   1.000  H
  C1061    1.0000 0.92632  0.75419  0.14659  Biso   1.000  C
  H1235    1.0000 0.93520  0.74540  0.16270  Biso   1.000  H
  H1236    1.0000 0.98280  0.79470  0.26240  Biso   1.000  H
  H1237    1.0000 0.95950  0.75370  0.22200  Biso   1.000  H
  C1062    1.0000 0.98030  0.77660  0.25310  Biso   1.000  C
  H1238    1.0000 0.98590  0.79520  0.26170  Biso   1.000  H
  H1239    1.0000 0.96080  0.77860  0.24510  Biso   1.000  H
  O355     1.0000 0.96986  0.28473  0.67328  Biso   1.000  O
  O356     1.0000 0.96984  0.31768  0.63968  Biso   1.000  O
  C1063    1.0000 0.96010  0.29599  0.65120  Biso   1.000  C
  C1064    1.0000 0.93682  0.28034  0.63602  Biso   1.000  C
  C1065    1.0000 0.92476  0.29242  0.61274  Biso   1.000  C
  H1240    1.0000 0.93240  0.30990  0.60560  Biso   1.000  H
  C1066    1.0000 0.90346  0.24133  0.63385  Biso   1.000  C
  H1241    1.0000 0.89640  0.22380  0.64160  Biso   1.000  H
  C1067    1.0000 0.92632  0.25419  0.64659  Biso   1.000  C
  H1242    1.0000 0.93520  0.24540  0.66270  Biso   1.000  H
  H1243    1.0000 0.98280  0.29470  0.76240  Biso   1.000  H
  H1244    1.0000 0.95950  0.25370  0.72200  Biso   1.000  H
  C1068    1.0000 0.98030  0.27660  0.75310  Biso   1.000  C
  H1245    1.0000 0.98590  0.29520  0.76170  Biso   1.000  H
  H1246    1.0000 0.96080  0.27860  0.74510  Biso   1.000  H
  O357     1.0000 0.46986  0.78473  0.67328  Biso   1.000  O
  O358     1.0000 0.46984  0.81768  0.63968  Biso   1.000  O
  C1069    1.0000 0.46010  0.79599  0.65120  Biso   1.000  C
  C1070    1.0000 0.43682  0.78034  0.63602  Biso   1.000  C
  C1071    1.0000 0.42476  0.79242  0.61274  Biso   1.000  C
  H1247    1.0000 0.43240  0.80990  0.60560  Biso   1.000  H
  C1072    1.0000 0.40346  0.74133  0.63385  Biso   1.000  C
  H1248    1.0000 0.39640  0.72380  0.64160  Biso   1.000  H
  C1073    1.0000 0.42632  0.75419  0.64659  Biso   1.000  C
  H1249    1.0000 0.43520  0.74540  0.66270  Biso   1.000  H
  H1250    1.0000 0.48280  0.79470  0.76240  Biso   1.000  H
  H1251    1.0000 0.45950  0.75370  0.72200  Biso   1.000  H
  C1074    1.0000 0.48030  0.77660  0.75310  Biso   1.000  C
  H1252    1.0000 0.48590  0.79520  0.76170  Biso   1.000  H
  H1253    1.0000 0.46080  0.77860  0.74510  Biso   1.000  H
  O359     1.0000 0.46986  0.28473  0.17328  Biso   1.000  O
  O360     1.0000 0.46984  0.31768  0.13968  Biso   1.000  O
  C1075    1.0000 0.46010  0.29599  0.15120  Biso   1.000  C
  C1076    1.0000 0.43682  0.28034  0.13602  Biso   1.000  C
  C1077    1.0000 0.42476  0.29242  0.11274  Biso   1.000  C
  H1254    1.0000 0.43240  0.30990  0.10560  Biso   1.000  H
  C1078    1.0000 0.40346  0.24133  0.13385  Biso   1.000  C
  H1255    1.0000 0.39640  0.22380  0.14160  Biso   1.000  H
  C1079    1.0000 0.42632  0.25419  0.14659  Biso   1.000  C
  H1256    1.0000 0.43520  0.24540  0.16270  Biso   1.000  H
  H1257    1.0000 0.48280  0.29470  0.26240  Biso   1.000  H
  H1258    1.0000 0.45950  0.25370  0.22200  Biso   1.000  H
  C1080    1.0000 0.48030  0.27660  0.25310  Biso   1.000  C
  H1259    1.0000 0.48590  0.29520  0.26170  Biso   1.000  H
  H1260    1.0000 0.46080  0.27860  0.24510  Biso   1.000  H
  O361     1.0000 0.96986  0.21527  0.82672  Biso   1.000  O
  O362     1.0000 0.96984  0.18232  0.86032  Biso   1.000  O
  C1081    1.0000 0.96010  0.20401  0.84880  Biso   1.000  C
  C1082    1.0000 0.93682  0.21966  0.86398  Biso   1.000  C
  C1083    1.0000 0.92476  0.20758  0.88726  Biso   1.000  C
  H1261    1.0000 0.93240  0.19010  0.89440  Biso   1.000  H
  C1084    1.0000 0.90346  0.25867  0.86615  Biso   1.000  C
  H1262    1.0000 0.89640  0.27620  0.85840  Biso   1.000  H
  C1085    1.0000 0.92632  0.24581  0.85341  Biso   1.000  C
  H1263    1.0000 0.93520  0.25460  0.83730  Biso   1.000  H
  H1264    1.0000 0.98280  0.20530  0.73760  Biso   1.000  H
  H1265    1.0000 0.95950  0.24630  0.77800  Biso   1.000  H
  C1086    1.0000 0.98030  0.22340  0.74690  Biso   1.000  C
  H1266    1.0000 0.98590  0.20480  0.73830  Biso   1.000  H
  H1267    1.0000 0.96080  0.22140  0.75490  Biso   1.000  H
  O363     1.0000 0.96986  0.71527  0.32672  Biso   1.000  O
  O364     1.0000 0.96984  0.68232  0.36032  Biso   1.000  O
  C1087    1.0000 0.96010  0.70401  0.34880  Biso   1.000  C
  C1088    1.0000 0.93682  0.71966  0.36398  Biso   1.000  C
  C1089    1.0000 0.92476  0.70758  0.38726  Biso   1.000  C
  H1268    1.0000 0.93240  0.69010  0.39440  Biso   1.000  H
  C1090    1.0000 0.90346  0.75867  0.36615  Biso   1.000  C
  H1269    1.0000 0.89640  0.77620  0.35840  Biso   1.000  H
  C1091    1.0000 0.92632  0.74581  0.35341  Biso   1.000  C
  H1270    1.0000 0.93520  0.75460  0.33730  Biso   1.000  H
  H1271    1.0000 0.98280  0.70530  0.23760  Biso   1.000  H
  H1272    1.0000 0.95950  0.74630  0.27800  Biso   1.000  H
  C1092    1.0000 0.98030  0.72340  0.24690  Biso   1.000  C
  H1273    1.0000 0.98590  0.70480  0.23830  Biso   1.000  H
  H1274    1.0000 0.96080  0.72140  0.25490  Biso   1.000  H
  O365     1.0000 0.46986  0.21527  0.32672  Biso   1.000  O
  O366     1.0000 0.46984  0.18232  0.36032  Biso   1.000  O
  C1093    1.0000 0.46010  0.20401  0.34880  Biso   1.000  C
  C1094    1.0000 0.43682  0.21966  0.36398  Biso   1.000  C
  C1095    1.0000 0.42476  0.20758  0.38726  Biso   1.000  C
  H1275    1.0000 0.43240  0.19010  0.39440  Biso   1.000  H
  C1096    1.0000 0.40346  0.25867  0.36615  Biso   1.000  C
  H1276    1.0000 0.39640  0.27620  0.35840  Biso   1.000  H
  C1097    1.0000 0.42632  0.24581  0.35341  Biso   1.000  C
  H1277    1.0000 0.43520  0.25460  0.33730  Biso   1.000  H
  H1278    1.0000 0.48280  0.20530  0.23760  Biso   1.000  H
  H1279    1.0000 0.45950  0.24630  0.27800  Biso   1.000  H
  C1098    1.0000 0.48030  0.22340  0.24690  Biso   1.000  C
  H1280    1.0000 0.48590  0.20480  0.23830  Biso   1.000  H
  H1281    1.0000 0.46080  0.22140  0.25490  Biso   1.000  H
  O367     1.0000 0.46986  0.71527  0.82672  Biso   1.000  O
  O368     1.0000 0.46984  0.68232  0.86032  Biso   1.000  O
  C1099    1.0000 0.46010  0.70401  0.84880  Biso   1.000  C
  C1100    1.0000 0.43682  0.71966  0.86398  Biso   1.000  C
  C1101    1.0000 0.42476  0.70758  0.88726  Biso   1.000  C
  H1282    1.0000 0.43240  0.69010  0.89440  Biso   1.000  H
  C1102    1.0000 0.40346  0.75867  0.86615  Biso   1.000  C
  H1283    1.0000 0.39640  0.77620  0.85840  Biso   1.000  H
  C1103    1.0000 0.42632  0.74581  0.85341  Biso   1.000  C
  H1284    1.0000 0.43520  0.75460  0.83730  Biso   1.000  H
  H1285    1.0000 0.48280  0.70530  0.73760  Biso   1.000  H
  H1286    1.0000 0.45950  0.74630  0.77800  Biso   1.000  H
  C1104    1.0000 0.48030  0.72340  0.74690  Biso   1.000  C
  H1287    1.0000 0.48590  0.70480  0.73830  Biso   1.000  H
  H1288    1.0000 0.46080  0.72140  0.75490  Biso   1.000  H
  O369     1.0000 0.03014  0.78473  0.82672  Biso   1.000  O
  O370     1.0000 0.03016  0.81768  0.86032  Biso   1.000  O
  C1105    1.0000 0.03990  0.79599  0.84880  Biso   1.000  C
  C1106    1.0000 0.06318  0.78034  0.86398  Biso   1.000  C
  C1107    1.0000 0.07524  0.79242  0.88726  Biso   1.000  C
  H1289    1.0000 0.06760  0.80990  0.89440  Biso   1.000  H
  C1108    1.0000 0.09654  0.74133  0.86615  Biso   1.000  C
  H1290    1.0000 0.10360  0.72380  0.85840  Biso   1.000  H
  C1109    1.0000 0.07368  0.75419  0.85341  Biso   1.000  C
  H1291    1.0000 0.06480  0.74540  0.83730  Biso   1.000  H
  H1292    1.0000 0.01720  0.79470  0.73760  Biso   1.000  H
  H1293    1.0000 0.04050  0.75370  0.77800  Biso   1.000  H
  C1110    1.0000 0.01970  0.77660  0.74690  Biso   1.000  C
  H1294    1.0000 0.01410  0.79520  0.73830  Biso   1.000  H
  H1295    1.0000 0.03920  0.77860  0.75490  Biso   1.000  H
  O371     1.0000 0.03014  0.28473  0.32672  Biso   1.000  O
  O372     1.0000 0.03016  0.31768  0.36032  Biso   1.000  O
  C1111    1.0000 0.03990  0.29599  0.34880  Biso   1.000  C
  C1112    1.0000 0.06318  0.28034  0.36398  Biso   1.000  C
  C1113    1.0000 0.07524  0.29242  0.38726  Biso   1.000  C
  H1296    1.0000 0.06760  0.30990  0.39440  Biso   1.000  H
  C1114    1.0000 0.09654  0.24133  0.36615  Biso   1.000  C
  H1297    1.0000 0.10360  0.22380  0.35840  Biso   1.000  H
  C1115    1.0000 0.07368  0.25419  0.35341  Biso   1.000  C
  H1298    1.0000 0.06480  0.24540  0.33730  Biso   1.000  H
  H1299    1.0000 0.01720  0.29470  0.23760  Biso   1.000  H
  H1300    1.0000 0.04050  0.25370  0.27800  Biso   1.000  H
  C1116    1.0000 0.01970  0.27660  0.24690  Biso   1.000  C
  H1301    1.0000 0.01410  0.29520  0.23830  Biso   1.000  H
  H1302    1.0000 0.03920  0.27860  0.25490  Biso   1.000  H
  O373     1.0000 0.53014  0.78473  0.32672  Biso   1.000  O
  O374     1.0000 0.53016  0.81768  0.36032  Biso   1.000  O
  C1117    1.0000 0.53990  0.79599  0.34880  Biso   1.000  C
  C1118    1.0000 0.56318  0.78034  0.36398  Biso   1.000  C
  C1119    1.0000 0.57524  0.79242  0.38726  Biso   1.000  C
  H1303    1.0000 0.56760  0.80990  0.39440  Biso   1.000  H
  C1120    1.0000 0.59654  0.74133  0.36615  Biso   1.000  C
  H1304    1.0000 0.60360  0.72380  0.35840  Biso   1.000  H
  C1121    1.0000 0.57368  0.75419  0.35341  Biso   1.000  C
  H1305    1.0000 0.56480  0.74540  0.33730  Biso   1.000  H
  H1306    1.0000 0.51720  0.79470  0.23760  Biso   1.000  H
  H1307    1.0000 0.54050  0.75370  0.27800  Biso   1.000  H
  C1122    1.0000 0.51970  0.77660  0.24690  Biso   1.000  C
  H1308    1.0000 0.51410  0.79520  0.23830  Biso   1.000  H
  H1309    1.0000 0.53920  0.77860  0.25490  Biso   1.000  H
  O375     1.0000 0.53014  0.28473  0.82672  Biso   1.000  O
  O376     1.0000 0.53016  0.31768  0.86032  Biso   1.000  O
  C1123    1.0000 0.53990  0.29599  0.84880  Biso   1.000  C
  C1124    1.0000 0.56318  0.28034  0.86398  Biso   1.000  C
  C1125    1.0000 0.57524  0.29242  0.88726  Biso   1.000  C
  H1310    1.0000 0.56760  0.30990  0.89440  Biso   1.000  H
  C1126    1.0000 0.59654  0.24133  0.86615  Biso   1.000  C
  H1311    1.0000 0.60360  0.22380  0.85840  Biso   1.000  H
  C1127    1.0000 0.57368  0.25419  0.85341  Biso   1.000  C
  H1312    1.0000 0.56480  0.24540  0.83730  Biso   1.000  H
  H1313    1.0000 0.51720  0.29470  0.73760  Biso   1.000  H
  H1314    1.0000 0.54050  0.25370  0.77800  Biso   1.000  H
  C1128    1.0000 0.51970  0.27660  0.74690  Biso   1.000  C
  H1315    1.0000 0.51410  0.29520  0.73830  Biso   1.000  H
  H1316    1.0000 0.53920  0.27860  0.75490  Biso   1.000  H
  O377     1.0000 0.03014  0.21527  0.17328  Biso   1.000  O
  O378     1.0000 0.03016  0.18232  0.13968  Biso   1.000  O
  C1129    1.0000 0.03990  0.20401  0.15120  Biso   1.000  C
  C1130    1.0000 0.06318  0.21966  0.13602  Biso   1.000  C
  C1131    1.0000 0.07524  0.20758  0.11274  Biso   1.000  C
  H1317    1.0000 0.06760  0.19010  0.10560  Biso   1.000  H
  C1132    1.0000 0.09654  0.25867  0.13385  Biso   1.000  C
  H1318    1.0000 0.10360  0.27620  0.14160  Biso   1.000  H
  C1133    1.0000 0.07368  0.24581  0.14659  Biso   1.000  C
  H1319    1.0000 0.06480  0.25460  0.16270  Biso   1.000  H
  H1320    1.0000 0.01720  0.20530  0.26240  Biso   1.000  H
  H1321    1.0000 0.04050  0.24630  0.22200  Biso   1.000  H
  C1134    1.0000 0.01970  0.22340  0.25310  Biso   1.000  C
  H1322    1.0000 0.01410  0.20480  0.26170  Biso   1.000  H
  H1323    1.0000 0.03920  0.22140  0.24510  Biso   1.000  H
  O379     1.0000 0.03014  0.71527  0.67328  Biso   1.000  O
  O380     1.0000 0.03016  0.68232  0.63968  Biso   1.000  O
  C1135    1.0000 0.03990  0.70401  0.65120  Biso   1.000  C
  C1136    1.0000 0.06318  0.71966  0.63602  Biso   1.000  C
  C1137    1.0000 0.07524  0.70758  0.61274  Biso   1.000  C
  H1324    1.0000 0.06760  0.69010  0.60560  Biso   1.000  H
  C1138    1.0000 0.09654  0.75867  0.63385  Biso   1.000  C
  H1325    1.0000 0.10360  0.77620  0.64160  Biso   1.000  H
  C1139    1.0000 0.07368  0.74581  0.64659  Biso   1.000  C
  H1326    1.0000 0.06480  0.75460  0.66270  Biso   1.000  H
  H1327    1.0000 0.01720  0.70530  0.76240  Biso   1.000  H
  H1328    1.0000 0.04050  0.74630  0.72200  Biso   1.000  H
  C1140    1.0000 0.01970  0.72340  0.75310  Biso   1.000  C
  H1329    1.0000 0.01410  0.70480  0.76170  Biso   1.000  H
  H1330    1.0000 0.03920  0.72140  0.74510  Biso   1.000  H
  O381     1.0000 0.53014  0.21527  0.67328  Biso   1.000  O
  O382     1.0000 0.53016  0.18232  0.63968  Biso   1.000  O
  C1141    1.0000 0.53990  0.20401  0.65120  Biso   1.000  C
  C1142    1.0000 0.56318  0.21966  0.63602  Biso   1.000  C
  C1143    1.0000 0.57524  0.20758  0.61274  Biso   1.000  C
  H1331    1.0000 0.56760  0.19010  0.60560  Biso   1.000  H
  C1144    1.0000 0.59654  0.25867  0.63385  Biso   1.000  C
  H1332    1.0000 0.60360  0.27620  0.64160  Biso   1.000  H
  C1145    1.0000 0.57368  0.24581  0.64659  Biso   1.000  C
  H1333    1.0000 0.56480  0.25460  0.66270  Biso   1.000  H
  H1334    1.0000 0.51720  0.20530  0.76240  Biso   1.000  H
  H1335    1.0000 0.54050  0.24630  0.72200  Biso   1.000  H
  C1146    1.0000 0.51970  0.22340  0.75310  Biso   1.000  C
  H1336    1.0000 0.51410  0.20480  0.76170  Biso   1.000  H
  H1337    1.0000 0.53920  0.22140  0.74510  Biso   1.000  H
  O383     1.0000 0.53014  0.71527  0.17328  Biso   1.000  O
  O384     1.0000 0.53016  0.68232  0.13968  Biso   1.000  O
  C1147    1.0000 0.53990  0.70401  0.15120  Biso   1.000  C
  C1148    1.0000 0.56318  0.71966  0.13602  Biso   1.000  C
  C1149    1.0000 0.57524  0.70758  0.11274  Biso   1.000  C
  H1338    1.0000 0.56760  0.69010  0.10560  Biso   1.000  H
  C1150    1.0000 0.59654  0.75867  0.13385  Biso   1.000  C
  H1339    1.0000 0.60360  0.77620  0.14160  Biso   1.000  H
  C1151    1.0000 0.57368  0.74581  0.14659  Biso   1.000  C
  H1340    1.0000 0.56480  0.75460  0.16270  Biso   1.000  H
  H1341    1.0000 0.51720  0.70530  0.26240  Biso   1.000  H
  H1342    1.0000 0.54050  0.74630  0.22200  Biso   1.000  H
  C1152    1.0000 0.51970  0.72340  0.25310  Biso   1.000  C
  H1343    1.0000 0.51410  0.70480  0.26170  Biso   1.000  H
  H1344    1.0000 0.53920  0.72140  0.24510  Biso   1.000  H
  Zn1      1.0000 0.19981  0.19981  0.00000  Biso   1.000  Zn
  Zn2      1.0000 0.15538  0.15538  0.00000  Biso   1.000  Zn
  N1       1.0000 0.23071  0.23071  0.00000  Biso   1.000  N
  Zn3      1.0000 0.19981  0.69981  0.50000  Biso   1.000  Zn
  Zn4      1.0000 0.15538  0.65538  0.50000  Biso   1.000  Zn
  N2       1.0000 0.23071  0.73071  0.50000  Biso   1.000  N
  Zn5      1.0000 0.69981  0.19981  0.50000  Biso   1.000  Zn
  Zn6      1.0000 0.65538  0.15538  0.50000  Biso   1.000  Zn
  N3       1.0000 0.73071  0.23071  0.50000  Biso   1.000  N
  Zn7      1.0000 0.69981  0.69981  0.00000  Biso   1.000  Zn
  Zn8      1.0000 0.65538  0.65538  0.00000  Biso   1.000  Zn
  N4       1.0000 0.73071  0.73071  0.00000  Biso   1.000  N
  Zn9      1.0000 0.80019  0.80019  0.00000  Biso   1.000  Zn
  Zn10     1.0000 0.84462  0.84462  0.00000  Biso   1.000  Zn
  N5       1.0000 0.76929  0.76929  0.00000  Biso   1.000  N
  Zn11     1.0000 0.80019  0.30019  0.50000  Biso   1.000  Zn
  Zn12     1.0000 0.84462  0.34462  0.50000  Biso   1.000  Zn
  N6       1.0000 0.76929  0.26929  0.50000  Biso   1.000  N
  Zn13     1.0000 0.30019  0.80019  0.50000  Biso   1.000  Zn
  Zn14     1.0000 0.34462  0.84462  0.50000  Biso   1.000  Zn
  N7       1.0000 0.26929  0.76929  0.50000  Biso   1.000  N
  Zn15     1.0000 0.30019  0.30019  0.00000  Biso   1.000  Zn
  Zn16     1.0000 0.34462  0.34462  0.00000  Biso   1.000  Zn
  N8       1.0000 0.26929  0.26929  0.00000  Biso   1.000  N
  Zn17     1.0000 0.80019  0.19981  0.00000  Biso   1.000  Zn
  Zn18     1.0000 0.84462  0.15538  0.00000  Biso   1.000  Zn
  N9       1.0000 0.76929  0.23071  0.00000  Biso   1.000  N
  Zn19     1.0000 0.80019  0.69981  0.50000  Biso   1.000  Zn
  Zn20     1.0000 0.84462  0.65538  0.50000  Biso   1.000  Zn
  N10      1.0000 0.76929  0.73071  0.50000  Biso   1.000  N
  Zn21     1.0000 0.30019  0.19981  0.50000  Biso   1.000  Zn
  Zn22     1.0000 0.34462  0.15538  0.50000  Biso   1.000  Zn
  N11      1.0000 0.26929  0.23071  0.50000  Biso   1.000  N
  Zn23     1.0000 0.30019  0.69981  0.00000  Biso   1.000  Zn
  Zn24     1.0000 0.34462  0.65538  0.00000  Biso   1.000  Zn
  N12      1.0000 0.26929  0.73071  0.00000  Biso   1.000  N
  Zn25     1.0000 0.19981  0.80019  0.00000  Biso   1.000  Zn
  Zn26     1.0000 0.15538  0.84462  0.00000  Biso   1.000  Zn
  N13      1.0000 0.23071  0.76929  0.00000  Biso   1.000  N
  Zn27     1.0000 0.19981  0.30019  0.50000  Biso   1.000  Zn
  Zn28     1.0000 0.15538  0.34462  0.50000  Biso   1.000  Zn
  N14      1.0000 0.23071  0.26929  0.50000  Biso   1.000  N
  Zn29     1.0000 0.69981  0.80019  0.50000  Biso   1.000  Zn
  Zn30     1.0000 0.65538  0.84462  0.50000  Biso   1.000  Zn
  N15      1.0000 0.73071  0.76929  0.50000  Biso   1.000  N
  Zn31     1.0000 0.69981  0.30019  0.00000  Biso   1.000  Zn
  Zn32     1.0000 0.65538  0.34462  0.00000  Biso   1.000  Zn
  N16      1.0000 0.73071  0.26929  0.00000  Biso   1.000  N
  Zn33     1.0000 0.00000  0.19981  0.19981  Biso   1.000  Zn
  Zn34     1.0000 0.00000  0.15538  0.15538  Biso   1.000  Zn
  N17      1.0000 0.00000  0.23071  0.23071  Biso   1.000  N
  Zn35     1.0000 0.00000  0.69981  0.69981  Biso   1.000  Zn
  Zn36     1.0000 0.00000  0.65538  0.65538  Biso   1.000  Zn
  N18      1.0000 0.00000  0.73071  0.73071  Biso   1.000  N
  Zn37     1.0000 0.50000  0.19981  0.69981  Biso   1.000  Zn
  Zn38     1.0000 0.50000  0.15538  0.65538  Biso   1.000  Zn
  N19      1.0000 0.50000  0.23071  0.73071  Biso   1.000  N
  Zn39     1.0000 0.50000  0.69981  0.19981  Biso   1.000  Zn
  Zn40     1.0000 0.50000  0.65538  0.15538  Biso   1.000  Zn
  N20      1.0000 0.50000  0.73071  0.23071  Biso   1.000  N
  Zn41     1.0000 0.00000  0.80019  0.80019  Biso   1.000  Zn
  Zn42     1.0000 0.00000  0.84462  0.84462  Biso   1.000  Zn
  N21      1.0000 0.00000  0.76929  0.76929  Biso   1.000  N
  Zn43     1.0000 0.00000  0.30019  0.30019  Biso   1.000  Zn
  Zn44     1.0000 0.00000  0.34462  0.34462  Biso   1.000  Zn
  N22      1.0000 0.00000  0.26929  0.26929  Biso   1.000  N
  Zn45     1.0000 0.50000  0.80019  0.30019  Biso   1.000  Zn
  Zn46     1.0000 0.50000  0.84462  0.34462  Biso   1.000  Zn
  N23      1.0000 0.50000  0.76929  0.26929  Biso   1.000  N
  Zn47     1.0000 0.50000  0.30019  0.80019  Biso   1.000  Zn
  Zn48     1.0000 0.50000  0.34462  0.84462  Biso   1.000  Zn
  N24      1.0000 0.50000  0.26929  0.76929  Biso   1.000  N
  Zn49     1.0000 0.00000  0.80019  0.19981  Biso   1.000  Zn
  Zn50     1.0000 0.00000  0.84462  0.15538  Biso   1.000  Zn
  N25      1.0000 0.00000  0.76929  0.23071  Biso   1.000  N
  Zn51     1.0000 0.00000  0.30019  0.69981  Biso   1.000  Zn
  Zn52     1.0000 0.00000  0.34462  0.65538  Biso   1.000  Zn
  N26      1.0000 0.00000  0.26929  0.73071  Biso   1.000  N
  Zn53     1.0000 0.50000  0.80019  0.69981  Biso   1.000  Zn
  Zn54     1.0000 0.50000  0.84462  0.65538  Biso   1.000  Zn
  N27      1.0000 0.50000  0.76929  0.73071  Biso   1.000  N
  Zn55     1.0000 0.50000  0.30019  0.19981  Biso   1.000  Zn
  Zn56     1.0000 0.50000  0.34462  0.15538  Biso   1.000  Zn
  N28      1.0000 0.50000  0.26929  0.23071  Biso   1.000  N
  Zn57     1.0000 0.00000  0.19981  0.80019  Biso   1.000  Zn
  Zn58     1.0000 0.00000  0.15538  0.84462  Biso   1.000  Zn
  N29      1.0000 0.00000  0.23071  0.76929  Biso   1.000  N
  Zn59     1.0000 0.00000  0.69981  0.30019  Biso   1.000  Zn
  Zn60     1.0000 0.00000  0.65538  0.34462  Biso   1.000  Zn
  N30      1.0000 0.00000  0.73071  0.26929  Biso   1.000  N
  Zn61     1.0000 0.50000  0.19981  0.30019  Biso   1.000  Zn
  Zn62     1.0000 0.50000  0.15538  0.34462  Biso   1.000  Zn
  N31      1.0000 0.50000  0.23071  0.26929  Biso   1.000  N
  Zn63     1.0000 0.50000  0.69981  0.80019  Biso   1.000  Zn
  Zn64     1.0000 0.50000  0.65538  0.84462  Biso   1.000  Zn
  N32      1.0000 0.50000  0.73071  0.76929  Biso   1.000  N
  Zn65     1.0000 0.19981  0.00000  0.19981  Biso   1.000  Zn
  Zn66     1.0000 0.15538  0.00000  0.15538  Biso   1.000  Zn
  N33      1.0000 0.23071  0.00000  0.23071  Biso   1.000  N
  Zn67     1.0000 0.19981  0.50000  0.69981  Biso   1.000  Zn
  Zn68     1.0000 0.15538  0.50000  0.65538  Biso   1.000  Zn
  N34      1.0000 0.23071  0.50000  0.73071  Biso   1.000  N
  Zn69     1.0000 0.69981  0.00000  0.69981  Biso   1.000  Zn
  Zn70     1.0000 0.65538  0.00000  0.65538  Biso   1.000  Zn
  N35      1.0000 0.73071  0.00000  0.73071  Biso   1.000  N
  Zn71     1.0000 0.69981  0.50000  0.19981  Biso   1.000  Zn
  Zn72     1.0000 0.65538  0.50000  0.15538  Biso   1.000  Zn
  N36      1.0000 0.73071  0.50000  0.23071  Biso   1.000  N
  Zn73     1.0000 0.80019  0.00000  0.80019  Biso   1.000  Zn
  Zn74     1.0000 0.84462  0.00000  0.84462  Biso   1.000  Zn
  N37      1.0000 0.76929  0.00000  0.76929  Biso   1.000  N
  Zn75     1.0000 0.80019  0.50000  0.30019  Biso   1.000  Zn
  Zn76     1.0000 0.84462  0.50000  0.34462  Biso   1.000  Zn
  N38      1.0000 0.76929  0.50000  0.26929  Biso   1.000  N
  Zn77     1.0000 0.30019  0.00000  0.30019  Biso   1.000  Zn
  Zn78     1.0000 0.34462  0.00000  0.34462  Biso   1.000  Zn
  N39      1.0000 0.26929  0.00000  0.26929  Biso   1.000  N
  Zn79     1.0000 0.30019  0.50000  0.80019  Biso   1.000  Zn
  Zn80     1.0000 0.34462  0.50000  0.84462  Biso   1.000  Zn
  N40      1.0000 0.26929  0.50000  0.76929  Biso   1.000  N
  Zn81     1.0000 0.19981  0.00000  0.80019  Biso   1.000  Zn
  Zn82     1.0000 0.15538  0.00000  0.84462  Biso   1.000  Zn
  N41      1.0000 0.23071  0.00000  0.76929  Biso   1.000  N
  Zn83     1.0000 0.19981  0.50000  0.30019  Biso   1.000  Zn
  Zn84     1.0000 0.15538  0.50000  0.34462  Biso   1.000  Zn
  N42      1.0000 0.23071  0.50000  0.26929  Biso   1.000  N
  Zn85     1.0000 0.69981  0.00000  0.30019  Biso   1.000  Zn
  Zn86     1.0000 0.65538  0.00000  0.34462  Biso   1.000  Zn
  N43      1.0000 0.73071  0.00000  0.26929  Biso   1.000  N
  Zn87     1.0000 0.69981  0.50000  0.80019  Biso   1.000  Zn
  Zn88     1.0000 0.65538  0.50000  0.84462  Biso   1.000  Zn
  N44      1.0000 0.73071  0.50000  0.76929  Biso   1.000  N
  Zn89     1.0000 0.80019  0.00000  0.19981  Biso   1.000  Zn
  Zn90     1.0000 0.84462  0.00000  0.15538  Biso   1.000  Zn
  N45      1.0000 0.76929  0.00000  0.23071  Biso   1.000  N
  Zn91     1.0000 0.80019  0.50000  0.69981  Biso   1.000  Zn
  Zn92     1.0000 0.84462  0.50000  0.65538  Biso   1.000  Zn
  N46      1.0000 0.76929  0.50000  0.73071  Biso   1.000  N
  Zn93     1.0000 0.30019  0.00000  0.69981  Biso   1.000  Zn
  Zn94     1.0000 0.34462  0.00000  0.65538  Biso   1.000  Zn
  N47      1.0000 0.26929  0.00000  0.73071  Biso   1.000  N
  Zn95     1.0000 0.30019  0.50000  0.19981  Biso   1.000  Zn
  Zn96     1.0000 0.34462  0.50000  0.15538  Biso   1.000  Zn
  N48      1.0000 0.26929  0.50000  0.23071  Biso   1.000  N
  C1153    1.0000 0.09874  0.22001  0.09874  Biso   1.000  C
  C1154    1.0000 0.10997  0.24716  0.10997  Biso   1.000  C
  C1155    1.0000 0.09874  0.72001  0.59874  Biso   1.000  C
  C1156    1.0000 0.10997  0.74716  0.60997  Biso   1.000  C
  C1157    1.0000 0.59874  0.22001  0.59874  Biso   1.000  C
  C1158    1.0000 0.60997  0.24716  0.60997  Biso   1.000  C
  C1159    1.0000 0.59874  0.72001  0.09874  Biso   1.000  C
  C1160    1.0000 0.60997  0.74716  0.10997  Biso   1.000  C
  C1161    1.0000 0.90126  0.77999  0.09874  Biso   1.000  C
  C1162    1.0000 0.89003  0.75284  0.10997  Biso   1.000  C
  C1163    1.0000 0.90126  0.27999  0.59874  Biso   1.000  C
  C1164    1.0000 0.89003  0.25284  0.60997  Biso   1.000  C
  C1165    1.0000 0.40126  0.77999  0.59874  Biso   1.000  C
  C1166    1.0000 0.39003  0.75284  0.60997  Biso   1.000  C
  C1167    1.0000 0.40126  0.27999  0.09874  Biso   1.000  C
  C1168    1.0000 0.39003  0.25284  0.10997  Biso   1.000  C
  C1169    1.0000 0.90126  0.22001  0.90126  Biso   1.000  C
  C1170    1.0000 0.89003  0.24716  0.89003  Biso   1.000  C
  C1171    1.0000 0.90126  0.72001  0.40126  Biso   1.000  C
  C1172    1.0000 0.89003  0.74716  0.39003  Biso   1.000  C
  C1173    1.0000 0.40126  0.22001  0.40126  Biso   1.000  C
  C1174    1.0000 0.39003  0.24716  0.39003  Biso   1.000  C
  C1175    1.0000 0.40126  0.72001  0.90126  Biso   1.000  C
  C1176    1.0000 0.39003  0.74716  0.89003  Biso   1.000  C
  C1177    1.0000 0.09874  0.77999  0.90126  Biso   1.000  C
  C1178    1.0000 0.10997  0.75284  0.89003  Biso   1.000  C
  C1179    1.0000 0.09874  0.27999  0.40126  Biso   1.000  C
  C1180    1.0000 0.10997  0.25284  0.39003  Biso   1.000  C
  C1181    1.0000 0.59874  0.77999  0.40126  Biso   1.000  C
  C1182    1.0000 0.60997  0.75284  0.39003  Biso   1.000  C
  C1183    1.0000 0.59874  0.27999  0.90126  Biso   1.000  C
  C1184    1.0000 0.60997  0.25284  0.89003  Biso   1.000  C
  C1185    1.0000 0.09874  0.09874  0.22001  Biso   1.000  C
  C1186    1.0000 0.10997  0.10997  0.24716  Biso   1.000  C
  C1187    1.0000 0.09874  0.59874  0.72001  Biso   1.000  C
  C1188    1.0000 0.10997  0.60997  0.74716  Biso   1.000  C
  C1189    1.0000 0.59874  0.09874  0.72001  Biso   1.000  C
  C1190    1.0000 0.60997  0.10997  0.74716  Biso   1.000  C
  C1191    1.0000 0.59874  0.59874  0.22001  Biso   1.000  C
  C1192    1.0000 0.60997  0.60997  0.24716  Biso   1.000  C
  C1193    1.0000 0.09874  0.90126  0.77999  Biso   1.000  C
  C1194    1.0000 0.10997  0.89003  0.75284  Biso   1.000  C
  C1195    1.0000 0.09874  0.40126  0.27999  Biso   1.000  C
  C1196    1.0000 0.10997  0.39003  0.25284  Biso   1.000  C
  C1197    1.0000 0.59874  0.90126  0.27999  Biso   1.000  C
  C1198    1.0000 0.60997  0.89003  0.25284  Biso   1.000  C
  C1199    1.0000 0.59874  0.40126  0.77999  Biso   1.000  C
  C1200    1.0000 0.60997  0.39003  0.75284  Biso   1.000  C
  C1201    1.0000 0.90126  0.90126  0.22001  Biso   1.000  C
  C1202    1.0000 0.89003  0.89003  0.24716  Biso   1.000  C
  C1203    1.0000 0.90126  0.40126  0.72001  Biso   1.000  C
  C1204    1.0000 0.89003  0.39003  0.74716  Biso   1.000  C
  C1205    1.0000 0.40126  0.90126  0.72001  Biso   1.000  C
  C1206    1.0000 0.39003  0.89003  0.74716  Biso   1.000  C
  C1207    1.0000 0.40126  0.40126  0.22001  Biso   1.000  C
  C1208    1.0000 0.39003  0.39003  0.24716  Biso   1.000  C
  C1209    1.0000 0.90126  0.09874  0.77999  Biso   1.000  C
  C1210    1.0000 0.89003  0.10997  0.75284  Biso   1.000  C
  C1211    1.0000 0.90126  0.59874  0.27999  Biso   1.000  C
  C1212    1.0000 0.89003  0.60997  0.25284  Biso   1.000  C
  C1213    1.0000 0.40126  0.09874  0.27999  Biso   1.000  C
  C1214    1.0000 0.39003  0.10997  0.25284  Biso   1.000  C
  C1215    1.0000 0.40126  0.59874  0.77999  Biso   1.000  C
  C1216    1.0000 0.39003  0.60997  0.75284  Biso   1.000  C
  C1217    1.0000 0.22001  0.09874  0.09874  Biso   1.000  C
  C1218    1.0000 0.24716  0.10997  0.10997  Biso   1.000  C
  C1219    1.0000 0.22001  0.59874  0.59874  Biso   1.000  C
  C1220    1.0000 0.24716  0.60997  0.60997  Biso   1.000  C
  C1221    1.0000 0.72001  0.09874  0.59874  Biso   1.000  C
  C1222    1.0000 0.74716  0.10997  0.60997  Biso   1.000  C
  C1223    1.0000 0.72001  0.59874  0.09874  Biso   1.000  C
  C1224    1.0000 0.74716  0.60997  0.10997  Biso   1.000  C
  C1225    1.0000 0.77999  0.09874  0.90126  Biso   1.000  C
  C1226    1.0000 0.75284  0.10997  0.89003  Biso   1.000  C
  C1227    1.0000 0.77999  0.59874  0.40126  Biso   1.000  C
  C1228    1.0000 0.75284  0.60997  0.39003  Biso   1.000  C
  C1229    1.0000 0.27999  0.09874  0.40126  Biso   1.000  C
  C1230    1.0000 0.25284  0.10997  0.39003  Biso   1.000  C
  C1231    1.0000 0.27999  0.59874  0.90126  Biso   1.000  C
  C1232    1.0000 0.25284  0.60997  0.89003  Biso   1.000  C
  C1233    1.0000 0.22001  0.90126  0.90126  Biso   1.000  C
  C1234    1.0000 0.24716  0.89003  0.89003  Biso   1.000  C
  C1235    1.0000 0.22001  0.40126  0.40126  Biso   1.000  C
  C1236    1.0000 0.24716  0.39003  0.39003  Biso   1.000  C
  C1237    1.0000 0.72001  0.90126  0.40126  Biso   1.000  C
  C1238    1.0000 0.74716  0.89003  0.39003  Biso   1.000  C
  C1239    1.0000 0.72001  0.40126  0.90126  Biso   1.000  C
  C1240    1.0000 0.74716  0.39003  0.89003  Biso   1.000  C
  C1241    1.0000 0.77999  0.90126  0.09874  Biso   1.000  C
  C1242    1.0000 0.75284  0.89003  0.10997  Biso   1.000  C
  C1243    1.0000 0.77999  0.40126  0.59874  Biso   1.000  C
  C1244    1.0000 0.75284  0.39003  0.60997  Biso   1.000  C
  C1245    1.0000 0.27999  0.90126  0.59874  Biso   1.000  C
  C1246    1.0000 0.25284  0.89003  0.60997  Biso   1.000  C
  C1247    1.0000 0.27999  0.40126  0.09874  Biso   1.000  C
  C1248    1.0000 0.25284  0.39003  0.10997  Biso   1.000  C
  C1249    1.0000 0.22001  0.09874  0.90126  Biso   1.000  C
  C1250    1.0000 0.24716  0.10997  0.89003  Biso   1.000  C
  C1251    1.0000 0.22001  0.59874  0.40126  Biso   1.000  C
  C1252    1.0000 0.24716  0.60997  0.39003  Biso   1.000  C
  C1253    1.0000 0.72001  0.09874  0.40126  Biso   1.000  C
  C1254    1.0000 0.74716  0.10997  0.39003  Biso   1.000  C
  C1255    1.0000 0.72001  0.59874  0.90126  Biso   1.000  C
  C1256    1.0000 0.74716  0.60997  0.89003  Biso   1.000  C
  C1257    1.0000 0.77999  0.90126  0.90126  Biso   1.000  C
  C1258    1.0000 0.75284  0.89003  0.89003  Biso   1.000  C
  C1259    1.0000 0.77999  0.40126  0.40126  Biso   1.000  C
  C1260    1.0000 0.75284  0.39003  0.39003  Biso   1.000  C
  C1261    1.0000 0.27999  0.90126  0.40126  Biso   1.000  C
  C1262    1.0000 0.25284  0.89003  0.39003  Biso   1.000  C
  C1263    1.0000 0.27999  0.40126  0.90126  Biso   1.000  C
  C1264    1.0000 0.25284  0.39003  0.89003  Biso   1.000  C
  C1265    1.0000 0.22001  0.90126  0.09874  Biso   1.000  C
  C1266    1.0000 0.24716  0.89003  0.10997  Biso   1.000  C
  C1267    1.0000 0.22001  0.40126  0.59874  Biso   1.000  C
  C1268    1.0000 0.24716  0.39003  0.60997  Biso   1.000  C
  C1269    1.0000 0.72001  0.90126  0.59874  Biso   1.000  C
  C1270    1.0000 0.74716  0.89003  0.60997  Biso   1.000  C
  C1271    1.0000 0.72001  0.40126  0.09874  Biso   1.000  C
  C1272    1.0000 0.74716  0.39003  0.10997  Biso   1.000  C
  C1273    1.0000 0.77999  0.09874  0.09874  Biso   1.000  C
  C1274    1.0000 0.75284  0.10997  0.10997  Biso   1.000  C
  C1275    1.0000 0.77999  0.59874  0.59874  Biso   1.000  C
  C1276    1.0000 0.75284  0.60997  0.60997  Biso   1.000  C
  C1277    1.0000 0.27999  0.09874  0.59874  Biso   1.000  C
  C1278    1.0000 0.25284  0.10997  0.60997  Biso   1.000  C
  C1279    1.0000 0.27999  0.59874  0.09874  Biso   1.000  C
  C1280    1.0000 0.25284  0.60997  0.10997  Biso   1.000  C
  C1281    1.0000 0.09874  0.09874  0.77999  Biso   1.000  C
  C1282    1.0000 0.10997  0.10997  0.75284  Biso   1.000  C
  C1283    1.0000 0.09874  0.59874  0.27999  Biso   1.000  C
  C1284    1.0000 0.10997  0.60997  0.25284  Biso   1.000  C
  C1285    1.0000 0.59874  0.09874  0.27999  Biso   1.000  C
  C1286    1.0000 0.60997  0.10997  0.25284  Biso   1.000  C
  C1287    1.0000 0.59874  0.59874  0.77999  Biso   1.000  C
  C1288    1.0000 0.60997  0.60997  0.75284  Biso   1.000  C
  C1289    1.0000 0.90126  0.09874  0.22001  Biso   1.000  C
  C1290    1.0000 0.89003  0.10997  0.24716  Biso   1.000  C
  C1291    1.0000 0.90126  0.59874  0.72001  Biso   1.000  C
  C1292    1.0000 0.89003  0.60997  0.74716  Biso   1.000  C
  C1293    1.0000 0.40126  0.09874  0.72001  Biso   1.000  C
  C1294    1.0000 0.39003  0.10997  0.74716  Biso   1.000  C
  C1295    1.0000 0.40126  0.59874  0.22001  Biso   1.000  C
  C1296    1.0000 0.39003  0.60997  0.24716  Biso   1.000  C
  C1297    1.0000 0.90126  0.90126  0.77999  Biso   1.000  C
  C1298    1.0000 0.89003  0.89003  0.75284  Biso   1.000  C
  C1299    1.0000 0.90126  0.40126  0.27999  Biso   1.000  C
  C1300    1.0000 0.89003  0.39003  0.25284  Biso   1.000  C
  C1301    1.0000 0.40126  0.90126  0.27999  Biso   1.000  C
  C1302    1.0000 0.39003  0.89003  0.25284  Biso   1.000  C
  C1303    1.0000 0.40126  0.40126  0.77999  Biso   1.000  C
  C1304    1.0000 0.39003  0.39003  0.75284  Biso   1.000  C
  C1305    1.0000 0.09874  0.90126  0.22001  Biso   1.000  C
  C1306    1.0000 0.10997  0.89003  0.24716  Biso   1.000  C
  C1307    1.0000 0.09874  0.40126  0.72001  Biso   1.000  C
  C1308    1.0000 0.10997  0.39003  0.74716  Biso   1.000  C
  C1309    1.0000 0.59874  0.90126  0.72001  Biso   1.000  C
  C1310    1.0000 0.60997  0.89003  0.74716  Biso   1.000  C
  C1311    1.0000 0.59874  0.40126  0.22001  Biso   1.000  C
  C1312    1.0000 0.60997  0.39003  0.24716  Biso   1.000  C
  C1313    1.0000 0.09874  0.22001  0.90126  Biso   1.000  C
  C1314    1.0000 0.10997  0.24716  0.89003  Biso   1.000  C
  C1315    1.0000 0.09874  0.72001  0.40126  Biso   1.000  C
  C1316    1.0000 0.10997  0.74716  0.39003  Biso   1.000  C
  C1317    1.0000 0.59874  0.22001  0.40126  Biso   1.000  C
  C1318    1.0000 0.60997  0.24716  0.39003  Biso   1.000  C
  C1319    1.0000 0.59874  0.72001  0.90126  Biso   1.000  C
  C1320    1.0000 0.60997  0.74716  0.89003  Biso   1.000  C
  C1321    1.0000 0.09874  0.77999  0.09874  Biso   1.000  C
  C1322    1.0000 0.10997  0.75284  0.10997  Biso   1.000  C
  C1323    1.0000 0.09874  0.27999  0.59874  Biso   1.000  C
  C1324    1.0000 0.10997  0.25284  0.60997  Biso   1.000  C
  C1325    1.0000 0.59874  0.77999  0.59874  Biso   1.000  C
  C1326    1.0000 0.60997  0.75284  0.60997  Biso   1.000  C
  C1327    1.0000 0.59874  0.27999  0.09874  Biso   1.000  C
  C1328    1.0000 0.60997  0.25284  0.10997  Biso   1.000  C
  C1329    1.0000 0.90126  0.22001  0.09874  Biso   1.000  C
  C1330    1.0000 0.89003  0.24716  0.10997  Biso   1.000  C
  C1331    1.0000 0.90126  0.72001  0.59874  Biso   1.000  C
  C1332    1.0000 0.89003  0.74716  0.60997  Biso   1.000  C
  C1333    1.0000 0.40126  0.22001  0.59874  Biso   1.000  C
  C1334    1.0000 0.39003  0.24716  0.60997  Biso   1.000  C
  C1335    1.0000 0.40126  0.72001  0.09874  Biso   1.000  C
  C1336    1.0000 0.39003  0.74716  0.10997  Biso   1.000  C
  C1337    1.0000 0.90126  0.77999  0.90126  Biso   1.000  C
  C1338    1.0000 0.89003  0.75284  0.89003  Biso   1.000  C
  C1339    1.0000 0.90126  0.27999  0.40126  Biso   1.000  C
  C1340    1.0000 0.89003  0.25284  0.39003  Biso   1.000  C
  C1341    1.0000 0.40126  0.77999  0.40126  Biso   1.000  C
  C1342    1.0000 0.39003  0.75284  0.39003  Biso   1.000  C
  C1343    1.0000 0.40126  0.27999  0.90126  Biso   1.000  C
  C1344    1.0000 0.39003  0.25284  0.89003  Biso   1.000  C
  C1345    1.0000 0.26020  0.21750  0.00000  Biso   1.000  C
  C1346    1.0000 0.26020  0.71750  0.50000  Biso   1.000  C
  C1347    1.0000 0.76020  0.21750  0.50000  Biso   1.000  C
  C1348    1.0000 0.76020  0.71750  0.00000  Biso   1.000  C
  C1349    1.0000 0.73980  0.78250  0.00000  Biso   1.000  C
  C1350    1.0000 0.73980  0.28250  0.50000  Biso   1.000  C
  C1351    1.0000 0.23980  0.78250  0.50000  Biso   1.000  C
  C1352    1.0000 0.23980  0.28250  0.00000  Biso   1.000  C
  C1353    1.0000 0.73980  0.21750  0.00000  Biso   1.000  C
  C1354    1.0000 0.73980  0.71750  0.50000  Biso   1.000  C
  C1355    1.0000 0.23980  0.21750  0.50000  Biso   1.000  C
  C1356    1.0000 0.23980  0.71750  0.00000  Biso   1.000  C
  C1357    1.0000 0.26020  0.78250  0.00000  Biso   1.000  C
  C1358    1.0000 0.26020  0.28250  0.50000  Biso   1.000  C
  C1359    1.0000 0.76020  0.78250  0.50000  Biso   1.000  C
  C1360    1.0000 0.76020  0.28250  0.00000  Biso   1.000  C
  C1361    1.0000 0.00000  0.26020  0.21750  Biso   1.000  C
  C1362    1.0000 0.00000  0.76020  0.71750  Biso   1.000  C
  C1363    1.0000 0.50000  0.26020  0.71750  Biso   1.000  C
  C1364    1.0000 0.50000  0.76020  0.21750  Biso   1.000  C
  C1365    1.0000 0.00000  0.73980  0.78250  Biso   1.000  C
  C1366    1.0000 0.00000  0.23980  0.28250  Biso   1.000  C
  C1367    1.0000 0.50000  0.73980  0.28250  Biso   1.000  C
  C1368    1.0000 0.50000  0.23980  0.78250  Biso   1.000  C
  C1369    1.0000 0.00000  0.73980  0.21750  Biso   1.000  C
  C1370    1.0000 0.00000  0.23980  0.71750  Biso   1.000  C
  C1371    1.0000 0.50000  0.73980  0.71750  Biso   1.000  C
  C1372    1.0000 0.50000  0.23980  0.21750  Biso   1.000  C
  C1373    1.0000 0.00000  0.26020  0.78250  Biso   1.000  C
  C1374    1.0000 0.00000  0.76020  0.28250  Biso   1.000  C
  C1375    1.0000 0.50000  0.26020  0.28250  Biso   1.000  C
  C1376    1.0000 0.50000  0.76020  0.78250  Biso   1.000  C
  C1377    1.0000 0.21750  0.00000  0.26020  Biso   1.000  C
  C1378    1.0000 0.21750  0.50000  0.76020  Biso   1.000  C
  C1379    1.0000 0.71750  0.00000  0.76020  Biso   1.000  C
  C1380    1.0000 0.71750  0.50000  0.26020  Biso   1.000  C
  C1381    1.0000 0.78250  0.00000  0.73980  Biso   1.000  C
  C1382    1.0000 0.78250  0.50000  0.23980  Biso   1.000  C
  C1383    1.0000 0.28250  0.00000  0.23980  Biso   1.000  C
  C1384    1.0000 0.28250  0.50000  0.73980  Biso   1.000  C
  C1385    1.0000 0.21750  0.00000  0.73980  Biso   1.000  C
  C1386    1.0000 0.21750  0.50000  0.23980  Biso   1.000  C
  C1387    1.0000 0.71750  0.00000  0.23980  Biso   1.000  C
  C1388    1.0000 0.71750  0.50000  0.73980  Biso   1.000  C
  C1389    1.0000 0.78250  0.00000  0.26020  Biso   1.000  C
  C1390    1.0000 0.78250  0.50000  0.76020  Biso   1.000  C
  C1391    1.0000 0.28250  0.00000  0.76020  Biso   1.000  C
  C1392    1.0000 0.28250  0.50000  0.26020  Biso   1.000  C
  C1393    1.0000 0.21750  0.26020  0.00000  Biso   1.000  C
  C1394    1.0000 0.21750  0.76020  0.50000  Biso   1.000  C
  C1395    1.0000 0.71750  0.26020  0.50000  Biso   1.000  C
  C1396    1.0000 0.71750  0.76020  0.00000  Biso   1.000  C
  C1397    1.0000 0.78250  0.73980  0.00000  Biso   1.000  C
  C1398    1.0000 0.78250  0.23980  0.50000  Biso   1.000  C
  C1399    1.0000 0.28250  0.73980  0.50000  Biso   1.000  C
  C1400    1.0000 0.28250  0.23980  0.00000  Biso   1.000  C
  C1401    1.0000 0.21750  0.73980  0.00000  Biso   1.000  C
  C1402    1.0000 0.21750  0.23980  0.50000  Biso   1.000  C
  C1403    1.0000 0.71750  0.73980  0.50000  Biso   1.000  C
  C1404    1.0000 0.71750  0.23980  0.00000  Biso   1.000  C
  C1405    1.0000 0.78250  0.26020  0.00000  Biso   1.000  C
  C1406    1.0000 0.78250  0.76020  0.50000  Biso   1.000  C
  C1407    1.0000 0.28250  0.26020  0.50000  Biso   1.000  C
  C1408    1.0000 0.28250  0.76020  0.00000  Biso   1.000  C
  C1409    1.0000 0.26020  0.00000  0.78250  Biso   1.000  C
  C1410    1.0000 0.26020  0.50000  0.28250  Biso   1.000  C
  C1411    1.0000 0.76020  0.00000  0.28250  Biso   1.000  C
  C1412    1.0000 0.76020  0.50000  0.78250  Biso   1.000  C
  C1413    1.0000 0.73980  0.00000  0.21750  Biso   1.000  C
  C1414    1.0000 0.73980  0.50000  0.71750  Biso   1.000  C
  C1415    1.0000 0.23980  0.00000  0.71750  Biso   1.000  C
  C1416    1.0000 0.23980  0.50000  0.21750  Biso   1.000  C
  C1417    1.0000 0.73980  0.00000  0.78250  Biso   1.000  C
  C1418    1.0000 0.73980  0.50000  0.28250  Biso   1.000  C
  C1419    1.0000 0.23980  0.00000  0.28250  Biso   1.000  C
  C1420    1.0000 0.23980  0.50000  0.78250  Biso   1.000  C
  C1421    1.0000 0.26020  0.00000  0.21750  Biso   1.000  C
  C1422    1.0000 0.26020  0.50000  0.71750  Biso   1.000  C
  C1423    1.0000 0.76020  0.00000  0.71750  Biso   1.000  C
  C1424    1.0000 0.76020  0.50000  0.21750  Biso   1.000  C
  C1425    1.0000 0.00000  0.21750  0.73980  Biso   1.000  C
  C1426    1.0000 0.00000  0.71750  0.23980  Biso   1.000  C
  C1427    1.0000 0.50000  0.21750  0.23980  Biso   1.000  C
  C1428    1.0000 0.50000  0.71750  0.73980  Biso   1.000  C
  C1429    1.0000 0.00000  0.78250  0.26020  Biso   1.000  C
  C1430    1.0000 0.00000  0.28250  0.76020  Biso   1.000  C
  C1431    1.0000 0.50000  0.78250  0.76020  Biso   1.000  C
  C1432    1.0000 0.50000  0.28250  0.26020  Biso   1.000  C
  C1433    1.0000 0.00000  0.21750  0.26020  Biso   1.000  C
  C1434    1.0000 0.00000  0.71750  0.76020  Biso   1.000  C
  C1435    1.0000 0.50000  0.21750  0.76020  Biso   1.000  C
  C1436    1.0000 0.50000  0.71750  0.26020  Biso   1.000  C
  C1437    1.0000 0.00000  0.78250  0.73980  Biso   1.000  C
  C1438    1.0000 0.00000  0.28250  0.23980  Biso   1.000  C
  C1439    1.0000 0.50000  0.78250  0.23980  Biso   1.000  C
  C1440    1.0000 0.50000  0.28250  0.73980  Biso   1.000  C
  C1441    1.0000 0.23915  0.23915  0.03020  Biso   1.000  C
  C1442    1.0000 0.23915  0.73915  0.53020  Biso   1.000  C
  C1443    1.0000 0.73915  0.23915  0.53020  Biso   1.000  C
  C1444    1.0000 0.73915  0.73915  0.03020  Biso   1.000  C
  C1445    1.0000 0.76085  0.76085  0.03020  Biso   1.000  C
  C1446    1.0000 0.76085  0.26085  0.53020  Biso   1.000  C
  C1447    1.0000 0.26085  0.76085  0.53020  Biso   1.000  C
  C1448    1.0000 0.26085  0.26085  0.03020  Biso   1.000  C
  C1449    1.0000 0.76085  0.23915  0.96980  Biso   1.000  C
  C1450    1.0000 0.76085  0.73915  0.46980  Biso   1.000  C
  C1451    1.0000 0.26085  0.23915  0.46980  Biso   1.000  C
  C1452    1.0000 0.26085  0.73915  0.96980  Biso   1.000  C
  C1453    1.0000 0.23915  0.76085  0.96980  Biso   1.000  C
  C1454    1.0000 0.23915  0.26085  0.46980  Biso   1.000  C
  C1455    1.0000 0.73915  0.76085  0.46980  Biso   1.000  C
  C1456    1.0000 0.73915  0.26085  0.96980  Biso   1.000  C
  C1457    1.0000 0.03020  0.23915  0.23915  Biso   1.000  C
  C1458    1.0000 0.03020  0.73915  0.73915  Biso   1.000  C
  C1459    1.0000 0.53020  0.23915  0.73915  Biso   1.000  C
  C1460    1.0000 0.53020  0.73915  0.23915  Biso   1.000  C
  C1461    1.0000 0.03020  0.76085  0.76085  Biso   1.000  C
  C1462    1.0000 0.03020  0.26085  0.26085  Biso   1.000  C
  C1463    1.0000 0.53020  0.76085  0.26085  Biso   1.000  C
  C1464    1.0000 0.53020  0.26085  0.76085  Biso   1.000  C
  C1465    1.0000 0.96980  0.76085  0.23915  Biso   1.000  C
  C1466    1.0000 0.96980  0.26085  0.73915  Biso   1.000  C
  C1467    1.0000 0.46980  0.76085  0.73915  Biso   1.000  C
  C1468    1.0000 0.46980  0.26085  0.23915  Biso   1.000  C
  C1469    1.0000 0.96980  0.23915  0.76085  Biso   1.000  C
  C1470    1.0000 0.96980  0.73915  0.26085  Biso   1.000  C
  C1471    1.0000 0.46980  0.23915  0.26085  Biso   1.000  C
  C1472    1.0000 0.46980  0.73915  0.76085  Biso   1.000  C
  C1473    1.0000 0.23915  0.03020  0.23915  Biso   1.000  C
  C1474    1.0000 0.23915  0.53020  0.73915  Biso   1.000  C
  C1475    1.0000 0.73915  0.03020  0.73915  Biso   1.000  C
  C1476    1.0000 0.73915  0.53020  0.23915  Biso   1.000  C
  C1477    1.0000 0.76085  0.03020  0.76085  Biso   1.000  C
  C1478    1.0000 0.76085  0.53020  0.26085  Biso   1.000  C
  C1479    1.0000 0.26085  0.03020  0.26085  Biso   1.000  C
  C1480    1.0000 0.26085  0.53020  0.76085  Biso   1.000  C
  C1481    1.0000 0.23915  0.96980  0.76085  Biso   1.000  C
  C1482    1.0000 0.23915  0.46980  0.26085  Biso   1.000  C
  C1483    1.0000 0.73915  0.96980  0.26085  Biso   1.000  C
  C1484    1.0000 0.73915  0.46980  0.76085  Biso   1.000  C
  C1485    1.0000 0.76085  0.96980  0.23915  Biso   1.000  C
  C1486    1.0000 0.76085  0.46980  0.73915  Biso   1.000  C
  C1487    1.0000 0.26085  0.96980  0.73915  Biso   1.000  C
  C1488    1.0000 0.26085  0.46980  0.23915  Biso   1.000  C
  C1489    1.0000 0.23915  0.23915  0.96980  Biso   1.000  C
  C1490    1.0000 0.23915  0.73915  0.46980  Biso   1.000  C
  C1491    1.0000 0.73915  0.23915  0.46980  Biso   1.000  C
  C1492    1.0000 0.73915  0.73915  0.96980  Biso   1.000  C
  C1493    1.0000 0.76085  0.76085  0.96980  Biso   1.000  C
  C1494    1.0000 0.76085  0.26085  0.46980  Biso   1.000  C
  C1495    1.0000 0.26085  0.76085  0.46980  Biso   1.000  C
  C1496    1.0000 0.26085  0.26085  0.96980  Biso   1.000  C
  C1497    1.0000 0.23915  0.76085  0.03020  Biso   1.000  C
  C1498    1.0000 0.23915  0.26085  0.53020  Biso   1.000  C
  C1499    1.0000 0.73915  0.76085  0.53020  Biso   1.000  C
  C1500    1.0000 0.73915  0.26085  0.03020  Biso   1.000  C
  C1501    1.0000 0.76085  0.23915  0.03020  Biso   1.000  C
  C1502    1.0000 0.76085  0.73915  0.53020  Biso   1.000  C
  C1503    1.0000 0.26085  0.23915  0.53020  Biso   1.000  C
  C1504    1.0000 0.26085  0.73915  0.03020  Biso   1.000  C
  C1505    1.0000 0.23915  0.03020  0.76085  Biso   1.000  C
  C1506    1.0000 0.23915  0.53020  0.26085  Biso   1.000  C
  C1507    1.0000 0.73915  0.03020  0.26085  Biso   1.000  C
  C1508    1.0000 0.73915  0.53020  0.76085  Biso   1.000  C
  C1509    1.0000 0.76085  0.03020  0.23915  Biso   1.000  C
  C1510    1.0000 0.76085  0.53020  0.73915  Biso   1.000  C
  C1511    1.0000 0.26085  0.03020  0.73915  Biso   1.000  C
  C1512    1.0000 0.26085  0.53020  0.23915  Biso   1.000  C
  C1513    1.0000 0.76085  0.96980  0.76085  Biso   1.000  C
  C1514    1.0000 0.76085  0.46980  0.26085  Biso   1.000  C
  C1515    1.0000 0.26085  0.96980  0.26085  Biso   1.000  C
  C1516    1.0000 0.26085  0.46980  0.76085  Biso   1.000  C
  C1517    1.0000 0.23915  0.96980  0.23915  Biso   1.000  C
  C1518    1.0000 0.23915  0.46980  0.73915  Biso   1.000  C
  C1519    1.0000 0.73915  0.96980  0.73915  Biso   1.000  C
  C1520    1.0000 0.73915  0.46980  0.23915  Biso   1.000  C
  C1521    1.0000 0.03020  0.23915  0.76085  Biso   1.000  C
  C1522    1.0000 0.03020  0.73915  0.26085  Biso   1.000  C
  C1523    1.0000 0.53020  0.23915  0.26085  Biso   1.000  C
  C1524    1.0000 0.53020  0.73915  0.76085  Biso   1.000  C
  C1525    1.0000 0.03020  0.76085  0.23915  Biso   1.000  C
  C1526    1.0000 0.03020  0.26085  0.73915  Biso   1.000  C
  C1527    1.0000 0.53020  0.76085  0.73915  Biso   1.000  C
  C1528    1.0000 0.53020  0.26085  0.23915  Biso   1.000  C
  C1529    1.0000 0.96980  0.23915  0.23915  Biso   1.000  C
  C1530    1.0000 0.96980  0.73915  0.73915  Biso   1.000  C
  C1531    1.0000 0.46980  0.23915  0.73915  Biso   1.000  C
  C1532    1.0000 0.46980  0.73915  0.23915  Biso   1.000  C
  C1533    1.0000 0.96980  0.76085  0.76085  Biso   1.000  C
  C1534    1.0000 0.96980  0.26085  0.26085  Biso   1.000  C
  C1535    1.0000 0.46980  0.76085  0.26085  Biso   1.000  C
  C1536    1.0000 0.46980  0.26085  0.76085  Biso   1.000  C
