data_image0
_cell_length_a       39.931
_cell_length_b       39.931
_cell_length_c       39.931
_cell_angle_alpha    90
_cell_angle_beta     90
_cell_angle_gamma    90

_symmetry_space_group_name_H-M    "P 1"
_symmetry_int_tables_number       1

loop_
  _symmetry_equiv_pos_as_xyz
  'x, y, z'

loop_
  _atom_site_label
  _atom_site_occupancy
  _atom_site_fract_x
  _atom_site_fract_y
  _atom_site_fract_z
  _atom_site_thermal_displace_type
  _atom_site_B_iso_or_equiv
  _atom_site_type_symbol
  O1       1.0000 0.87889  0.17075  0.46453  Biso   1.000  O
  O2       1.0000 0.83934  0.20972  0.46478  Biso   1.000  O
  C1       1.0000 0.86558  0.19718  0.45357  Biso   1.000  C
  C2       1.0000 0.88285  0.21431  0.42544  Biso   1.000  C
  C3       1.0000 0.86770  0.24140  0.40840  Biso   1.000  C
  H1       1.0000 0.84780  0.25070  0.41760  Biso   1.000  H
  C4       1.0000 0.77580  0.24800  0.47008  Biso   1.000  C
  H2       1.0000 0.77340  0.23370  0.44990  Biso   1.000  H
  H3       1.0000 0.79820  0.25850  0.46960  Biso   1.000  H
  H4       1.0000 0.80140  0.26500  0.48000  Biso   1.000  H
  C5       1.0000 0.75030  0.12370  0.58060  Biso   1.000  C
  H5       1.0000 0.73810  0.13910  0.56740  Biso   1.000  H
  O3       1.0000 0.87889  0.67075  0.96453  Biso   1.000  O
  O4       1.0000 0.83934  0.70972  0.96478  Biso   1.000  O
  C6       1.0000 0.86558  0.69718  0.95357  Biso   1.000  C
  C7       1.0000 0.88285  0.71431  0.92544  Biso   1.000  C
  C8       1.0000 0.86770  0.74140  0.90840  Biso   1.000  C
  H6       1.0000 0.84780  0.75070  0.91760  Biso   1.000  H
  C9       1.0000 0.77580  0.74800  0.97008  Biso   1.000  C
  H7       1.0000 0.77340  0.73370  0.94990  Biso   1.000  H
  H8       1.0000 0.79820  0.75850  0.96960  Biso   1.000  H
  H9       1.0000 0.80140  0.76500  0.98000  Biso   1.000  H
  C10      1.0000 0.75030  0.62370  0.08060  Biso   1.000  C
  H10      1.0000 0.73810  0.63910  0.06740  Biso   1.000  H
  O5       1.0000 0.37889  0.17075  0.96453  Biso   1.000  O
  O6       1.0000 0.33934  0.20972  0.96478  Biso   1.000  O
  C11      1.0000 0.36558  0.19718  0.95357  Biso   1.000  C
  C12      1.0000 0.38285  0.21431  0.92544  Biso   1.000  C
  C13      1.0000 0.36770  0.24140  0.90840  Biso   1.000  C
  H11      1.0000 0.34780  0.25070  0.91760  Biso   1.000  H
  C14      1.0000 0.27580  0.24800  0.97008  Biso   1.000  C
  H12      1.0000 0.27340  0.23370  0.94990  Biso   1.000  H
  H13      1.0000 0.29820  0.25850  0.96960  Biso   1.000  H
  H14      1.0000 0.30140  0.26500  0.98000  Biso   1.000  H
  C15      1.0000 0.25030  0.12370  0.08060  Biso   1.000  C
  H15      1.0000 0.23810  0.13910  0.06740  Biso   1.000  H
  O7       1.0000 0.37889  0.67075  0.46453  Biso   1.000  O
  O8       1.0000 0.33934  0.70972  0.46478  Biso   1.000  O
  C16      1.0000 0.36558  0.69718  0.45357  Biso   1.000  C
  C17      1.0000 0.38285  0.71431  0.42544  Biso   1.000  C
  C18      1.0000 0.36770  0.74140  0.40840  Biso   1.000  C
  H16      1.0000 0.34780  0.75070  0.41760  Biso   1.000  H
  C19      1.0000 0.27580  0.74800  0.47008  Biso   1.000  C
  H17      1.0000 0.27340  0.73370  0.44990  Biso   1.000  H
  H18      1.0000 0.29820  0.75850  0.46960  Biso   1.000  H
  H19      1.0000 0.30140  0.76500  0.48000  Biso   1.000  H
  C20      1.0000 0.25030  0.62370  0.58060  Biso   1.000  C
  H20      1.0000 0.23810  0.63910  0.56740  Biso   1.000  H
  O9       1.0000 0.12111  0.82925  0.46453  Biso   1.000  O
  O10      1.0000 0.16066  0.79028  0.46478  Biso   1.000  O
  C21      1.0000 0.13442  0.80282  0.45357  Biso   1.000  C
  C22      1.0000 0.11715  0.78569  0.42544  Biso   1.000  C
  C23      1.0000 0.13230  0.75860  0.40840  Biso   1.000  C
  H21      1.0000 0.15220  0.74930  0.41760  Biso   1.000  H
  C24      1.0000 0.22420  0.75200  0.47008  Biso   1.000  C
  H22      1.0000 0.22660  0.76630  0.44990  Biso   1.000  H
  H23      1.0000 0.20180  0.74150  0.46960  Biso   1.000  H
  H24      1.0000 0.19860  0.73500  0.48000  Biso   1.000  H
  C25      1.0000 0.24970  0.87630  0.58060  Biso   1.000  C
  H25      1.0000 0.26190  0.86090  0.56740  Biso   1.000  H
  O11      1.0000 0.12111  0.32925  0.96453  Biso   1.000  O
  O12      1.0000 0.16066  0.29028  0.96478  Biso   1.000  O
  C26      1.0000 0.13442  0.30282  0.95357  Biso   1.000  C
  C27      1.0000 0.11715  0.28569  0.92544  Biso   1.000  C
  C28      1.0000 0.13230  0.25860  0.90840  Biso   1.000  C
  H26      1.0000 0.15220  0.24930  0.91760  Biso   1.000  H
  C29      1.0000 0.22420  0.25200  0.97008  Biso   1.000  C
  H27      1.0000 0.22660  0.26630  0.94990  Biso   1.000  H
  H28      1.0000 0.20180  0.24150  0.96960  Biso   1.000  H
  H29      1.0000 0.19860  0.23500  0.98000  Biso   1.000  H
  C30      1.0000 0.24970  0.37630  0.08060  Biso   1.000  C
  H30      1.0000 0.26190  0.36090  0.06740  Biso   1.000  H
  O13      1.0000 0.62111  0.82925  0.96453  Biso   1.000  O
  O14      1.0000 0.66066  0.79028  0.96478  Biso   1.000  O
  C31      1.0000 0.63442  0.80282  0.95357  Biso   1.000  C
  C32      1.0000 0.61715  0.78569  0.92544  Biso   1.000  C
  C33      1.0000 0.63230  0.75860  0.90840  Biso   1.000  C
  H31      1.0000 0.65220  0.74930  0.91760  Biso   1.000  H
  C34      1.0000 0.72420  0.75200  0.97008  Biso   1.000  C
  H32      1.0000 0.72660  0.76630  0.94990  Biso   1.000  H
  H33      1.0000 0.70180  0.74150  0.96960  Biso   1.000  H
  H34      1.0000 0.69860  0.73500  0.98000  Biso   1.000  H
  C35      1.0000 0.74970  0.87630  0.08060  Biso   1.000  C
  H35      1.0000 0.76190  0.86090  0.06740  Biso   1.000  H
  O15      1.0000 0.62111  0.32925  0.46453  Biso   1.000  O
  O16      1.0000 0.66066  0.29028  0.46478  Biso   1.000  O
  C36      1.0000 0.63442  0.30282  0.45357  Biso   1.000  C
  C37      1.0000 0.61715  0.28569  0.42544  Biso   1.000  C
  C38      1.0000 0.63230  0.25860  0.40840  Biso   1.000  C
  H36      1.0000 0.65220  0.24930  0.41760  Biso   1.000  H
  C39      1.0000 0.72420  0.25200  0.47008  Biso   1.000  C
  H37      1.0000 0.72660  0.26630  0.44990  Biso   1.000  H
  H38      1.0000 0.70180  0.24150  0.46960  Biso   1.000  H
  H39      1.0000 0.69860  0.23500  0.48000  Biso   1.000  H
  C40      1.0000 0.74970  0.37630  0.58060  Biso   1.000  C
  H40      1.0000 0.76190  0.36090  0.56740  Biso   1.000  H
  O17      1.0000 0.12111  0.17075  0.53547  Biso   1.000  O
  O18      1.0000 0.16066  0.20972  0.53522  Biso   1.000  O
  C41      1.0000 0.13442  0.19718  0.54643  Biso   1.000  C
  C42      1.0000 0.11715  0.21431  0.57456  Biso   1.000  C
  C43      1.0000 0.13230  0.24140  0.59160  Biso   1.000  C
  H41      1.0000 0.15220  0.25070  0.58240  Biso   1.000  H
  C44      1.0000 0.22420  0.24800  0.52992  Biso   1.000  C
  H42      1.0000 0.22660  0.23370  0.55010  Biso   1.000  H
  H43      1.0000 0.20180  0.25850  0.53040  Biso   1.000  H
  H44      1.0000 0.19860  0.26500  0.52000  Biso   1.000  H
  C45      1.0000 0.24970  0.12370  0.41940  Biso   1.000  C
  H45      1.0000 0.26190  0.13910  0.43260  Biso   1.000  H
  O19      1.0000 0.12111  0.67075  0.03547  Biso   1.000  O
  O20      1.0000 0.16066  0.70972  0.03522  Biso   1.000  O
  C46      1.0000 0.13442  0.69718  0.04643  Biso   1.000  C
  C47      1.0000 0.11715  0.71431  0.07456  Biso   1.000  C
  C48      1.0000 0.13230  0.74140  0.09160  Biso   1.000  C
  H46      1.0000 0.15220  0.75070  0.08240  Biso   1.000  H
  C49      1.0000 0.22420  0.74800  0.02992  Biso   1.000  C
  H47      1.0000 0.22660  0.73370  0.05010  Biso   1.000  H
  H48      1.0000 0.20180  0.75850  0.03040  Biso   1.000  H
  H49      1.0000 0.19860  0.76500  0.02000  Biso   1.000  H
  C50      1.0000 0.24970  0.62370  0.91940  Biso   1.000  C
  H50      1.0000 0.26190  0.63910  0.93260  Biso   1.000  H
  O21      1.0000 0.62111  0.17075  0.03547  Biso   1.000  O
  O22      1.0000 0.66066  0.20972  0.03522  Biso   1.000  O
  C51      1.0000 0.63442  0.19718  0.04643  Biso   1.000  C
  C52      1.0000 0.61715  0.21431  0.07456  Biso   1.000  C
  C53      1.0000 0.63230  0.24140  0.09160  Biso   1.000  C
  H51      1.0000 0.65220  0.25070  0.08240  Biso   1.000  H
  C54      1.0000 0.72420  0.24800  0.02992  Biso   1.000  C
  H52      1.0000 0.72660  0.23370  0.05010  Biso   1.000  H
  H53      1.0000 0.70180  0.25850  0.03040  Biso   1.000  H
  H54      1.0000 0.69860  0.26500  0.02000  Biso   1.000  H
  C55      1.0000 0.74970  0.12370  0.91940  Biso   1.000  C
  H55      1.0000 0.76190  0.13910  0.93260  Biso   1.000  H
  O23      1.0000 0.62111  0.67075  0.53547  Biso   1.000  O
  O24      1.0000 0.66066  0.70972  0.53522  Biso   1.000  O
  C56      1.0000 0.63442  0.69718  0.54643  Biso   1.000  C
  C57      1.0000 0.61715  0.71431  0.57456  Biso   1.000  C
  C58      1.0000 0.63230  0.74140  0.59160  Biso   1.000  C
  H56      1.0000 0.65220  0.75070  0.58240  Biso   1.000  H
  C59      1.0000 0.72420  0.74800  0.52992  Biso   1.000  C
  H57      1.0000 0.72660  0.73370  0.55010  Biso   1.000  H
  H58      1.0000 0.70180  0.75850  0.53040  Biso   1.000  H
  H59      1.0000 0.69860  0.76500  0.52000  Biso   1.000  H
  C60      1.0000 0.74970  0.62370  0.41940  Biso   1.000  C
  H60      1.0000 0.76190  0.63910  0.43260  Biso   1.000  H
  O25      1.0000 0.87889  0.82925  0.53547  Biso   1.000  O
  O26      1.0000 0.83934  0.79028  0.53522  Biso   1.000  O
  C61      1.0000 0.86558  0.80282  0.54643  Biso   1.000  C
  C62      1.0000 0.88285  0.78569  0.57456  Biso   1.000  C
  C63      1.0000 0.86770  0.75860  0.59160  Biso   1.000  C
  H61      1.0000 0.84780  0.74930  0.58240  Biso   1.000  H
  C64      1.0000 0.77580  0.75200  0.52992  Biso   1.000  C
  H62      1.0000 0.77340  0.76630  0.55010  Biso   1.000  H
  H63      1.0000 0.79820  0.74150  0.53040  Biso   1.000  H
  H64      1.0000 0.80140  0.73500  0.52000  Biso   1.000  H
  C65      1.0000 0.75030  0.87630  0.41940  Biso   1.000  C
  H65      1.0000 0.73810  0.86090  0.43260  Biso   1.000  H
  O27      1.0000 0.87889  0.32925  0.03547  Biso   1.000  O
  O28      1.0000 0.83934  0.29028  0.03522  Biso   1.000  O
  C66      1.0000 0.86558  0.30282  0.04643  Biso   1.000  C
  C67      1.0000 0.88285  0.28569  0.07456  Biso   1.000  C
  C68      1.0000 0.86770  0.25860  0.09160  Biso   1.000  C
  H66      1.0000 0.84780  0.24930  0.08240  Biso   1.000  H
  C69      1.0000 0.77580  0.25200  0.02992  Biso   1.000  C
  H67      1.0000 0.77340  0.26630  0.05010  Biso   1.000  H
  H68      1.0000 0.79820  0.24150  0.03040  Biso   1.000  H
  H69      1.0000 0.80140  0.23500  0.02000  Biso   1.000  H
  C70      1.0000 0.75030  0.37630  0.91940  Biso   1.000  C
  H70      1.0000 0.73810  0.36090  0.93260  Biso   1.000  H
  O29      1.0000 0.37889  0.82925  0.03547  Biso   1.000  O
  O30      1.0000 0.33934  0.79028  0.03522  Biso   1.000  O
  C71      1.0000 0.36558  0.80282  0.04643  Biso   1.000  C
  C72      1.0000 0.38285  0.78569  0.07456  Biso   1.000  C
  C73      1.0000 0.36770  0.75860  0.09160  Biso   1.000  C
  H71      1.0000 0.34780  0.74930  0.08240  Biso   1.000  H
  C74      1.0000 0.27580  0.75200  0.02992  Biso   1.000  C
  H72      1.0000 0.27340  0.76630  0.05010  Biso   1.000  H
  H73      1.0000 0.29820  0.74150  0.03040  Biso   1.000  H
  H74      1.0000 0.30140  0.73500  0.02000  Biso   1.000  H
  C75      1.0000 0.25030  0.87630  0.91940  Biso   1.000  C
  H75      1.0000 0.23810  0.86090  0.93260  Biso   1.000  H
  O31      1.0000 0.37889  0.32925  0.53547  Biso   1.000  O
  O32      1.0000 0.33934  0.29028  0.53522  Biso   1.000  O
  C76      1.0000 0.36558  0.30282  0.54643  Biso   1.000  C
  C77      1.0000 0.38285  0.28569  0.57456  Biso   1.000  C
  C78      1.0000 0.36770  0.25860  0.59160  Biso   1.000  C
  H76      1.0000 0.34780  0.24930  0.58240  Biso   1.000  H
  C79      1.0000 0.27580  0.25200  0.52992  Biso   1.000  C
  H77      1.0000 0.27340  0.26630  0.55010  Biso   1.000  H
  H78      1.0000 0.29820  0.24150  0.53040  Biso   1.000  H
  H79      1.0000 0.30140  0.23500  0.52000  Biso   1.000  H
  C80      1.0000 0.25030  0.37630  0.41940  Biso   1.000  C
  H80      1.0000 0.23810  0.36090  0.43260  Biso   1.000  H
  O33      1.0000 0.46453  0.87889  0.17075  Biso   1.000  O
  O34      1.0000 0.46478  0.83934  0.20972  Biso   1.000  O
  C81      1.0000 0.45357  0.86558  0.19718  Biso   1.000  C
  C82      1.0000 0.42544  0.88285  0.21431  Biso   1.000  C
  C83      1.0000 0.40840  0.86770  0.24140  Biso   1.000  C
  H81      1.0000 0.41760  0.84780  0.25070  Biso   1.000  H
  C84      1.0000 0.47008  0.77580  0.24800  Biso   1.000  C
  H82      1.0000 0.44990  0.77340  0.23370  Biso   1.000  H
  H83      1.0000 0.46960  0.79820  0.25850  Biso   1.000  H
  H84      1.0000 0.48000  0.80140  0.26500  Biso   1.000  H
  C85      1.0000 0.58060  0.75030  0.12370  Biso   1.000  C
  H85      1.0000 0.56740  0.73810  0.13910  Biso   1.000  H
  O35      1.0000 0.46453  0.37889  0.67075  Biso   1.000  O
  O36      1.0000 0.46478  0.33934  0.70972  Biso   1.000  O
  C86      1.0000 0.45357  0.36558  0.69718  Biso   1.000  C
  C87      1.0000 0.42544  0.38285  0.71431  Biso   1.000  C
  C88      1.0000 0.40840  0.36770  0.74140  Biso   1.000  C
  H86      1.0000 0.41760  0.34780  0.75070  Biso   1.000  H
  C89      1.0000 0.47008  0.27580  0.74800  Biso   1.000  C
  H87      1.0000 0.44990  0.27340  0.73370  Biso   1.000  H
  H88      1.0000 0.46960  0.29820  0.75850  Biso   1.000  H
  H89      1.0000 0.48000  0.30140  0.76500  Biso   1.000  H
  C90      1.0000 0.58060  0.25030  0.62370  Biso   1.000  C
  H90      1.0000 0.56740  0.23810  0.63910  Biso   1.000  H
  O37      1.0000 0.96453  0.87889  0.67075  Biso   1.000  O
  O38      1.0000 0.96478  0.83934  0.70972  Biso   1.000  O
  C91      1.0000 0.95357  0.86558  0.69718  Biso   1.000  C
  C92      1.0000 0.92544  0.88285  0.71431  Biso   1.000  C
  C93      1.0000 0.90840  0.86770  0.74140  Biso   1.000  C
  H91      1.0000 0.91760  0.84780  0.75070  Biso   1.000  H
  C94      1.0000 0.97008  0.77580  0.74800  Biso   1.000  C
  H92      1.0000 0.94990  0.77340  0.73370  Biso   1.000  H
  H93      1.0000 0.96960  0.79820  0.75850  Biso   1.000  H
  H94      1.0000 0.98000  0.80140  0.76500  Biso   1.000  H
  C95      1.0000 0.08060  0.75030  0.62370  Biso   1.000  C
  H95      1.0000 0.06740  0.73810  0.63910  Biso   1.000  H
  O39      1.0000 0.96453  0.37889  0.17075  Biso   1.000  O
  O40      1.0000 0.96478  0.33934  0.20972  Biso   1.000  O
  C96      1.0000 0.95357  0.36558  0.19718  Biso   1.000  C
  C97      1.0000 0.92544  0.38285  0.21431  Biso   1.000  C
  C98      1.0000 0.90840  0.36770  0.24140  Biso   1.000  C
  H96      1.0000 0.91760  0.34780  0.25070  Biso   1.000  H
  C99      1.0000 0.97008  0.27580  0.24800  Biso   1.000  C
  H97      1.0000 0.94990  0.27340  0.23370  Biso   1.000  H
  H98      1.0000 0.96960  0.29820  0.25850  Biso   1.000  H
  H99      1.0000 0.98000  0.30140  0.26500  Biso   1.000  H
  C100     1.0000 0.08060  0.25030  0.12370  Biso   1.000  C
  H100     1.0000 0.06740  0.23810  0.13910  Biso   1.000  H
  O41      1.0000 0.46453  0.12111  0.82925  Biso   1.000  O
  O42      1.0000 0.46478  0.16066  0.79028  Biso   1.000  O
  C101     1.0000 0.45357  0.13442  0.80282  Biso   1.000  C
  C102     1.0000 0.42544  0.11715  0.78569  Biso   1.000  C
  C103     1.0000 0.40840  0.13230  0.75860  Biso   1.000  C
  H101     1.0000 0.41760  0.15220  0.74930  Biso   1.000  H
  C104     1.0000 0.47008  0.22420  0.75200  Biso   1.000  C
  H102     1.0000 0.44990  0.22660  0.76630  Biso   1.000  H
  H103     1.0000 0.46960  0.20180  0.74150  Biso   1.000  H
  H104     1.0000 0.48000  0.19860  0.73500  Biso   1.000  H
  C105     1.0000 0.58060  0.24970  0.87630  Biso   1.000  C
  H105     1.0000 0.56740  0.26190  0.86090  Biso   1.000  H
  O43      1.0000 0.46453  0.62111  0.32925  Biso   1.000  O
  O44      1.0000 0.46478  0.66066  0.29028  Biso   1.000  O
  C106     1.0000 0.45357  0.63442  0.30282  Biso   1.000  C
  C107     1.0000 0.42544  0.61715  0.28569  Biso   1.000  C
  C108     1.0000 0.40840  0.63230  0.25860  Biso   1.000  C
  H106     1.0000 0.41760  0.65220  0.24930  Biso   1.000  H
  C109     1.0000 0.47008  0.72420  0.25200  Biso   1.000  C
  H107     1.0000 0.44990  0.72660  0.26630  Biso   1.000  H
  H108     1.0000 0.46960  0.70180  0.24150  Biso   1.000  H
  H109     1.0000 0.48000  0.69860  0.23500  Biso   1.000  H
  C110     1.0000 0.58060  0.74970  0.37630  Biso   1.000  C
  H110     1.0000 0.56740  0.76190  0.36090  Biso   1.000  H
  O45      1.0000 0.96453  0.12111  0.32925  Biso   1.000  O
  O46      1.0000 0.96478  0.16066  0.29028  Biso   1.000  O
  C111     1.0000 0.95357  0.13442  0.30282  Biso   1.000  C
  C112     1.0000 0.92544  0.11715  0.28569  Biso   1.000  C
  C113     1.0000 0.90840  0.13230  0.25860  Biso   1.000  C
  H111     1.0000 0.91760  0.15220  0.24930  Biso   1.000  H
  C114     1.0000 0.97008  0.22420  0.25200  Biso   1.000  C
  H112     1.0000 0.94990  0.22660  0.26630  Biso   1.000  H
  H113     1.0000 0.96960  0.20180  0.24150  Biso   1.000  H
  H114     1.0000 0.98000  0.19860  0.23500  Biso   1.000  H
  C115     1.0000 0.08060  0.24970  0.37630  Biso   1.000  C
  H115     1.0000 0.06740  0.26190  0.36090  Biso   1.000  H
  O47      1.0000 0.96453  0.62111  0.82925  Biso   1.000  O
  O48      1.0000 0.96478  0.66066  0.79028  Biso   1.000  O
  C116     1.0000 0.95357  0.63442  0.80282  Biso   1.000  C
  C117     1.0000 0.92544  0.61715  0.78569  Biso   1.000  C
  C118     1.0000 0.90840  0.63230  0.75860  Biso   1.000  C
  H116     1.0000 0.91760  0.65220  0.74930  Biso   1.000  H
  C119     1.0000 0.97008  0.72420  0.75200  Biso   1.000  C
  H117     1.0000 0.94990  0.72660  0.76630  Biso   1.000  H
  H118     1.0000 0.96960  0.70180  0.74150  Biso   1.000  H
  H119     1.0000 0.98000  0.69860  0.73500  Biso   1.000  H
  C120     1.0000 0.08060  0.74970  0.87630  Biso   1.000  C
  H120     1.0000 0.06740  0.76190  0.86090  Biso   1.000  H
  O49      1.0000 0.53547  0.12111  0.17075  Biso   1.000  O
  O50      1.0000 0.53522  0.16066  0.20972  Biso   1.000  O
  C121     1.0000 0.54643  0.13442  0.19718  Biso   1.000  C
  C122     1.0000 0.57456  0.11715  0.21431  Biso   1.000  C
  C123     1.0000 0.59160  0.13230  0.24140  Biso   1.000  C
  H121     1.0000 0.58240  0.15220  0.25070  Biso   1.000  H
  C124     1.0000 0.52992  0.22420  0.24800  Biso   1.000  C
  H122     1.0000 0.55010  0.22660  0.23370  Biso   1.000  H
  H123     1.0000 0.53040  0.20180  0.25850  Biso   1.000  H
  H124     1.0000 0.52000  0.19860  0.26500  Biso   1.000  H
  C125     1.0000 0.41940  0.24970  0.12370  Biso   1.000  C
  H125     1.0000 0.43260  0.26190  0.13910  Biso   1.000  H
  O51      1.0000 0.53547  0.62111  0.67075  Biso   1.000  O
  O52      1.0000 0.53522  0.66066  0.70972  Biso   1.000  O
  C126     1.0000 0.54643  0.63442  0.69718  Biso   1.000  C
  C127     1.0000 0.57456  0.61715  0.71431  Biso   1.000  C
  C128     1.0000 0.59160  0.63230  0.74140  Biso   1.000  C
  H126     1.0000 0.58240  0.65220  0.75070  Biso   1.000  H
  C129     1.0000 0.52992  0.72420  0.74800  Biso   1.000  C
  H127     1.0000 0.55010  0.72660  0.73370  Biso   1.000  H
  H128     1.0000 0.53040  0.70180  0.75850  Biso   1.000  H
  H129     1.0000 0.52000  0.69860  0.76500  Biso   1.000  H
  C130     1.0000 0.41940  0.74970  0.62370  Biso   1.000  C
  H130     1.0000 0.43260  0.76190  0.63910  Biso   1.000  H
  O53      1.0000 0.03547  0.12111  0.67075  Biso   1.000  O
  O54      1.0000 0.03522  0.16066  0.70972  Biso   1.000  O
  C131     1.0000 0.04643  0.13442  0.69718  Biso   1.000  C
  C132     1.0000 0.07456  0.11715  0.71431  Biso   1.000  C
  C133     1.0000 0.09160  0.13230  0.74140  Biso   1.000  C
  H131     1.0000 0.08240  0.15220  0.75070  Biso   1.000  H
  C134     1.0000 0.02992  0.22420  0.74800  Biso   1.000  C
  H132     1.0000 0.05010  0.22660  0.73370  Biso   1.000  H
  H133     1.0000 0.03040  0.20180  0.75850  Biso   1.000  H
  H134     1.0000 0.02000  0.19860  0.76500  Biso   1.000  H
  C135     1.0000 0.91940  0.24970  0.62370  Biso   1.000  C
  H135     1.0000 0.93260  0.26190  0.63910  Biso   1.000  H
  O55      1.0000 0.03547  0.62111  0.17075  Biso   1.000  O
  O56      1.0000 0.03522  0.66066  0.20972  Biso   1.000  O
  C136     1.0000 0.04643  0.63442  0.19718  Biso   1.000  C
  C137     1.0000 0.07456  0.61715  0.21431  Biso   1.000  C
  C138     1.0000 0.09160  0.63230  0.24140  Biso   1.000  C
  H136     1.0000 0.08240  0.65220  0.25070  Biso   1.000  H
  C139     1.0000 0.02992  0.72420  0.24800  Biso   1.000  C
  H137     1.0000 0.05010  0.72660  0.23370  Biso   1.000  H
  H138     1.0000 0.03040  0.70180  0.25850  Biso   1.000  H
  H139     1.0000 0.02000  0.69860  0.26500  Biso   1.000  H
  C140     1.0000 0.91940  0.74970  0.12370  Biso   1.000  C
  H140     1.0000 0.93260  0.76190  0.13910  Biso   1.000  H
  O57      1.0000 0.53547  0.87889  0.82925  Biso   1.000  O
  O58      1.0000 0.53522  0.83934  0.79028  Biso   1.000  O
  C141     1.0000 0.54643  0.86558  0.80282  Biso   1.000  C
  C142     1.0000 0.57456  0.88285  0.78569  Biso   1.000  C
  C143     1.0000 0.59160  0.86770  0.75860  Biso   1.000  C
  H141     1.0000 0.58240  0.84780  0.74930  Biso   1.000  H
  C144     1.0000 0.52992  0.77580  0.75200  Biso   1.000  C
  H142     1.0000 0.55010  0.77340  0.76630  Biso   1.000  H
  H143     1.0000 0.53040  0.79820  0.74150  Biso   1.000  H
  H144     1.0000 0.52000  0.80140  0.73500  Biso   1.000  H
  C145     1.0000 0.41940  0.75030  0.87630  Biso   1.000  C
  H145     1.0000 0.43260  0.73810  0.86090  Biso   1.000  H
  O59      1.0000 0.53547  0.37889  0.32925  Biso   1.000  O
  O60      1.0000 0.53522  0.33934  0.29028  Biso   1.000  O
  C146     1.0000 0.54643  0.36558  0.30282  Biso   1.000  C
  C147     1.0000 0.57456  0.38285  0.28569  Biso   1.000  C
  C148     1.0000 0.59160  0.36770  0.25860  Biso   1.000  C
  H146     1.0000 0.58240  0.34780  0.24930  Biso   1.000  H
  C149     1.0000 0.52992  0.27580  0.25200  Biso   1.000  C
  H147     1.0000 0.55010  0.27340  0.26630  Biso   1.000  H
  H148     1.0000 0.53040  0.29820  0.24150  Biso   1.000  H
  H149     1.0000 0.52000  0.30140  0.23500  Biso   1.000  H
  C150     1.0000 0.41940  0.25030  0.37630  Biso   1.000  C
  H150     1.0000 0.43260  0.23810  0.36090  Biso   1.000  H
  O61      1.0000 0.03547  0.87889  0.32925  Biso   1.000  O
  O62      1.0000 0.03522  0.83934  0.29028  Biso   1.000  O
  C151     1.0000 0.04643  0.86558  0.30282  Biso   1.000  C
  C152     1.0000 0.07456  0.88285  0.28569  Biso   1.000  C
  C153     1.0000 0.09160  0.86770  0.25860  Biso   1.000  C
  H151     1.0000 0.08240  0.84780  0.24930  Biso   1.000  H
  C154     1.0000 0.02992  0.77580  0.25200  Biso   1.000  C
  H152     1.0000 0.05010  0.77340  0.26630  Biso   1.000  H
  H153     1.0000 0.03040  0.79820  0.24150  Biso   1.000  H
  H154     1.0000 0.02000  0.80140  0.23500  Biso   1.000  H
  C155     1.0000 0.91940  0.75030  0.37630  Biso   1.000  C
  H155     1.0000 0.93260  0.73810  0.36090  Biso   1.000  H
  O63      1.0000 0.03547  0.37889  0.82925  Biso   1.000  O
  O64      1.0000 0.03522  0.33934  0.79028  Biso   1.000  O
  C156     1.0000 0.04643  0.36558  0.80282  Biso   1.000  C
  C157     1.0000 0.07456  0.38285  0.78569  Biso   1.000  C
  C158     1.0000 0.09160  0.36770  0.75860  Biso   1.000  C
  H156     1.0000 0.08240  0.34780  0.74930  Biso   1.000  H
  C159     1.0000 0.02992  0.27580  0.75200  Biso   1.000  C
  H157     1.0000 0.05010  0.27340  0.76630  Biso   1.000  H
  H158     1.0000 0.03040  0.29820  0.74150  Biso   1.000  H
  H159     1.0000 0.02000  0.30140  0.73500  Biso   1.000  H
  C160     1.0000 0.91940  0.25030  0.87630  Biso   1.000  C
  H160     1.0000 0.93260  0.23810  0.86090  Biso   1.000  H
  O65      1.0000 0.17075  0.46453  0.87889  Biso   1.000  O
  O66      1.0000 0.20972  0.46478  0.83934  Biso   1.000  O
  C161     1.0000 0.19718  0.45357  0.86558  Biso   1.000  C
  C162     1.0000 0.21431  0.42544  0.88285  Biso   1.000  C
  C163     1.0000 0.24140  0.40840  0.86770  Biso   1.000  C
  H161     1.0000 0.25070  0.41760  0.84780  Biso   1.000  H
  C164     1.0000 0.24800  0.47008  0.77580  Biso   1.000  C
  H162     1.0000 0.23370  0.44990  0.77340  Biso   1.000  H
  H163     1.0000 0.25850  0.46960  0.79820  Biso   1.000  H
  H164     1.0000 0.26500  0.48000  0.80140  Biso   1.000  H
  C165     1.0000 0.12370  0.58060  0.75030  Biso   1.000  C
  H165     1.0000 0.13910  0.56740  0.73810  Biso   1.000  H
  O67      1.0000 0.17075  0.96453  0.37889  Biso   1.000  O
  O68      1.0000 0.20972  0.96478  0.33934  Biso   1.000  O
  C166     1.0000 0.19718  0.95357  0.36558  Biso   1.000  C
  C167     1.0000 0.21431  0.92544  0.38285  Biso   1.000  C
  C168     1.0000 0.24140  0.90840  0.36770  Biso   1.000  C
  H166     1.0000 0.25070  0.91760  0.34780  Biso   1.000  H
  C169     1.0000 0.24800  0.97008  0.27580  Biso   1.000  C
  H167     1.0000 0.23370  0.94990  0.27340  Biso   1.000  H
  H168     1.0000 0.25850  0.96960  0.29820  Biso   1.000  H
  H169     1.0000 0.26500  0.98000  0.30140  Biso   1.000  H
  C170     1.0000 0.12370  0.08060  0.25030  Biso   1.000  C
  H170     1.0000 0.13910  0.06740  0.23810  Biso   1.000  H
  O69      1.0000 0.67075  0.46453  0.37889  Biso   1.000  O
  O70      1.0000 0.70972  0.46478  0.33934  Biso   1.000  O
  C171     1.0000 0.69718  0.45357  0.36558  Biso   1.000  C
  C172     1.0000 0.71431  0.42544  0.38285  Biso   1.000  C
  C173     1.0000 0.74140  0.40840  0.36770  Biso   1.000  C
  H171     1.0000 0.75070  0.41760  0.34780  Biso   1.000  H
  C174     1.0000 0.74800  0.47008  0.27580  Biso   1.000  C
  H172     1.0000 0.73370  0.44990  0.27340  Biso   1.000  H
  H173     1.0000 0.75850  0.46960  0.29820  Biso   1.000  H
  H174     1.0000 0.76500  0.48000  0.30140  Biso   1.000  H
  C175     1.0000 0.62370  0.58060  0.25030  Biso   1.000  C
  H175     1.0000 0.63910  0.56740  0.23810  Biso   1.000  H
  O71      1.0000 0.67075  0.96453  0.87889  Biso   1.000  O
  O72      1.0000 0.70972  0.96478  0.83934  Biso   1.000  O
  C176     1.0000 0.69718  0.95357  0.86558  Biso   1.000  C
  C177     1.0000 0.71431  0.92544  0.88285  Biso   1.000  C
  C178     1.0000 0.74140  0.90840  0.86770  Biso   1.000  C
  H176     1.0000 0.75070  0.91760  0.84780  Biso   1.000  H
  C179     1.0000 0.74800  0.97008  0.77580  Biso   1.000  C
  H177     1.0000 0.73370  0.94990  0.77340  Biso   1.000  H
  H178     1.0000 0.75850  0.96960  0.79820  Biso   1.000  H
  H179     1.0000 0.76500  0.98000  0.80140  Biso   1.000  H
  C180     1.0000 0.62370  0.08060  0.75030  Biso   1.000  C
  H180     1.0000 0.63910  0.06740  0.73810  Biso   1.000  H
  O73      1.0000 0.82925  0.46453  0.12111  Biso   1.000  O
  O74      1.0000 0.79028  0.46478  0.16066  Biso   1.000  O
  C181     1.0000 0.80282  0.45357  0.13442  Biso   1.000  C
  C182     1.0000 0.78569  0.42544  0.11715  Biso   1.000  C
  C183     1.0000 0.75860  0.40840  0.13230  Biso   1.000  C
  H181     1.0000 0.74930  0.41760  0.15220  Biso   1.000  H
  C184     1.0000 0.75200  0.47008  0.22420  Biso   1.000  C
  H182     1.0000 0.76630  0.44990  0.22660  Biso   1.000  H
  H183     1.0000 0.74150  0.46960  0.20180  Biso   1.000  H
  H184     1.0000 0.73500  0.48000  0.19860  Biso   1.000  H
  C185     1.0000 0.87630  0.58060  0.24970  Biso   1.000  C
  H185     1.0000 0.86090  0.56740  0.26190  Biso   1.000  H
  O75      1.0000 0.82925  0.96453  0.62111  Biso   1.000  O
  O76      1.0000 0.79028  0.96478  0.66066  Biso   1.000  O
  C186     1.0000 0.80282  0.95357  0.63442  Biso   1.000  C
  C187     1.0000 0.78569  0.92544  0.61715  Biso   1.000  C
  C188     1.0000 0.75860  0.90840  0.63230  Biso   1.000  C
  H186     1.0000 0.74930  0.91760  0.65220  Biso   1.000  H
  C189     1.0000 0.75200  0.97008  0.72420  Biso   1.000  C
  H187     1.0000 0.76630  0.94990  0.72660  Biso   1.000  H
  H188     1.0000 0.74150  0.96960  0.70180  Biso   1.000  H
  H189     1.0000 0.73500  0.98000  0.69860  Biso   1.000  H
  C190     1.0000 0.87630  0.08060  0.74970  Biso   1.000  C
  H190     1.0000 0.86090  0.06740  0.76190  Biso   1.000  H
  O77      1.0000 0.32925  0.46453  0.62111  Biso   1.000  O
  O78      1.0000 0.29028  0.46478  0.66066  Biso   1.000  O
  C191     1.0000 0.30282  0.45357  0.63442  Biso   1.000  C
  C192     1.0000 0.28569  0.42544  0.61715  Biso   1.000  C
  C193     1.0000 0.25860  0.40840  0.63230  Biso   1.000  C
  H191     1.0000 0.24930  0.41760  0.65220  Biso   1.000  H
  C194     1.0000 0.25200  0.47008  0.72420  Biso   1.000  C
  H192     1.0000 0.26630  0.44990  0.72660  Biso   1.000  H
  H193     1.0000 0.24150  0.46960  0.70180  Biso   1.000  H
  H194     1.0000 0.23500  0.48000  0.69860  Biso   1.000  H
  C195     1.0000 0.37630  0.58060  0.74970  Biso   1.000  C
  H195     1.0000 0.36090  0.56740  0.76190  Biso   1.000  H
  O79      1.0000 0.32925  0.96453  0.12111  Biso   1.000  O
  O80      1.0000 0.29028  0.96478  0.16066  Biso   1.000  O
  C196     1.0000 0.30282  0.95357  0.13442  Biso   1.000  C
  C197     1.0000 0.28569  0.92544  0.11715  Biso   1.000  C
  C198     1.0000 0.25860  0.90840  0.13230  Biso   1.000  C
  H196     1.0000 0.24930  0.91760  0.15220  Biso   1.000  H
  C199     1.0000 0.25200  0.97008  0.22420  Biso   1.000  C
  H197     1.0000 0.26630  0.94990  0.22660  Biso   1.000  H
  H198     1.0000 0.24150  0.96960  0.20180  Biso   1.000  H
  H199     1.0000 0.23500  0.98000  0.19860  Biso   1.000  H
  C200     1.0000 0.37630  0.08060  0.24970  Biso   1.000  C
  H200     1.0000 0.36090  0.06740  0.26190  Biso   1.000  H
  O81      1.0000 0.17075  0.53547  0.12111  Biso   1.000  O
  O82      1.0000 0.20972  0.53522  0.16066  Biso   1.000  O
  C201     1.0000 0.19718  0.54643  0.13442  Biso   1.000  C
  C202     1.0000 0.21431  0.57456  0.11715  Biso   1.000  C
  C203     1.0000 0.24140  0.59160  0.13230  Biso   1.000  C
  H201     1.0000 0.25070  0.58240  0.15220  Biso   1.000  H
  C204     1.0000 0.24800  0.52992  0.22420  Biso   1.000  C
  H202     1.0000 0.23370  0.55010  0.22660  Biso   1.000  H
  H203     1.0000 0.25850  0.53040  0.20180  Biso   1.000  H
  H204     1.0000 0.26500  0.52000  0.19860  Biso   1.000  H
  C205     1.0000 0.12370  0.41940  0.24970  Biso   1.000  C
  H205     1.0000 0.13910  0.43260  0.26190  Biso   1.000  H
  O83      1.0000 0.17075  0.03547  0.62111  Biso   1.000  O
  O84      1.0000 0.20972  0.03522  0.66066  Biso   1.000  O
  C206     1.0000 0.19718  0.04643  0.63442  Biso   1.000  C
  C207     1.0000 0.21431  0.07456  0.61715  Biso   1.000  C
  C208     1.0000 0.24140  0.09160  0.63230  Biso   1.000  C
  H206     1.0000 0.25070  0.08240  0.65220  Biso   1.000  H
  C209     1.0000 0.24800  0.02992  0.72420  Biso   1.000  C
  H207     1.0000 0.23370  0.05010  0.72660  Biso   1.000  H
  H208     1.0000 0.25850  0.03040  0.70180  Biso   1.000  H
  H209     1.0000 0.26500  0.02000  0.69860  Biso   1.000  H
  C210     1.0000 0.12370  0.91940  0.74970  Biso   1.000  C
  H210     1.0000 0.13910  0.93260  0.76190  Biso   1.000  H
  O85      1.0000 0.67075  0.53547  0.62111  Biso   1.000  O
  O86      1.0000 0.70972  0.53522  0.66066  Biso   1.000  O
  C211     1.0000 0.69718  0.54643  0.63442  Biso   1.000  C
  C212     1.0000 0.71431  0.57456  0.61715  Biso   1.000  C
  C213     1.0000 0.74140  0.59160  0.63230  Biso   1.000  C
  H211     1.0000 0.75070  0.58240  0.65220  Biso   1.000  H
  C214     1.0000 0.74800  0.52992  0.72420  Biso   1.000  C
  H212     1.0000 0.73370  0.55010  0.72660  Biso   1.000  H
  H213     1.0000 0.75850  0.53040  0.70180  Biso   1.000  H
  H214     1.0000 0.76500  0.52000  0.69860  Biso   1.000  H
  C215     1.0000 0.62370  0.41940  0.74970  Biso   1.000  C
  H215     1.0000 0.63910  0.43260  0.76190  Biso   1.000  H
  O87      1.0000 0.67075  0.03547  0.12111  Biso   1.000  O
  O88      1.0000 0.70972  0.03522  0.16066  Biso   1.000  O
  C216     1.0000 0.69718  0.04643  0.13442  Biso   1.000  C
  C217     1.0000 0.71431  0.07456  0.11715  Biso   1.000  C
  C218     1.0000 0.74140  0.09160  0.13230  Biso   1.000  C
  H216     1.0000 0.75070  0.08240  0.15220  Biso   1.000  H
  C219     1.0000 0.74800  0.02992  0.22420  Biso   1.000  C
  H217     1.0000 0.73370  0.05010  0.22660  Biso   1.000  H
  H218     1.0000 0.75850  0.03040  0.20180  Biso   1.000  H
  H219     1.0000 0.76500  0.02000  0.19860  Biso   1.000  H
  C220     1.0000 0.62370  0.91940  0.24970  Biso   1.000  C
  H220     1.0000 0.63910  0.93260  0.26190  Biso   1.000  H
  O89      1.0000 0.82925  0.53547  0.87889  Biso   1.000  O
  O90      1.0000 0.79028  0.53522  0.83934  Biso   1.000  O
  C221     1.0000 0.80282  0.54643  0.86558  Biso   1.000  C
  C222     1.0000 0.78569  0.57456  0.88285  Biso   1.000  C
  C223     1.0000 0.75860  0.59160  0.86770  Biso   1.000  C
  H221     1.0000 0.74930  0.58240  0.84780  Biso   1.000  H
  C224     1.0000 0.75200  0.52992  0.77580  Biso   1.000  C
  H222     1.0000 0.76630  0.55010  0.77340  Biso   1.000  H
  H223     1.0000 0.74150  0.53040  0.79820  Biso   1.000  H
  H224     1.0000 0.73500  0.52000  0.80140  Biso   1.000  H
  C225     1.0000 0.87630  0.41940  0.75030  Biso   1.000  C
  H225     1.0000 0.86090  0.43260  0.73810  Biso   1.000  H
  O91      1.0000 0.82925  0.03547  0.37889  Biso   1.000  O
  O92      1.0000 0.79028  0.03522  0.33934  Biso   1.000  O
  C226     1.0000 0.80282  0.04643  0.36558  Biso   1.000  C
  C227     1.0000 0.78569  0.07456  0.38285  Biso   1.000  C
  C228     1.0000 0.75860  0.09160  0.36770  Biso   1.000  C
  H226     1.0000 0.74930  0.08240  0.34780  Biso   1.000  H
  C229     1.0000 0.75200  0.02992  0.27580  Biso   1.000  C
  H227     1.0000 0.76630  0.05010  0.27340  Biso   1.000  H
  H228     1.0000 0.74150  0.03040  0.29820  Biso   1.000  H
  H229     1.0000 0.73500  0.02000  0.30140  Biso   1.000  H
  C230     1.0000 0.87630  0.91940  0.25030  Biso   1.000  C
  H230     1.0000 0.86090  0.93260  0.23810  Biso   1.000  H
  O93      1.0000 0.32925  0.53547  0.37889  Biso   1.000  O
  O94      1.0000 0.29028  0.53522  0.33934  Biso   1.000  O
  C231     1.0000 0.30282  0.54643  0.36558  Biso   1.000  C
  C232     1.0000 0.28569  0.57456  0.38285  Biso   1.000  C
  C233     1.0000 0.25860  0.59160  0.36770  Biso   1.000  C
  H231     1.0000 0.24930  0.58240  0.34780  Biso   1.000  H
  C234     1.0000 0.25200  0.52992  0.27580  Biso   1.000  C
  H232     1.0000 0.26630  0.55010  0.27340  Biso   1.000  H
  H233     1.0000 0.24150  0.53040  0.29820  Biso   1.000  H
  H234     1.0000 0.23500  0.52000  0.30140  Biso   1.000  H
  C235     1.0000 0.37630  0.41940  0.25030  Biso   1.000  C
  H235     1.0000 0.36090  0.43260  0.23810  Biso   1.000  H
  O95      1.0000 0.32925  0.03547  0.87889  Biso   1.000  O
  O96      1.0000 0.29028  0.03522  0.83934  Biso   1.000  O
  C236     1.0000 0.30282  0.04643  0.86558  Biso   1.000  C
  C237     1.0000 0.28569  0.07456  0.88285  Biso   1.000  C
  C238     1.0000 0.25860  0.09160  0.86770  Biso   1.000  C
  H236     1.0000 0.24930  0.08240  0.84780  Biso   1.000  H
  C239     1.0000 0.25200  0.02992  0.77580  Biso   1.000  C
  H237     1.0000 0.26630  0.05010  0.77340  Biso   1.000  H
  H238     1.0000 0.24150  0.03040  0.79820  Biso   1.000  H
  H239     1.0000 0.23500  0.02000  0.80140  Biso   1.000  H
  C240     1.0000 0.37630  0.91940  0.75030  Biso   1.000  C
  H240     1.0000 0.36090  0.93260  0.73810  Biso   1.000  H
  O97      1.0000 0.17075  0.87889  0.53547  Biso   1.000  O
  O98      1.0000 0.20972  0.83934  0.53522  Biso   1.000  O
  C241     1.0000 0.19718  0.86558  0.54643  Biso   1.000  C
  C242     1.0000 0.21431  0.88285  0.57456  Biso   1.000  C
  C243     1.0000 0.24140  0.86770  0.59160  Biso   1.000  C
  H241     1.0000 0.25070  0.84780  0.58240  Biso   1.000  H
  C244     1.0000 0.24800  0.77580  0.52992  Biso   1.000  C
  H242     1.0000 0.23370  0.77340  0.55010  Biso   1.000  H
  H243     1.0000 0.25850  0.79820  0.53040  Biso   1.000  H
  H244     1.0000 0.26500  0.80140  0.52000  Biso   1.000  H
  C245     1.0000 0.12370  0.75030  0.41940  Biso   1.000  C
  H245     1.0000 0.13910  0.73810  0.43260  Biso   1.000  H
  O99      1.0000 0.17075  0.37889  0.03547  Biso   1.000  O
  O100     1.0000 0.20972  0.33934  0.03522  Biso   1.000  O
  C246     1.0000 0.19718  0.36558  0.04643  Biso   1.000  C
  C247     1.0000 0.21431  0.38285  0.07456  Biso   1.000  C
  C248     1.0000 0.24140  0.36770  0.09160  Biso   1.000  C
  H246     1.0000 0.25070  0.34780  0.08240  Biso   1.000  H
  C249     1.0000 0.24800  0.27580  0.02992  Biso   1.000  C
  H247     1.0000 0.23370  0.27340  0.05010  Biso   1.000  H
  H248     1.0000 0.25850  0.29820  0.03040  Biso   1.000  H
  H249     1.0000 0.26500  0.30140  0.02000  Biso   1.000  H
  C250     1.0000 0.12370  0.25030  0.91940  Biso   1.000  C
  H250     1.0000 0.13910  0.23810  0.93260  Biso   1.000  H
  O101     1.0000 0.67075  0.87889  0.03547  Biso   1.000  O
  O102     1.0000 0.70972  0.83934  0.03522  Biso   1.000  O
  C251     1.0000 0.69718  0.86558  0.04643  Biso   1.000  C
  C252     1.0000 0.71431  0.88285  0.07456  Biso   1.000  C
  C253     1.0000 0.74140  0.86770  0.09160  Biso   1.000  C
  H251     1.0000 0.75070  0.84780  0.08240  Biso   1.000  H
  C254     1.0000 0.74800  0.77580  0.02992  Biso   1.000  C
  H252     1.0000 0.73370  0.77340  0.05010  Biso   1.000  H
  H253     1.0000 0.75850  0.79820  0.03040  Biso   1.000  H
  H254     1.0000 0.76500  0.80140  0.02000  Biso   1.000  H
  C255     1.0000 0.62370  0.75030  0.91940  Biso   1.000  C
  H255     1.0000 0.63910  0.73810  0.93260  Biso   1.000  H
  O103     1.0000 0.67075  0.37889  0.53547  Biso   1.000  O
  O104     1.0000 0.70972  0.33934  0.53522  Biso   1.000  O
  C256     1.0000 0.69718  0.36558  0.54643  Biso   1.000  C
  C257     1.0000 0.71431  0.38285  0.57456  Biso   1.000  C
  C258     1.0000 0.74140  0.36770  0.59160  Biso   1.000  C
  H256     1.0000 0.75070  0.34780  0.58240  Biso   1.000  H
  C259     1.0000 0.74800  0.27580  0.52992  Biso   1.000  C
  H257     1.0000 0.73370  0.27340  0.55010  Biso   1.000  H
  H258     1.0000 0.75850  0.29820  0.53040  Biso   1.000  H
  H259     1.0000 0.76500  0.30140  0.52000  Biso   1.000  H
  C260     1.0000 0.62370  0.25030  0.41940  Biso   1.000  C
  H260     1.0000 0.63910  0.23810  0.43260  Biso   1.000  H
  O105     1.0000 0.82925  0.12111  0.53547  Biso   1.000  O
  O106     1.0000 0.79028  0.16066  0.53522  Biso   1.000  O
  C261     1.0000 0.80282  0.13442  0.54643  Biso   1.000  C
  C262     1.0000 0.78569  0.11715  0.57456  Biso   1.000  C
  C263     1.0000 0.75860  0.13230  0.59160  Biso   1.000  C
  H261     1.0000 0.74930  0.15220  0.58240  Biso   1.000  H
  C264     1.0000 0.75200  0.22420  0.52992  Biso   1.000  C
  H262     1.0000 0.76630  0.22660  0.55010  Biso   1.000  H
  H263     1.0000 0.74150  0.20180  0.53040  Biso   1.000  H
  H264     1.0000 0.73500  0.19860  0.52000  Biso   1.000  H
  C265     1.0000 0.87630  0.24970  0.41940  Biso   1.000  C
  H265     1.0000 0.86090  0.26190  0.43260  Biso   1.000  H
  O107     1.0000 0.82925  0.62111  0.03547  Biso   1.000  O
  O108     1.0000 0.79028  0.66066  0.03522  Biso   1.000  O
  C266     1.0000 0.80282  0.63442  0.04643  Biso   1.000  C
  C267     1.0000 0.78569  0.61715  0.07456  Biso   1.000  C
  C268     1.0000 0.75860  0.63230  0.09160  Biso   1.000  C
  H266     1.0000 0.74930  0.65220  0.08240  Biso   1.000  H
  C269     1.0000 0.75200  0.72420  0.02992  Biso   1.000  C
  H267     1.0000 0.76630  0.72660  0.05010  Biso   1.000  H
  H268     1.0000 0.74150  0.70180  0.03040  Biso   1.000  H
  H269     1.0000 0.73500  0.69860  0.02000  Biso   1.000  H
  C270     1.0000 0.87630  0.74970  0.91940  Biso   1.000  C
  H270     1.0000 0.86090  0.76190  0.93260  Biso   1.000  H
  O109     1.0000 0.32925  0.12111  0.03547  Biso   1.000  O
  O110     1.0000 0.29028  0.16066  0.03522  Biso   1.000  O
  C271     1.0000 0.30282  0.13442  0.04643  Biso   1.000  C
  C272     1.0000 0.28569  0.11715  0.07456  Biso   1.000  C
  C273     1.0000 0.25860  0.13230  0.09160  Biso   1.000  C
  H271     1.0000 0.24930  0.15220  0.08240  Biso   1.000  H
  C274     1.0000 0.25200  0.22420  0.02992  Biso   1.000  C
  H272     1.0000 0.26630  0.22660  0.05010  Biso   1.000  H
  H273     1.0000 0.24150  0.20180  0.03040  Biso   1.000  H
  H274     1.0000 0.23500  0.19860  0.02000  Biso   1.000  H
  C275     1.0000 0.37630  0.24970  0.91940  Biso   1.000  C
  H275     1.0000 0.36090  0.26190  0.93260  Biso   1.000  H
  O111     1.0000 0.32925  0.62111  0.53547  Biso   1.000  O
  O112     1.0000 0.29028  0.66066  0.53522  Biso   1.000  O
  C276     1.0000 0.30282  0.63442  0.54643  Biso   1.000  C
  C277     1.0000 0.28569  0.61715  0.57456  Biso   1.000  C
  C278     1.0000 0.25860  0.63230  0.59160  Biso   1.000  C
  H276     1.0000 0.24930  0.65220  0.58240  Biso   1.000  H
  C279     1.0000 0.25200  0.72420  0.52992  Biso   1.000  C
  H277     1.0000 0.26630  0.72660  0.55010  Biso   1.000  H
  H278     1.0000 0.24150  0.70180  0.53040  Biso   1.000  H
  H279     1.0000 0.23500  0.69860  0.52000  Biso   1.000  H
  C280     1.0000 0.37630  0.74970  0.41940  Biso   1.000  C
  H280     1.0000 0.36090  0.76190  0.43260  Biso   1.000  H
  O113     1.0000 0.17075  0.12111  0.46453  Biso   1.000  O
  O114     1.0000 0.20972  0.16066  0.46478  Biso   1.000  O
  C281     1.0000 0.19718  0.13442  0.45357  Biso   1.000  C
  C282     1.0000 0.21431  0.11715  0.42544  Biso   1.000  C
  C283     1.0000 0.24140  0.13230  0.40840  Biso   1.000  C
  H281     1.0000 0.25070  0.15220  0.41760  Biso   1.000  H
  C284     1.0000 0.24800  0.22420  0.47008  Biso   1.000  C
  H282     1.0000 0.23370  0.22660  0.44990  Biso   1.000  H
  H283     1.0000 0.25850  0.20180  0.46960  Biso   1.000  H
  H284     1.0000 0.26500  0.19860  0.48000  Biso   1.000  H
  C285     1.0000 0.12370  0.24970  0.58060  Biso   1.000  C
  H285     1.0000 0.13910  0.26190  0.56740  Biso   1.000  H
  O115     1.0000 0.17075  0.62111  0.96453  Biso   1.000  O
  O116     1.0000 0.20972  0.66066  0.96478  Biso   1.000  O
  C286     1.0000 0.19718  0.63442  0.95357  Biso   1.000  C
  C287     1.0000 0.21431  0.61715  0.92544  Biso   1.000  C
  C288     1.0000 0.24140  0.63230  0.90840  Biso   1.000  C
  H286     1.0000 0.25070  0.65220  0.91760  Biso   1.000  H
  C289     1.0000 0.24800  0.72420  0.97008  Biso   1.000  C
  H287     1.0000 0.23370  0.72660  0.94990  Biso   1.000  H
  H288     1.0000 0.25850  0.70180  0.96960  Biso   1.000  H
  H289     1.0000 0.26500  0.69860  0.98000  Biso   1.000  H
  C290     1.0000 0.12370  0.74970  0.08060  Biso   1.000  C
  H290     1.0000 0.13910  0.76190  0.06740  Biso   1.000  H
  O117     1.0000 0.67075  0.12111  0.96453  Biso   1.000  O
  O118     1.0000 0.70972  0.16066  0.96478  Biso   1.000  O
  C291     1.0000 0.69718  0.13442  0.95357  Biso   1.000  C
  C292     1.0000 0.71431  0.11715  0.92544  Biso   1.000  C
  C293     1.0000 0.74140  0.13230  0.90840  Biso   1.000  C
  H291     1.0000 0.75070  0.15220  0.91760  Biso   1.000  H
  C294     1.0000 0.74800  0.22420  0.97008  Biso   1.000  C
  H292     1.0000 0.73370  0.22660  0.94990  Biso   1.000  H
  H293     1.0000 0.75850  0.20180  0.96960  Biso   1.000  H
  H294     1.0000 0.76500  0.19860  0.98000  Biso   1.000  H
  C295     1.0000 0.62370  0.24970  0.08060  Biso   1.000  C
  H295     1.0000 0.63910  0.26190  0.06740  Biso   1.000  H
  O119     1.0000 0.67075  0.62111  0.46453  Biso   1.000  O
  O120     1.0000 0.70972  0.66066  0.46478  Biso   1.000  O
  C296     1.0000 0.69718  0.63442  0.45357  Biso   1.000  C
  C297     1.0000 0.71431  0.61715  0.42544  Biso   1.000  C
  C298     1.0000 0.74140  0.63230  0.40840  Biso   1.000  C
  H296     1.0000 0.75070  0.65220  0.41760  Biso   1.000  H
  C299     1.0000 0.74800  0.72420  0.47008  Biso   1.000  C
  H297     1.0000 0.73370  0.72660  0.44990  Biso   1.000  H
  H298     1.0000 0.75850  0.70180  0.46960  Biso   1.000  H
  H299     1.0000 0.76500  0.69860  0.48000  Biso   1.000  H
  C300     1.0000 0.62370  0.74970  0.58060  Biso   1.000  C
  H300     1.0000 0.63910  0.76190  0.56740  Biso   1.000  H
  O121     1.0000 0.82925  0.87889  0.46453  Biso   1.000  O
  O122     1.0000 0.79028  0.83934  0.46478  Biso   1.000  O
  C301     1.0000 0.80282  0.86558  0.45357  Biso   1.000  C
  C302     1.0000 0.78569  0.88285  0.42544  Biso   1.000  C
  C303     1.0000 0.75860  0.86770  0.40840  Biso   1.000  C
  H301     1.0000 0.74930  0.84780  0.41760  Biso   1.000  H
  C304     1.0000 0.75200  0.77580  0.47008  Biso   1.000  C
  H302     1.0000 0.76630  0.77340  0.44990  Biso   1.000  H
  H303     1.0000 0.74150  0.79820  0.46960  Biso   1.000  H
  H304     1.0000 0.73500  0.80140  0.48000  Biso   1.000  H
  C305     1.0000 0.87630  0.75030  0.58060  Biso   1.000  C
  H305     1.0000 0.86090  0.73810  0.56740  Biso   1.000  H
  O123     1.0000 0.82925  0.37889  0.96453  Biso   1.000  O
  O124     1.0000 0.79028  0.33934  0.96478  Biso   1.000  O
  C306     1.0000 0.80282  0.36558  0.95357  Biso   1.000  C
  C307     1.0000 0.78569  0.38285  0.92544  Biso   1.000  C
  C308     1.0000 0.75860  0.36770  0.90840  Biso   1.000  C
  H306     1.0000 0.74930  0.34780  0.91760  Biso   1.000  H
  C309     1.0000 0.75200  0.27580  0.97008  Biso   1.000  C
  H307     1.0000 0.76630  0.27340  0.94990  Biso   1.000  H
  H308     1.0000 0.74150  0.29820  0.96960  Biso   1.000  H
  H309     1.0000 0.73500  0.30140  0.98000  Biso   1.000  H
  C310     1.0000 0.87630  0.25030  0.08060  Biso   1.000  C
  H310     1.0000 0.86090  0.23810  0.06740  Biso   1.000  H
  O125     1.0000 0.32925  0.87889  0.96453  Biso   1.000  O
  O126     1.0000 0.29028  0.83934  0.96478  Biso   1.000  O
  C311     1.0000 0.30282  0.86558  0.95357  Biso   1.000  C
  C312     1.0000 0.28569  0.88285  0.92544  Biso   1.000  C
  C313     1.0000 0.25860  0.86770  0.90840  Biso   1.000  C
  H311     1.0000 0.24930  0.84780  0.91760  Biso   1.000  H
  C314     1.0000 0.25200  0.77580  0.97008  Biso   1.000  C
  H312     1.0000 0.26630  0.77340  0.94990  Biso   1.000  H
  H313     1.0000 0.24150  0.79820  0.96960  Biso   1.000  H
  H314     1.0000 0.23500  0.80140  0.98000  Biso   1.000  H
  C315     1.0000 0.37630  0.75030  0.08060  Biso   1.000  C
  H315     1.0000 0.36090  0.73810  0.06740  Biso   1.000  H
  O127     1.0000 0.32925  0.37889  0.46453  Biso   1.000  O
  O128     1.0000 0.29028  0.33934  0.46478  Biso   1.000  O
  C316     1.0000 0.30282  0.36558  0.45357  Biso   1.000  C
  C317     1.0000 0.28569  0.38285  0.42544  Biso   1.000  C
  C318     1.0000 0.25860  0.36770  0.40840  Biso   1.000  C
  H316     1.0000 0.24930  0.34780  0.41760  Biso   1.000  H
  C319     1.0000 0.25200  0.27580  0.47008  Biso   1.000  C
  H317     1.0000 0.26630  0.27340  0.44990  Biso   1.000  H
  H318     1.0000 0.24150  0.29820  0.46960  Biso   1.000  H
  H319     1.0000 0.23500  0.30140  0.48000  Biso   1.000  H
  C320     1.0000 0.37630  0.25030  0.58060  Biso   1.000  C
  H320     1.0000 0.36090  0.23810  0.56740  Biso   1.000  H
  O129     1.0000 0.87889  0.46453  0.82925  Biso   1.000  O
  O130     1.0000 0.83934  0.46478  0.79028  Biso   1.000  O
  C321     1.0000 0.86558  0.45357  0.80282  Biso   1.000  C
  C322     1.0000 0.88285  0.42544  0.78569  Biso   1.000  C
  C323     1.0000 0.86770  0.40840  0.75860  Biso   1.000  C
  H321     1.0000 0.84780  0.41760  0.74930  Biso   1.000  H
  C324     1.0000 0.77580  0.47008  0.75200  Biso   1.000  C
  H322     1.0000 0.77340  0.44990  0.76630  Biso   1.000  H
  H323     1.0000 0.79820  0.46960  0.74150  Biso   1.000  H
  H324     1.0000 0.80140  0.48000  0.73500  Biso   1.000  H
  C325     1.0000 0.75030  0.58060  0.87630  Biso   1.000  C
  H325     1.0000 0.73810  0.56740  0.86090  Biso   1.000  H
  O131     1.0000 0.87889  0.96453  0.32925  Biso   1.000  O
  O132     1.0000 0.83934  0.96478  0.29028  Biso   1.000  O
  C326     1.0000 0.86558  0.95357  0.30282  Biso   1.000  C
  C327     1.0000 0.88285  0.92544  0.28569  Biso   1.000  C
  C328     1.0000 0.86770  0.90840  0.25860  Biso   1.000  C
  H326     1.0000 0.84780  0.91760  0.24930  Biso   1.000  H
  C329     1.0000 0.77580  0.97008  0.25200  Biso   1.000  C
  H327     1.0000 0.77340  0.94990  0.26630  Biso   1.000  H
  H328     1.0000 0.79820  0.96960  0.24150  Biso   1.000  H
  H329     1.0000 0.80140  0.98000  0.23500  Biso   1.000  H
  C330     1.0000 0.75030  0.08060  0.37630  Biso   1.000  C
  H330     1.0000 0.73810  0.06740  0.36090  Biso   1.000  H
  O133     1.0000 0.37889  0.46453  0.32925  Biso   1.000  O
  O134     1.0000 0.33934  0.46478  0.29028  Biso   1.000  O
  C331     1.0000 0.36558  0.45357  0.30282  Biso   1.000  C
  C332     1.0000 0.38285  0.42544  0.28569  Biso   1.000  C
  C333     1.0000 0.36770  0.40840  0.25860  Biso   1.000  C
  H331     1.0000 0.34780  0.41760  0.24930  Biso   1.000  H
  C334     1.0000 0.27580  0.47008  0.25200  Biso   1.000  C
  H332     1.0000 0.27340  0.44990  0.26630  Biso   1.000  H
  H333     1.0000 0.29820  0.46960  0.24150  Biso   1.000  H
  H334     1.0000 0.30140  0.48000  0.23500  Biso   1.000  H
  C335     1.0000 0.25030  0.58060  0.37630  Biso   1.000  C
  H335     1.0000 0.23810  0.56740  0.36090  Biso   1.000  H
  O135     1.0000 0.37889  0.96453  0.82925  Biso   1.000  O
  O136     1.0000 0.33934  0.96478  0.79028  Biso   1.000  O
  C336     1.0000 0.36558  0.95357  0.80282  Biso   1.000  C
  C337     1.0000 0.38285  0.92544  0.78569  Biso   1.000  C
  C338     1.0000 0.36770  0.90840  0.75860  Biso   1.000  C
  H336     1.0000 0.34780  0.91760  0.74930  Biso   1.000  H
  C339     1.0000 0.27580  0.97008  0.75200  Biso   1.000  C
  H337     1.0000 0.27340  0.94990  0.76630  Biso   1.000  H
  H338     1.0000 0.29820  0.96960  0.74150  Biso   1.000  H
  H339     1.0000 0.30140  0.98000  0.73500  Biso   1.000  H
  C340     1.0000 0.25030  0.08060  0.87630  Biso   1.000  C
  H340     1.0000 0.23810  0.06740  0.86090  Biso   1.000  H
  O137     1.0000 0.12111  0.46453  0.17075  Biso   1.000  O
  O138     1.0000 0.16066  0.46478  0.20972  Biso   1.000  O
  C341     1.0000 0.13442  0.45357  0.19718  Biso   1.000  C
  C342     1.0000 0.11715  0.42544  0.21431  Biso   1.000  C
  C343     1.0000 0.13230  0.40840  0.24140  Biso   1.000  C
  H341     1.0000 0.15220  0.41760  0.25070  Biso   1.000  H
  C344     1.0000 0.22420  0.47008  0.24800  Biso   1.000  C
  H342     1.0000 0.22660  0.44990  0.23370  Biso   1.000  H
  H343     1.0000 0.20180  0.46960  0.25850  Biso   1.000  H
  H344     1.0000 0.19860  0.48000  0.26500  Biso   1.000  H
  C345     1.0000 0.24970  0.58060  0.12370  Biso   1.000  C
  H345     1.0000 0.26190  0.56740  0.13910  Biso   1.000  H
  O139     1.0000 0.12111  0.96453  0.67075  Biso   1.000  O
  O140     1.0000 0.16066  0.96478  0.70972  Biso   1.000  O
  C346     1.0000 0.13442  0.95357  0.69718  Biso   1.000  C
  C347     1.0000 0.11715  0.92544  0.71431  Biso   1.000  C
  C348     1.0000 0.13230  0.90840  0.74140  Biso   1.000  C
  H346     1.0000 0.15220  0.91760  0.75070  Biso   1.000  H
  C349     1.0000 0.22420  0.97008  0.74800  Biso   1.000  C
  H347     1.0000 0.22660  0.94990  0.73370  Biso   1.000  H
  H348     1.0000 0.20180  0.96960  0.75850  Biso   1.000  H
  H349     1.0000 0.19860  0.98000  0.76500  Biso   1.000  H
  C350     1.0000 0.24970  0.08060  0.62370  Biso   1.000  C
  H350     1.0000 0.26190  0.06740  0.63910  Biso   1.000  H
  O141     1.0000 0.62111  0.46453  0.67075  Biso   1.000  O
  O142     1.0000 0.66066  0.46478  0.70972  Biso   1.000  O
  C351     1.0000 0.63442  0.45357  0.69718  Biso   1.000  C
  C352     1.0000 0.61715  0.42544  0.71431  Biso   1.000  C
  C353     1.0000 0.63230  0.40840  0.74140  Biso   1.000  C
  H351     1.0000 0.65220  0.41760  0.75070  Biso   1.000  H
  C354     1.0000 0.72420  0.47008  0.74800  Biso   1.000  C
  H352     1.0000 0.72660  0.44990  0.73370  Biso   1.000  H
  H353     1.0000 0.70180  0.46960  0.75850  Biso   1.000  H
  H354     1.0000 0.69860  0.48000  0.76500  Biso   1.000  H
  C355     1.0000 0.74970  0.58060  0.62370  Biso   1.000  C
  H355     1.0000 0.76190  0.56740  0.63910  Biso   1.000  H
  O143     1.0000 0.62111  0.96453  0.17075  Biso   1.000  O
  O144     1.0000 0.66066  0.96478  0.20972  Biso   1.000  O
  C356     1.0000 0.63442  0.95357  0.19718  Biso   1.000  C
  C357     1.0000 0.61715  0.92544  0.21431  Biso   1.000  C
  C358     1.0000 0.63230  0.90840  0.24140  Biso   1.000  C
  H356     1.0000 0.65220  0.91760  0.25070  Biso   1.000  H
  C359     1.0000 0.72420  0.97008  0.24800  Biso   1.000  C
  H357     1.0000 0.72660  0.94990  0.23370  Biso   1.000  H
  H358     1.0000 0.70180  0.96960  0.25850  Biso   1.000  H
  H359     1.0000 0.69860  0.98000  0.26500  Biso   1.000  H
  C360     1.0000 0.74970  0.08060  0.12370  Biso   1.000  C
  H360     1.0000 0.76190  0.06740  0.13910  Biso   1.000  H
  O145     1.0000 0.12111  0.53547  0.82925  Biso   1.000  O
  O146     1.0000 0.16066  0.53522  0.79028  Biso   1.000  O
  C361     1.0000 0.13442  0.54643  0.80282  Biso   1.000  C
  C362     1.0000 0.11715  0.57456  0.78569  Biso   1.000  C
  C363     1.0000 0.13230  0.59160  0.75860  Biso   1.000  C
  H361     1.0000 0.15220  0.58240  0.74930  Biso   1.000  H
  C364     1.0000 0.22420  0.52992  0.75200  Biso   1.000  C
  H362     1.0000 0.22660  0.55010  0.76630  Biso   1.000  H
  H363     1.0000 0.20180  0.53040  0.74150  Biso   1.000  H
  H364     1.0000 0.19860  0.52000  0.73500  Biso   1.000  H
  C365     1.0000 0.24970  0.41940  0.87630  Biso   1.000  C
  H365     1.0000 0.26190  0.43260  0.86090  Biso   1.000  H
  O147     1.0000 0.12111  0.03547  0.32925  Biso   1.000  O
  O148     1.0000 0.16066  0.03522  0.29028  Biso   1.000  O
  C366     1.0000 0.13442  0.04643  0.30282  Biso   1.000  C
  C367     1.0000 0.11715  0.07456  0.28569  Biso   1.000  C
  C368     1.0000 0.13230  0.09160  0.25860  Biso   1.000  C
  H366     1.0000 0.15220  0.08240  0.24930  Biso   1.000  H
  C369     1.0000 0.22420  0.02992  0.25200  Biso   1.000  C
  H367     1.0000 0.22660  0.05010  0.26630  Biso   1.000  H
  H368     1.0000 0.20180  0.03040  0.24150  Biso   1.000  H
  H369     1.0000 0.19860  0.02000  0.23500  Biso   1.000  H
  C370     1.0000 0.24970  0.91940  0.37630  Biso   1.000  C
  H370     1.0000 0.26190  0.93260  0.36090  Biso   1.000  H
  O149     1.0000 0.62111  0.53547  0.32925  Biso   1.000  O
  O150     1.0000 0.66066  0.53522  0.29028  Biso   1.000  O
  C371     1.0000 0.63442  0.54643  0.30282  Biso   1.000  C
  C372     1.0000 0.61715  0.57456  0.28569  Biso   1.000  C
  C373     1.0000 0.63230  0.59160  0.25860  Biso   1.000  C
  H371     1.0000 0.65220  0.58240  0.24930  Biso   1.000  H
  C374     1.0000 0.72420  0.52992  0.25200  Biso   1.000  C
  H372     1.0000 0.72660  0.55010  0.26630  Biso   1.000  H
  H373     1.0000 0.70180  0.53040  0.24150  Biso   1.000  H
  H374     1.0000 0.69860  0.52000  0.23500  Biso   1.000  H
  C375     1.0000 0.74970  0.41940  0.37630  Biso   1.000  C
  H375     1.0000 0.76190  0.43260  0.36090  Biso   1.000  H
  O151     1.0000 0.62111  0.03547  0.82925  Biso   1.000  O
  O152     1.0000 0.66066  0.03522  0.79028  Biso   1.000  O
  C376     1.0000 0.63442  0.04643  0.80282  Biso   1.000  C
  C377     1.0000 0.61715  0.07456  0.78569  Biso   1.000  C
  C378     1.0000 0.63230  0.09160  0.75860  Biso   1.000  C
  H376     1.0000 0.65220  0.08240  0.74930  Biso   1.000  H
  C379     1.0000 0.72420  0.02992  0.75200  Biso   1.000  C
  H377     1.0000 0.72660  0.05010  0.76630  Biso   1.000  H
  H378     1.0000 0.70180  0.03040  0.74150  Biso   1.000  H
  H379     1.0000 0.69860  0.02000  0.73500  Biso   1.000  H
  C380     1.0000 0.74970  0.91940  0.87630  Biso   1.000  C
  H380     1.0000 0.76190  0.93260  0.86090  Biso   1.000  H
  O153     1.0000 0.87889  0.53547  0.17075  Biso   1.000  O
  O154     1.0000 0.83934  0.53522  0.20972  Biso   1.000  O
  C381     1.0000 0.86558  0.54643  0.19718  Biso   1.000  C
  C382     1.0000 0.88285  0.57456  0.21431  Biso   1.000  C
  C383     1.0000 0.86770  0.59160  0.24140  Biso   1.000  C
  H381     1.0000 0.84780  0.58240  0.25070  Biso   1.000  H
  C384     1.0000 0.77580  0.52992  0.24800  Biso   1.000  C
  H382     1.0000 0.77340  0.55010  0.23370  Biso   1.000  H
  H383     1.0000 0.79820  0.53040  0.25850  Biso   1.000  H
  H384     1.0000 0.80140  0.52000  0.26500  Biso   1.000  H
  C385     1.0000 0.75030  0.41940  0.12370  Biso   1.000  C
  H385     1.0000 0.73810  0.43260  0.13910  Biso   1.000  H
  O155     1.0000 0.87889  0.03547  0.67075  Biso   1.000  O
  O156     1.0000 0.83934  0.03522  0.70972  Biso   1.000  O
  C386     1.0000 0.86558  0.04643  0.69718  Biso   1.000  C
  C387     1.0000 0.88285  0.07456  0.71431  Biso   1.000  C
  C388     1.0000 0.86770  0.09160  0.74140  Biso   1.000  C
  H386     1.0000 0.84780  0.08240  0.75070  Biso   1.000  H
  C389     1.0000 0.77580  0.02992  0.74800  Biso   1.000  C
  H387     1.0000 0.77340  0.05010  0.73370  Biso   1.000  H
  H388     1.0000 0.79820  0.03040  0.75850  Biso   1.000  H
  H389     1.0000 0.80140  0.02000  0.76500  Biso   1.000  H
  C390     1.0000 0.75030  0.91940  0.62370  Biso   1.000  C
  H390     1.0000 0.73810  0.93260  0.63910  Biso   1.000  H
  O157     1.0000 0.37889  0.53547  0.67075  Biso   1.000  O
  O158     1.0000 0.33934  0.53522  0.70972  Biso   1.000  O
  C391     1.0000 0.36558  0.54643  0.69718  Biso   1.000  C
  C392     1.0000 0.38285  0.57456  0.71431  Biso   1.000  C
  C393     1.0000 0.36770  0.59160  0.74140  Biso   1.000  C
  H391     1.0000 0.34780  0.58240  0.75070  Biso   1.000  H
  C394     1.0000 0.27580  0.52992  0.74800  Biso   1.000  C
  H392     1.0000 0.27340  0.55010  0.73370  Biso   1.000  H
  H393     1.0000 0.29820  0.53040  0.75850  Biso   1.000  H
  H394     1.0000 0.30140  0.52000  0.76500  Biso   1.000  H
  C395     1.0000 0.25030  0.41940  0.62370  Biso   1.000  C
  H395     1.0000 0.23810  0.43260  0.63910  Biso   1.000  H
  O159     1.0000 0.37889  0.03547  0.17075  Biso   1.000  O
  O160     1.0000 0.33934  0.03522  0.20972  Biso   1.000  O
  C396     1.0000 0.36558  0.04643  0.19718  Biso   1.000  C
  C397     1.0000 0.38285  0.07456  0.21431  Biso   1.000  C
  C398     1.0000 0.36770  0.09160  0.24140  Biso   1.000  C
  H396     1.0000 0.34780  0.08240  0.25070  Biso   1.000  H
  C399     1.0000 0.27580  0.02992  0.24800  Biso   1.000  C
  H397     1.0000 0.27340  0.05010  0.23370  Biso   1.000  H
  H398     1.0000 0.29820  0.03040  0.25850  Biso   1.000  H
  H399     1.0000 0.30140  0.02000  0.26500  Biso   1.000  H
  C400     1.0000 0.25030  0.91940  0.12370  Biso   1.000  C
  H400     1.0000 0.23810  0.93260  0.13910  Biso   1.000  H
  O161     1.0000 0.46453  0.17075  0.12111  Biso   1.000  O
  O162     1.0000 0.46478  0.20972  0.16066  Biso   1.000  O
  C401     1.0000 0.45357  0.19718  0.13442  Biso   1.000  C
  C402     1.0000 0.42544  0.21431  0.11715  Biso   1.000  C
  C403     1.0000 0.40840  0.24140  0.13230  Biso   1.000  C
  H401     1.0000 0.41760  0.25070  0.15220  Biso   1.000  H
  C404     1.0000 0.47008  0.24800  0.22420  Biso   1.000  C
  H402     1.0000 0.44990  0.23370  0.22660  Biso   1.000  H
  H403     1.0000 0.46960  0.25850  0.20180  Biso   1.000  H
  H404     1.0000 0.48000  0.26500  0.19860  Biso   1.000  H
  C405     1.0000 0.58060  0.12370  0.24970  Biso   1.000  C
  H405     1.0000 0.56740  0.13910  0.26190  Biso   1.000  H
  O163     1.0000 0.46453  0.67075  0.62111  Biso   1.000  O
  O164     1.0000 0.46478  0.70972  0.66066  Biso   1.000  O
  C406     1.0000 0.45357  0.69718  0.63442  Biso   1.000  C
  C407     1.0000 0.42544  0.71431  0.61715  Biso   1.000  C
  C408     1.0000 0.40840  0.74140  0.63230  Biso   1.000  C
  H406     1.0000 0.41760  0.75070  0.65220  Biso   1.000  H
  C409     1.0000 0.47008  0.74800  0.72420  Biso   1.000  C
  H407     1.0000 0.44990  0.73370  0.72660  Biso   1.000  H
  H408     1.0000 0.46960  0.75850  0.70180  Biso   1.000  H
  H409     1.0000 0.48000  0.76500  0.69860  Biso   1.000  H
  C410     1.0000 0.58060  0.62370  0.74970  Biso   1.000  C
  H410     1.0000 0.56740  0.63910  0.76190  Biso   1.000  H
  O165     1.0000 0.96453  0.17075  0.62111  Biso   1.000  O
  O166     1.0000 0.96478  0.20972  0.66066  Biso   1.000  O
  C411     1.0000 0.95357  0.19718  0.63442  Biso   1.000  C
  C412     1.0000 0.92544  0.21431  0.61715  Biso   1.000  C
  C413     1.0000 0.90840  0.24140  0.63230  Biso   1.000  C
  H411     1.0000 0.91760  0.25070  0.65220  Biso   1.000  H
  C414     1.0000 0.97008  0.24800  0.72420  Biso   1.000  C
  H412     1.0000 0.94990  0.23370  0.72660  Biso   1.000  H
  H413     1.0000 0.96960  0.25850  0.70180  Biso   1.000  H
  H414     1.0000 0.98000  0.26500  0.69860  Biso   1.000  H
  C415     1.0000 0.08060  0.12370  0.74970  Biso   1.000  C
  H415     1.0000 0.06740  0.13910  0.76190  Biso   1.000  H
  O167     1.0000 0.96453  0.67075  0.12111  Biso   1.000  O
  O168     1.0000 0.96478  0.70972  0.16066  Biso   1.000  O
  C416     1.0000 0.95357  0.69718  0.13442  Biso   1.000  C
  C417     1.0000 0.92544  0.71431  0.11715  Biso   1.000  C
  C418     1.0000 0.90840  0.74140  0.13230  Biso   1.000  C
  H416     1.0000 0.91760  0.75070  0.15220  Biso   1.000  H
  C419     1.0000 0.97008  0.74800  0.22420  Biso   1.000  C
  H417     1.0000 0.94990  0.73370  0.22660  Biso   1.000  H
  H418     1.0000 0.96960  0.75850  0.20180  Biso   1.000  H
  H419     1.0000 0.98000  0.76500  0.19860  Biso   1.000  H
  C420     1.0000 0.08060  0.62370  0.24970  Biso   1.000  C
  H420     1.0000 0.06740  0.63910  0.26190  Biso   1.000  H
  O169     1.0000 0.46453  0.82925  0.87889  Biso   1.000  O
  O170     1.0000 0.46478  0.79028  0.83934  Biso   1.000  O
  C421     1.0000 0.45357  0.80282  0.86558  Biso   1.000  C
  C422     1.0000 0.42544  0.78569  0.88285  Biso   1.000  C
  C423     1.0000 0.40840  0.75860  0.86770  Biso   1.000  C
  H421     1.0000 0.41760  0.74930  0.84780  Biso   1.000  H
  C424     1.0000 0.47008  0.75200  0.77580  Biso   1.000  C
  H422     1.0000 0.44990  0.76630  0.77340  Biso   1.000  H
  H423     1.0000 0.46960  0.74150  0.79820  Biso   1.000  H
  H424     1.0000 0.48000  0.73500  0.80140  Biso   1.000  H
  C425     1.0000 0.58060  0.87630  0.75030  Biso   1.000  C
  H425     1.0000 0.56740  0.86090  0.73810  Biso   1.000  H
  O171     1.0000 0.46453  0.32925  0.37889  Biso   1.000  O
  O172     1.0000 0.46478  0.29028  0.33934  Biso   1.000  O
  C426     1.0000 0.45357  0.30282  0.36558  Biso   1.000  C
  C427     1.0000 0.42544  0.28569  0.38285  Biso   1.000  C
  C428     1.0000 0.40840  0.25860  0.36770  Biso   1.000  C
  H426     1.0000 0.41760  0.24930  0.34780  Biso   1.000  H
  C429     1.0000 0.47008  0.25200  0.27580  Biso   1.000  C
  H427     1.0000 0.44990  0.26630  0.27340  Biso   1.000  H
  H428     1.0000 0.46960  0.24150  0.29820  Biso   1.000  H
  H429     1.0000 0.48000  0.23500  0.30140  Biso   1.000  H
  C430     1.0000 0.58060  0.37630  0.25030  Biso   1.000  C
  H430     1.0000 0.56740  0.36090  0.23810  Biso   1.000  H
  O173     1.0000 0.96453  0.82925  0.37889  Biso   1.000  O
  O174     1.0000 0.96478  0.79028  0.33934  Biso   1.000  O
  C431     1.0000 0.95357  0.80282  0.36558  Biso   1.000  C
  C432     1.0000 0.92544  0.78569  0.38285  Biso   1.000  C
  C433     1.0000 0.90840  0.75860  0.36770  Biso   1.000  C
  H431     1.0000 0.91760  0.74930  0.34780  Biso   1.000  H
  C434     1.0000 0.97008  0.75200  0.27580  Biso   1.000  C
  H432     1.0000 0.94990  0.76630  0.27340  Biso   1.000  H
  H433     1.0000 0.96960  0.74150  0.29820  Biso   1.000  H
  H434     1.0000 0.98000  0.73500  0.30140  Biso   1.000  H
  C435     1.0000 0.08060  0.87630  0.25030  Biso   1.000  C
  H435     1.0000 0.06740  0.86090  0.23810  Biso   1.000  H
  O175     1.0000 0.96453  0.32925  0.87889  Biso   1.000  O
  O176     1.0000 0.96478  0.29028  0.83934  Biso   1.000  O
  C436     1.0000 0.95357  0.30282  0.86558  Biso   1.000  C
  C437     1.0000 0.92544  0.28569  0.88285  Biso   1.000  C
  C438     1.0000 0.90840  0.25860  0.86770  Biso   1.000  C
  H436     1.0000 0.91760  0.24930  0.84780  Biso   1.000  H
  C439     1.0000 0.97008  0.25200  0.77580  Biso   1.000  C
  H437     1.0000 0.94990  0.26630  0.77340  Biso   1.000  H
  H438     1.0000 0.96960  0.24150  0.79820  Biso   1.000  H
  H439     1.0000 0.98000  0.23500  0.80140  Biso   1.000  H
  C440     1.0000 0.08060  0.37630  0.75030  Biso   1.000  C
  H440     1.0000 0.06740  0.36090  0.73810  Biso   1.000  H
  O177     1.0000 0.53547  0.17075  0.87889  Biso   1.000  O
  O178     1.0000 0.53522  0.20972  0.83934  Biso   1.000  O
  C441     1.0000 0.54643  0.19718  0.86558  Biso   1.000  C
  C442     1.0000 0.57456  0.21431  0.88285  Biso   1.000  C
  C443     1.0000 0.59160  0.24140  0.86770  Biso   1.000  C
  H441     1.0000 0.58240  0.25070  0.84780  Biso   1.000  H
  C444     1.0000 0.52992  0.24800  0.77580  Biso   1.000  C
  H442     1.0000 0.55010  0.23370  0.77340  Biso   1.000  H
  H443     1.0000 0.53040  0.25850  0.79820  Biso   1.000  H
  H444     1.0000 0.52000  0.26500  0.80140  Biso   1.000  H
  C445     1.0000 0.41940  0.12370  0.75030  Biso   1.000  C
  H445     1.0000 0.43260  0.13910  0.73810  Biso   1.000  H
  O179     1.0000 0.53547  0.67075  0.37889  Biso   1.000  O
  O180     1.0000 0.53522  0.70972  0.33934  Biso   1.000  O
  C446     1.0000 0.54643  0.69718  0.36558  Biso   1.000  C
  C447     1.0000 0.57456  0.71431  0.38285  Biso   1.000  C
  C448     1.0000 0.59160  0.74140  0.36770  Biso   1.000  C
  H446     1.0000 0.58240  0.75070  0.34780  Biso   1.000  H
  C449     1.0000 0.52992  0.74800  0.27580  Biso   1.000  C
  H447     1.0000 0.55010  0.73370  0.27340  Biso   1.000  H
  H448     1.0000 0.53040  0.75850  0.29820  Biso   1.000  H
  H449     1.0000 0.52000  0.76500  0.30140  Biso   1.000  H
  C450     1.0000 0.41940  0.62370  0.25030  Biso   1.000  C
  H450     1.0000 0.43260  0.63910  0.23810  Biso   1.000  H
  O181     1.0000 0.03547  0.17075  0.37889  Biso   1.000  O
  O182     1.0000 0.03522  0.20972  0.33934  Biso   1.000  O
  C451     1.0000 0.04643  0.19718  0.36558  Biso   1.000  C
  C452     1.0000 0.07456  0.21431  0.38285  Biso   1.000  C
  C453     1.0000 0.09160  0.24140  0.36770  Biso   1.000  C
  H451     1.0000 0.08240  0.25070  0.34780  Biso   1.000  H
  C454     1.0000 0.02992  0.24800  0.27580  Biso   1.000  C
  H452     1.0000 0.05010  0.23370  0.27340  Biso   1.000  H
  H453     1.0000 0.03040  0.25850  0.29820  Biso   1.000  H
  H454     1.0000 0.02000  0.26500  0.30140  Biso   1.000  H
  C455     1.0000 0.91940  0.12370  0.25030  Biso   1.000  C
  H455     1.0000 0.93260  0.13910  0.23810  Biso   1.000  H
  O183     1.0000 0.03547  0.67075  0.87889  Biso   1.000  O
  O184     1.0000 0.03522  0.70972  0.83934  Biso   1.000  O
  C456     1.0000 0.04643  0.69718  0.86558  Biso   1.000  C
  C457     1.0000 0.07456  0.71431  0.88285  Biso   1.000  C
  C458     1.0000 0.09160  0.74140  0.86770  Biso   1.000  C
  H456     1.0000 0.08240  0.75070  0.84780  Biso   1.000  H
  C459     1.0000 0.02992  0.74800  0.77580  Biso   1.000  C
  H457     1.0000 0.05010  0.73370  0.77340  Biso   1.000  H
  H458     1.0000 0.03040  0.75850  0.79820  Biso   1.000  H
  H459     1.0000 0.02000  0.76500  0.80140  Biso   1.000  H
  C460     1.0000 0.91940  0.62370  0.75030  Biso   1.000  C
  H460     1.0000 0.93260  0.63910  0.73810  Biso   1.000  H
  O185     1.0000 0.53547  0.82925  0.12111  Biso   1.000  O
  O186     1.0000 0.53522  0.79028  0.16066  Biso   1.000  O
  C461     1.0000 0.54643  0.80282  0.13442  Biso   1.000  C
  C462     1.0000 0.57456  0.78569  0.11715  Biso   1.000  C
  C463     1.0000 0.59160  0.75860  0.13230  Biso   1.000  C
  H461     1.0000 0.58240  0.74930  0.15220  Biso   1.000  H
  C464     1.0000 0.52992  0.75200  0.22420  Biso   1.000  C
  H462     1.0000 0.55010  0.76630  0.22660  Biso   1.000  H
  H463     1.0000 0.53040  0.74150  0.20180  Biso   1.000  H
  H464     1.0000 0.52000  0.73500  0.19860  Biso   1.000  H
  C465     1.0000 0.41940  0.87630  0.24970  Biso   1.000  C
  H465     1.0000 0.43260  0.86090  0.26190  Biso   1.000  H
  O187     1.0000 0.53547  0.32925  0.62111  Biso   1.000  O
  O188     1.0000 0.53522  0.29028  0.66066  Biso   1.000  O
  C466     1.0000 0.54643  0.30282  0.63442  Biso   1.000  C
  C467     1.0000 0.57456  0.28569  0.61715  Biso   1.000  C
  C468     1.0000 0.59160  0.25860  0.63230  Biso   1.000  C
  H466     1.0000 0.58240  0.24930  0.65220  Biso   1.000  H
  C469     1.0000 0.52992  0.25200  0.72420  Biso   1.000  C
  H467     1.0000 0.55010  0.26630  0.72660  Biso   1.000  H
  H468     1.0000 0.53040  0.24150  0.70180  Biso   1.000  H
  H469     1.0000 0.52000  0.23500  0.69860  Biso   1.000  H
  C470     1.0000 0.41940  0.37630  0.74970  Biso   1.000  C
  H470     1.0000 0.43260  0.36090  0.76190  Biso   1.000  H
  O189     1.0000 0.03547  0.82925  0.62111  Biso   1.000  O
  O190     1.0000 0.03522  0.79028  0.66066  Biso   1.000  O
  C471     1.0000 0.04643  0.80282  0.63442  Biso   1.000  C
  C472     1.0000 0.07456  0.78569  0.61715  Biso   1.000  C
  C473     1.0000 0.09160  0.75860  0.63230  Biso   1.000  C
  H471     1.0000 0.08240  0.74930  0.65220  Biso   1.000  H
  C474     1.0000 0.02992  0.75200  0.72420  Biso   1.000  C
  H472     1.0000 0.05010  0.76630  0.72660  Biso   1.000  H
  H473     1.0000 0.03040  0.74150  0.70180  Biso   1.000  H
  H474     1.0000 0.02000  0.73500  0.69860  Biso   1.000  H
  C475     1.0000 0.91940  0.87630  0.74970  Biso   1.000  C
  H475     1.0000 0.93260  0.86090  0.76190  Biso   1.000  H
  O191     1.0000 0.03547  0.32925  0.12111  Biso   1.000  O
  O192     1.0000 0.03522  0.29028  0.16066  Biso   1.000  O
  C476     1.0000 0.04643  0.30282  0.13442  Biso   1.000  C
  C477     1.0000 0.07456  0.28569  0.11715  Biso   1.000  C
  C478     1.0000 0.09160  0.25860  0.13230  Biso   1.000  C
  H476     1.0000 0.08240  0.24930  0.15220  Biso   1.000  H
  C479     1.0000 0.02992  0.25200  0.22420  Biso   1.000  C
  H477     1.0000 0.05010  0.26630  0.22660  Biso   1.000  H
  H478     1.0000 0.03040  0.24150  0.20180  Biso   1.000  H
  H479     1.0000 0.02000  0.23500  0.19860  Biso   1.000  H
  C480     1.0000 0.91940  0.37630  0.24970  Biso   1.000  C
  H480     1.0000 0.93260  0.36090  0.26190  Biso   1.000  H
  O193     1.0000 0.12111  0.82925  0.53547  Biso   1.000  O
  O194     1.0000 0.16066  0.79028  0.53522  Biso   1.000  O
  C481     1.0000 0.13442  0.80282  0.54643  Biso   1.000  C
  C482     1.0000 0.11715  0.78569  0.57456  Biso   1.000  C
  C483     1.0000 0.13230  0.75860  0.59160  Biso   1.000  C
  H481     1.0000 0.15220  0.74930  0.58240  Biso   1.000  H
  C484     1.0000 0.22420  0.75200  0.52992  Biso   1.000  C
  H482     1.0000 0.22660  0.76630  0.55010  Biso   1.000  H
  H483     1.0000 0.20180  0.74150  0.53040  Biso   1.000  H
  H484     1.0000 0.19860  0.73500  0.52000  Biso   1.000  H
  C485     1.0000 0.24970  0.87630  0.41940  Biso   1.000  C
  H485     1.0000 0.26190  0.86090  0.43260  Biso   1.000  H
  O195     1.0000 0.12111  0.32925  0.03547  Biso   1.000  O
  O196     1.0000 0.16066  0.29028  0.03522  Biso   1.000  O
  C486     1.0000 0.13442  0.30282  0.04643  Biso   1.000  C
  C487     1.0000 0.11715  0.28569  0.07456  Biso   1.000  C
  C488     1.0000 0.13230  0.25860  0.09160  Biso   1.000  C
  H486     1.0000 0.15220  0.24930  0.08240  Biso   1.000  H
  C489     1.0000 0.22420  0.25200  0.02992  Biso   1.000  C
  H487     1.0000 0.22660  0.26630  0.05010  Biso   1.000  H
  H488     1.0000 0.20180  0.24150  0.03040  Biso   1.000  H
  H489     1.0000 0.19860  0.23500  0.02000  Biso   1.000  H
  C490     1.0000 0.24970  0.37630  0.91940  Biso   1.000  C
  H490     1.0000 0.26190  0.36090  0.93260  Biso   1.000  H
  O197     1.0000 0.62111  0.82925  0.03547  Biso   1.000  O
  O198     1.0000 0.66066  0.79028  0.03522  Biso   1.000  O
  C491     1.0000 0.63442  0.80282  0.04643  Biso   1.000  C
  C492     1.0000 0.61715  0.78569  0.07456  Biso   1.000  C
  C493     1.0000 0.63230  0.75860  0.09160  Biso   1.000  C
  H491     1.0000 0.65220  0.74930  0.08240  Biso   1.000  H
  C494     1.0000 0.72420  0.75200  0.02992  Biso   1.000  C
  H492     1.0000 0.72660  0.76630  0.05010  Biso   1.000  H
  H493     1.0000 0.70180  0.74150  0.03040  Biso   1.000  H
  H494     1.0000 0.69860  0.73500  0.02000  Biso   1.000  H
  C495     1.0000 0.74970  0.87630  0.91940  Biso   1.000  C
  H495     1.0000 0.76190  0.86090  0.93260  Biso   1.000  H
  O199     1.0000 0.62111  0.32925  0.53547  Biso   1.000  O
  O200     1.0000 0.66066  0.29028  0.53522  Biso   1.000  O
  C496     1.0000 0.63442  0.30282  0.54643  Biso   1.000  C
  C497     1.0000 0.61715  0.28569  0.57456  Biso   1.000  C
  C498     1.0000 0.63230  0.25860  0.59160  Biso   1.000  C
  H496     1.0000 0.65220  0.24930  0.58240  Biso   1.000  H
  C499     1.0000 0.72420  0.25200  0.52992  Biso   1.000  C
  H497     1.0000 0.72660  0.26630  0.55010  Biso   1.000  H
  H498     1.0000 0.70180  0.24150  0.53040  Biso   1.000  H
  H499     1.0000 0.69860  0.23500  0.52000  Biso   1.000  H
  C500     1.0000 0.74970  0.37630  0.41940  Biso   1.000  C
  H500     1.0000 0.76190  0.36090  0.43260  Biso   1.000  H
  O201     1.0000 0.87889  0.17075  0.53547  Biso   1.000  O
  O202     1.0000 0.83934  0.20972  0.53522  Biso   1.000  O
  C501     1.0000 0.86558  0.19718  0.54643  Biso   1.000  C
  C502     1.0000 0.88285  0.21431  0.57456  Biso   1.000  C
  C503     1.0000 0.86770  0.24140  0.59160  Biso   1.000  C
  H501     1.0000 0.84780  0.25070  0.58240  Biso   1.000  H
  C504     1.0000 0.77580  0.24800  0.52992  Biso   1.000  C
  H502     1.0000 0.77340  0.23370  0.55010  Biso   1.000  H
  H503     1.0000 0.79820  0.25850  0.53040  Biso   1.000  H
  H504     1.0000 0.80140  0.26500  0.52000  Biso   1.000  H
  C505     1.0000 0.75030  0.12370  0.41940  Biso   1.000  C
  H505     1.0000 0.73810  0.13910  0.43260  Biso   1.000  H
  O203     1.0000 0.87889  0.67075  0.03547  Biso   1.000  O
  O204     1.0000 0.83934  0.70972  0.03522  Biso   1.000  O
  C506     1.0000 0.86558  0.69718  0.04643  Biso   1.000  C
  C507     1.0000 0.88285  0.71431  0.07456  Biso   1.000  C
  C508     1.0000 0.86770  0.74140  0.09160  Biso   1.000  C
  H506     1.0000 0.84780  0.75070  0.08240  Biso   1.000  H
  C509     1.0000 0.77580  0.74800  0.02992  Biso   1.000  C
  H507     1.0000 0.77340  0.73370  0.05010  Biso   1.000  H
  H508     1.0000 0.79820  0.75850  0.03040  Biso   1.000  H
  H509     1.0000 0.80140  0.76500  0.02000  Biso   1.000  H
  C510     1.0000 0.75030  0.62370  0.91940  Biso   1.000  C
  H510     1.0000 0.73810  0.63910  0.93260  Biso   1.000  H
  O205     1.0000 0.37889  0.17075  0.03547  Biso   1.000  O
  O206     1.0000 0.33934  0.20972  0.03522  Biso   1.000  O
  C511     1.0000 0.36558  0.19718  0.04643  Biso   1.000  C
  C512     1.0000 0.38285  0.21431  0.07456  Biso   1.000  C
  C513     1.0000 0.36770  0.24140  0.09160  Biso   1.000  C
  H511     1.0000 0.34780  0.25070  0.08240  Biso   1.000  H
  C514     1.0000 0.27580  0.24800  0.02992  Biso   1.000  C
  H512     1.0000 0.27340  0.23370  0.05010  Biso   1.000  H
  H513     1.0000 0.29820  0.25850  0.03040  Biso   1.000  H
  H514     1.0000 0.30140  0.26500  0.02000  Biso   1.000  H
  C515     1.0000 0.25030  0.12370  0.91940  Biso   1.000  C
  H515     1.0000 0.23810  0.13910  0.93260  Biso   1.000  H
  O207     1.0000 0.37889  0.67075  0.53547  Biso   1.000  O
  O208     1.0000 0.33934  0.70972  0.53522  Biso   1.000  O
  C516     1.0000 0.36558  0.69718  0.54643  Biso   1.000  C
  C517     1.0000 0.38285  0.71431  0.57456  Biso   1.000  C
  C518     1.0000 0.36770  0.74140  0.59160  Biso   1.000  C
  H516     1.0000 0.34780  0.75070  0.58240  Biso   1.000  H
  C519     1.0000 0.27580  0.74800  0.52992  Biso   1.000  C
  H517     1.0000 0.27340  0.73370  0.55010  Biso   1.000  H
  H518     1.0000 0.29820  0.75850  0.53040  Biso   1.000  H
  H519     1.0000 0.30140  0.76500  0.52000  Biso   1.000  H
  C520     1.0000 0.25030  0.62370  0.41940  Biso   1.000  C
  H520     1.0000 0.23810  0.63910  0.43260  Biso   1.000  H
  O209     1.0000 0.87889  0.82925  0.46453  Biso   1.000  O
  O210     1.0000 0.83934  0.79028  0.46478  Biso   1.000  O
  C521     1.0000 0.86558  0.80282  0.45357  Biso   1.000  C
  C522     1.0000 0.88285  0.78569  0.42544  Biso   1.000  C
  C523     1.0000 0.86770  0.75860  0.40840  Biso   1.000  C
  H521     1.0000 0.84780  0.74930  0.41760  Biso   1.000  H
  C524     1.0000 0.77580  0.75200  0.47008  Biso   1.000  C
  H522     1.0000 0.77340  0.76630  0.44990  Biso   1.000  H
  H523     1.0000 0.79820  0.74150  0.46960  Biso   1.000  H
  H524     1.0000 0.80140  0.73500  0.48000  Biso   1.000  H
  C525     1.0000 0.75030  0.87630  0.58060  Biso   1.000  C
  H525     1.0000 0.73810  0.86090  0.56740  Biso   1.000  H
  O211     1.0000 0.87889  0.32925  0.96453  Biso   1.000  O
  O212     1.0000 0.83934  0.29028  0.96478  Biso   1.000  O
  C526     1.0000 0.86558  0.30282  0.95357  Biso   1.000  C
  C527     1.0000 0.88285  0.28569  0.92544  Biso   1.000  C
  C528     1.0000 0.86770  0.25860  0.90840  Biso   1.000  C
  H526     1.0000 0.84780  0.24930  0.91760  Biso   1.000  H
  C529     1.0000 0.77580  0.25200  0.97008  Biso   1.000  C
  H527     1.0000 0.77340  0.26630  0.94990  Biso   1.000  H
  H528     1.0000 0.79820  0.24150  0.96960  Biso   1.000  H
  H529     1.0000 0.80140  0.23500  0.98000  Biso   1.000  H
  C530     1.0000 0.75030  0.37630  0.08060  Biso   1.000  C
  H530     1.0000 0.73810  0.36090  0.06740  Biso   1.000  H
  O213     1.0000 0.37889  0.82925  0.96453  Biso   1.000  O
  O214     1.0000 0.33934  0.79028  0.96478  Biso   1.000  O
  C531     1.0000 0.36558  0.80282  0.95357  Biso   1.000  C
  C532     1.0000 0.38285  0.78569  0.92544  Biso   1.000  C
  C533     1.0000 0.36770  0.75860  0.90840  Biso   1.000  C
  H531     1.0000 0.34780  0.74930  0.91760  Biso   1.000  H
  C534     1.0000 0.27580  0.75200  0.97008  Biso   1.000  C
  H532     1.0000 0.27340  0.76630  0.94990  Biso   1.000  H
  H533     1.0000 0.29820  0.74150  0.96960  Biso   1.000  H
  H534     1.0000 0.30140  0.73500  0.98000  Biso   1.000  H
  C535     1.0000 0.25030  0.87630  0.08060  Biso   1.000  C
  H535     1.0000 0.23810  0.86090  0.06740  Biso   1.000  H
  O215     1.0000 0.37889  0.32925  0.46453  Biso   1.000  O
  O216     1.0000 0.33934  0.29028  0.46478  Biso   1.000  O
  C536     1.0000 0.36558  0.30282  0.45357  Biso   1.000  C
  C537     1.0000 0.38285  0.28569  0.42544  Biso   1.000  C
  C538     1.0000 0.36770  0.25860  0.40840  Biso   1.000  C
  H536     1.0000 0.34780  0.24930  0.41760  Biso   1.000  H
  C539     1.0000 0.27580  0.25200  0.47008  Biso   1.000  C
  H537     1.0000 0.27340  0.26630  0.44990  Biso   1.000  H
  H538     1.0000 0.29820  0.24150  0.46960  Biso   1.000  H
  H539     1.0000 0.30140  0.23500  0.48000  Biso   1.000  H
  C540     1.0000 0.25030  0.37630  0.58060  Biso   1.000  C
  H540     1.0000 0.23810  0.36090  0.56740  Biso   1.000  H
  O217     1.0000 0.12111  0.17075  0.46453  Biso   1.000  O
  O218     1.0000 0.16066  0.20972  0.46478  Biso   1.000  O
  C541     1.0000 0.13442  0.19718  0.45357  Biso   1.000  C
  C542     1.0000 0.11715  0.21431  0.42544  Biso   1.000  C
  C543     1.0000 0.13230  0.24140  0.40840  Biso   1.000  C
  H541     1.0000 0.15220  0.25070  0.41760  Biso   1.000  H
  C544     1.0000 0.22420  0.24800  0.47008  Biso   1.000  C
  H542     1.0000 0.22660  0.23370  0.44990  Biso   1.000  H
  H543     1.0000 0.20180  0.25850  0.46960  Biso   1.000  H
  H544     1.0000 0.19860  0.26500  0.48000  Biso   1.000  H
  C545     1.0000 0.24970  0.12370  0.58060  Biso   1.000  C
  H545     1.0000 0.26190  0.13910  0.56740  Biso   1.000  H
  O219     1.0000 0.12111  0.67075  0.96453  Biso   1.000  O
  O220     1.0000 0.16066  0.70972  0.96478  Biso   1.000  O
  C546     1.0000 0.13442  0.69718  0.95357  Biso   1.000  C
  C547     1.0000 0.11715  0.71431  0.92544  Biso   1.000  C
  C548     1.0000 0.13230  0.74140  0.90840  Biso   1.000  C
  H546     1.0000 0.15220  0.75070  0.91760  Biso   1.000  H
  C549     1.0000 0.22420  0.74800  0.97008  Biso   1.000  C
  H547     1.0000 0.22660  0.73370  0.94990  Biso   1.000  H
  H548     1.0000 0.20180  0.75850  0.96960  Biso   1.000  H
  H549     1.0000 0.19860  0.76500  0.98000  Biso   1.000  H
  C550     1.0000 0.24970  0.62370  0.08060  Biso   1.000  C
  H550     1.0000 0.26190  0.63910  0.06740  Biso   1.000  H
  O221     1.0000 0.62111  0.17075  0.96453  Biso   1.000  O
  O222     1.0000 0.66066  0.20972  0.96478  Biso   1.000  O
  C551     1.0000 0.63442  0.19718  0.95357  Biso   1.000  C
  C552     1.0000 0.61715  0.21431  0.92544  Biso   1.000  C
  C553     1.0000 0.63230  0.24140  0.90840  Biso   1.000  C
  H551     1.0000 0.65220  0.25070  0.91760  Biso   1.000  H
  C554     1.0000 0.72420  0.24800  0.97008  Biso   1.000  C
  H552     1.0000 0.72660  0.23370  0.94990  Biso   1.000  H
  H553     1.0000 0.70180  0.25850  0.96960  Biso   1.000  H
  H554     1.0000 0.69860  0.26500  0.98000  Biso   1.000  H
  C555     1.0000 0.74970  0.12370  0.08060  Biso   1.000  C
  H555     1.0000 0.76190  0.13910  0.06740  Biso   1.000  H
  O223     1.0000 0.62111  0.67075  0.46453  Biso   1.000  O
  O224     1.0000 0.66066  0.70972  0.46478  Biso   1.000  O
  C556     1.0000 0.63442  0.69718  0.45357  Biso   1.000  C
  C557     1.0000 0.61715  0.71431  0.42544  Biso   1.000  C
  C558     1.0000 0.63230  0.74140  0.40840  Biso   1.000  C
  H556     1.0000 0.65220  0.75070  0.41760  Biso   1.000  H
  C559     1.0000 0.72420  0.74800  0.47008  Biso   1.000  C
  H557     1.0000 0.72660  0.73370  0.44990  Biso   1.000  H
  H558     1.0000 0.70180  0.75850  0.46960  Biso   1.000  H
  H559     1.0000 0.69860  0.76500  0.48000  Biso   1.000  H
  C560     1.0000 0.74970  0.62370  0.58060  Biso   1.000  C
  H560     1.0000 0.76190  0.63910  0.56740  Biso   1.000  H
  O225     1.0000 0.53547  0.12111  0.82925  Biso   1.000  O
  O226     1.0000 0.53522  0.16066  0.79028  Biso   1.000  O
  C561     1.0000 0.54643  0.13442  0.80282  Biso   1.000  C
  C562     1.0000 0.57456  0.11715  0.78569  Biso   1.000  C
  C563     1.0000 0.59160  0.13230  0.75860  Biso   1.000  C
  H561     1.0000 0.58240  0.15220  0.74930  Biso   1.000  H
  C564     1.0000 0.52992  0.22420  0.75200  Biso   1.000  C
  H562     1.0000 0.55010  0.22660  0.76630  Biso   1.000  H
  H563     1.0000 0.53040  0.20180  0.74150  Biso   1.000  H
  H564     1.0000 0.52000  0.19860  0.73500  Biso   1.000  H
  C565     1.0000 0.41940  0.24970  0.87630  Biso   1.000  C
  H565     1.0000 0.43260  0.26190  0.86090  Biso   1.000  H
  O227     1.0000 0.53547  0.62111  0.32925  Biso   1.000  O
  O228     1.0000 0.53522  0.66066  0.29028  Biso   1.000  O
  C566     1.0000 0.54643  0.63442  0.30282  Biso   1.000  C
  C567     1.0000 0.57456  0.61715  0.28569  Biso   1.000  C
  C568     1.0000 0.59160  0.63230  0.25860  Biso   1.000  C
  H566     1.0000 0.58240  0.65220  0.24930  Biso   1.000  H
  C569     1.0000 0.52992  0.72420  0.25200  Biso   1.000  C
  H567     1.0000 0.55010  0.72660  0.26630  Biso   1.000  H
  H568     1.0000 0.53040  0.70180  0.24150  Biso   1.000  H
  H569     1.0000 0.52000  0.69860  0.23500  Biso   1.000  H
  C570     1.0000 0.41940  0.74970  0.37630  Biso   1.000  C
  H570     1.0000 0.43260  0.76190  0.36090  Biso   1.000  H
  O229     1.0000 0.03547  0.12111  0.32925  Biso   1.000  O
  O230     1.0000 0.03522  0.16066  0.29028  Biso   1.000  O
  C571     1.0000 0.04643  0.13442  0.30282  Biso   1.000  C
  C572     1.0000 0.07456  0.11715  0.28569  Biso   1.000  C
  C573     1.0000 0.09160  0.13230  0.25860  Biso   1.000  C
  H571     1.0000 0.08240  0.15220  0.24930  Biso   1.000  H
  C574     1.0000 0.02992  0.22420  0.25200  Biso   1.000  C
  H572     1.0000 0.05010  0.22660  0.26630  Biso   1.000  H
  H573     1.0000 0.03040  0.20180  0.24150  Biso   1.000  H
  H574     1.0000 0.02000  0.19860  0.23500  Biso   1.000  H
  C575     1.0000 0.91940  0.24970  0.37630  Biso   1.000  C
  H575     1.0000 0.93260  0.26190  0.36090  Biso   1.000  H
  O231     1.0000 0.03547  0.62111  0.82925  Biso   1.000  O
  O232     1.0000 0.03522  0.66066  0.79028  Biso   1.000  O
  C576     1.0000 0.04643  0.63442  0.80282  Biso   1.000  C
  C577     1.0000 0.07456  0.61715  0.78569  Biso   1.000  C
  C578     1.0000 0.09160  0.63230  0.75860  Biso   1.000  C
  H576     1.0000 0.08240  0.65220  0.74930  Biso   1.000  H
  C579     1.0000 0.02992  0.72420  0.75200  Biso   1.000  C
  H577     1.0000 0.05010  0.72660  0.76630  Biso   1.000  H
  H578     1.0000 0.03040  0.70180  0.74150  Biso   1.000  H
  H579     1.0000 0.02000  0.69860  0.73500  Biso   1.000  H
  C580     1.0000 0.91940  0.74970  0.87630  Biso   1.000  C
  H580     1.0000 0.93260  0.76190  0.86090  Biso   1.000  H
  O233     1.0000 0.53547  0.87889  0.17075  Biso   1.000  O
  O234     1.0000 0.53522  0.83934  0.20972  Biso   1.000  O
  C581     1.0000 0.54643  0.86558  0.19718  Biso   1.000  C
  C582     1.0000 0.57456  0.88285  0.21431  Biso   1.000  C
  C583     1.0000 0.59160  0.86770  0.24140  Biso   1.000  C
  H581     1.0000 0.58240  0.84780  0.25070  Biso   1.000  H
  C584     1.0000 0.52992  0.77580  0.24800  Biso   1.000  C
  H582     1.0000 0.55010  0.77340  0.23370  Biso   1.000  H
  H583     1.0000 0.53040  0.79820  0.25850  Biso   1.000  H
  H584     1.0000 0.52000  0.80140  0.26500  Biso   1.000  H
  C585     1.0000 0.41940  0.75030  0.12370  Biso   1.000  C
  H585     1.0000 0.43260  0.73810  0.13910  Biso   1.000  H
  O235     1.0000 0.53547  0.37889  0.67075  Biso   1.000  O
  O236     1.0000 0.53522  0.33934  0.70972  Biso   1.000  O
  C586     1.0000 0.54643  0.36558  0.69718  Biso   1.000  C
  C587     1.0000 0.57456  0.38285  0.71431  Biso   1.000  C
  C588     1.0000 0.59160  0.36770  0.74140  Biso   1.000  C
  H586     1.0000 0.58240  0.34780  0.75070  Biso   1.000  H
  C589     1.0000 0.52992  0.27580  0.74800  Biso   1.000  C
  H587     1.0000 0.55010  0.27340  0.73370  Biso   1.000  H
  H588     1.0000 0.53040  0.29820  0.75850  Biso   1.000  H
  H589     1.0000 0.52000  0.30140  0.76500  Biso   1.000  H
  C590     1.0000 0.41940  0.25030  0.62370  Biso   1.000  C
  H590     1.0000 0.43260  0.23810  0.63910  Biso   1.000  H
  O237     1.0000 0.03547  0.87889  0.67075  Biso   1.000  O
  O238     1.0000 0.03522  0.83934  0.70972  Biso   1.000  O
  C591     1.0000 0.04643  0.86558  0.69718  Biso   1.000  C
  C592     1.0000 0.07456  0.88285  0.71431  Biso   1.000  C
  C593     1.0000 0.09160  0.86770  0.74140  Biso   1.000  C
  H591     1.0000 0.08240  0.84780  0.75070  Biso   1.000  H
  C594     1.0000 0.02992  0.77580  0.74800  Biso   1.000  C
  H592     1.0000 0.05010  0.77340  0.73370  Biso   1.000  H
  H593     1.0000 0.03040  0.79820  0.75850  Biso   1.000  H
  H594     1.0000 0.02000  0.80140  0.76500  Biso   1.000  H
  C595     1.0000 0.91940  0.75030  0.62370  Biso   1.000  C
  H595     1.0000 0.93260  0.73810  0.63910  Biso   1.000  H
  O239     1.0000 0.03547  0.37889  0.17075  Biso   1.000  O
  O240     1.0000 0.03522  0.33934  0.20972  Biso   1.000  O
  C596     1.0000 0.04643  0.36558  0.19718  Biso   1.000  C
  C597     1.0000 0.07456  0.38285  0.21431  Biso   1.000  C
  C598     1.0000 0.09160  0.36770  0.24140  Biso   1.000  C
  H596     1.0000 0.08240  0.34780  0.25070  Biso   1.000  H
  C599     1.0000 0.02992  0.27580  0.24800  Biso   1.000  C
  H597     1.0000 0.05010  0.27340  0.23370  Biso   1.000  H
  H598     1.0000 0.03040  0.29820  0.25850  Biso   1.000  H
  H599     1.0000 0.02000  0.30140  0.26500  Biso   1.000  H
  C600     1.0000 0.91940  0.25030  0.12370  Biso   1.000  C
  H600     1.0000 0.93260  0.23810  0.13910  Biso   1.000  H
  O241     1.0000 0.46453  0.87889  0.82925  Biso   1.000  O
  O242     1.0000 0.46478  0.83934  0.79028  Biso   1.000  O
  C601     1.0000 0.45357  0.86558  0.80282  Biso   1.000  C
  C602     1.0000 0.42544  0.88285  0.78569  Biso   1.000  C
  C603     1.0000 0.40840  0.86770  0.75860  Biso   1.000  C
  H601     1.0000 0.41760  0.84780  0.74930  Biso   1.000  H
  C604     1.0000 0.47008  0.77580  0.75200  Biso   1.000  C
  H602     1.0000 0.44990  0.77340  0.76630  Biso   1.000  H
  H603     1.0000 0.46960  0.79820  0.74150  Biso   1.000  H
  H604     1.0000 0.48000  0.80140  0.73500  Biso   1.000  H
  C605     1.0000 0.58060  0.75030  0.87630  Biso   1.000  C
  H605     1.0000 0.56740  0.73810  0.86090  Biso   1.000  H
  O243     1.0000 0.46453  0.37889  0.32925  Biso   1.000  O
  O244     1.0000 0.46478  0.33934  0.29028  Biso   1.000  O
  C606     1.0000 0.45357  0.36558  0.30282  Biso   1.000  C
  C607     1.0000 0.42544  0.38285  0.28569  Biso   1.000  C
  C608     1.0000 0.40840  0.36770  0.25860  Biso   1.000  C
  H606     1.0000 0.41760  0.34780  0.24930  Biso   1.000  H
  C609     1.0000 0.47008  0.27580  0.25200  Biso   1.000  C
  H607     1.0000 0.44990  0.27340  0.26630  Biso   1.000  H
  H608     1.0000 0.46960  0.29820  0.24150  Biso   1.000  H
  H609     1.0000 0.48000  0.30140  0.23500  Biso   1.000  H
  C610     1.0000 0.58060  0.25030  0.37630  Biso   1.000  C
  H610     1.0000 0.56740  0.23810  0.36090  Biso   1.000  H
  O245     1.0000 0.96453  0.87889  0.32925  Biso   1.000  O
  O246     1.0000 0.96478  0.83934  0.29028  Biso   1.000  O
  C611     1.0000 0.95357  0.86558  0.30282  Biso   1.000  C
  C612     1.0000 0.92544  0.88285  0.28569  Biso   1.000  C
  C613     1.0000 0.90840  0.86770  0.25860  Biso   1.000  C
  H611     1.0000 0.91760  0.84780  0.24930  Biso   1.000  H
  C614     1.0000 0.97008  0.77580  0.25200  Biso   1.000  C
  H612     1.0000 0.94990  0.77340  0.26630  Biso   1.000  H
  H613     1.0000 0.96960  0.79820  0.24150  Biso   1.000  H
  H614     1.0000 0.98000  0.80140  0.23500  Biso   1.000  H
  C615     1.0000 0.08060  0.75030  0.37630  Biso   1.000  C
  H615     1.0000 0.06740  0.73810  0.36090  Biso   1.000  H
  O247     1.0000 0.96453  0.37889  0.82925  Biso   1.000  O
  O248     1.0000 0.96478  0.33934  0.79028  Biso   1.000  O
  C616     1.0000 0.95357  0.36558  0.80282  Biso   1.000  C
  C617     1.0000 0.92544  0.38285  0.78569  Biso   1.000  C
  C618     1.0000 0.90840  0.36770  0.75860  Biso   1.000  C
  H616     1.0000 0.91760  0.34780  0.74930  Biso   1.000  H
  C619     1.0000 0.97008  0.27580  0.75200  Biso   1.000  C
  H617     1.0000 0.94990  0.27340  0.76630  Biso   1.000  H
  H618     1.0000 0.96960  0.29820  0.74150  Biso   1.000  H
  H619     1.0000 0.98000  0.30140  0.73500  Biso   1.000  H
  C620     1.0000 0.08060  0.25030  0.87630  Biso   1.000  C
  H620     1.0000 0.06740  0.23810  0.86090  Biso   1.000  H
  O249     1.0000 0.46453  0.12111  0.17075  Biso   1.000  O
  O250     1.0000 0.46478  0.16066  0.20972  Biso   1.000  O
  C621     1.0000 0.45357  0.13442  0.19718  Biso   1.000  C
  C622     1.0000 0.42544  0.11715  0.21431  Biso   1.000  C
  C623     1.0000 0.40840  0.13230  0.24140  Biso   1.000  C
  H621     1.0000 0.41760  0.15220  0.25070  Biso   1.000  H
  C624     1.0000 0.47008  0.22420  0.24800  Biso   1.000  C
  H622     1.0000 0.44990  0.22660  0.23370  Biso   1.000  H
  H623     1.0000 0.46960  0.20180  0.25850  Biso   1.000  H
  H624     1.0000 0.48000  0.19860  0.26500  Biso   1.000  H
  C625     1.0000 0.58060  0.24970  0.12370  Biso   1.000  C
  H625     1.0000 0.56740  0.26190  0.13910  Biso   1.000  H
  O251     1.0000 0.46453  0.62111  0.67075  Biso   1.000  O
  O252     1.0000 0.46478  0.66066  0.70972  Biso   1.000  O
  C626     1.0000 0.45357  0.63442  0.69718  Biso   1.000  C
  C627     1.0000 0.42544  0.61715  0.71431  Biso   1.000  C
  C628     1.0000 0.40840  0.63230  0.74140  Biso   1.000  C
  H626     1.0000 0.41760  0.65220  0.75070  Biso   1.000  H
  C629     1.0000 0.47008  0.72420  0.74800  Biso   1.000  C
  H627     1.0000 0.44990  0.72660  0.73370  Biso   1.000  H
  H628     1.0000 0.46960  0.70180  0.75850  Biso   1.000  H
  H629     1.0000 0.48000  0.69860  0.76500  Biso   1.000  H
  C630     1.0000 0.58060  0.74970  0.62370  Biso   1.000  C
  H630     1.0000 0.56740  0.76190  0.63910  Biso   1.000  H
  O253     1.0000 0.96453  0.12111  0.67075  Biso   1.000  O
  O254     1.0000 0.96478  0.16066  0.70972  Biso   1.000  O
  C631     1.0000 0.95357  0.13442  0.69718  Biso   1.000  C
  C632     1.0000 0.92544  0.11715  0.71431  Biso   1.000  C
  C633     1.0000 0.90840  0.13230  0.74140  Biso   1.000  C
  H631     1.0000 0.91760  0.15220  0.75070  Biso   1.000  H
  C634     1.0000 0.97008  0.22420  0.74800  Biso   1.000  C
  H632     1.0000 0.94990  0.22660  0.73370  Biso   1.000  H
  H633     1.0000 0.96960  0.20180  0.75850  Biso   1.000  H
  H634     1.0000 0.98000  0.19860  0.76500  Biso   1.000  H
  C635     1.0000 0.08060  0.24970  0.62370  Biso   1.000  C
  H635     1.0000 0.06740  0.26190  0.63910  Biso   1.000  H
  O255     1.0000 0.96453  0.62111  0.17075  Biso   1.000  O
  O256     1.0000 0.96478  0.66066  0.20972  Biso   1.000  O
  C636     1.0000 0.95357  0.63442  0.19718  Biso   1.000  C
  C637     1.0000 0.92544  0.61715  0.21431  Biso   1.000  C
  C638     1.0000 0.90840  0.63230  0.24140  Biso   1.000  C
  H636     1.0000 0.91760  0.65220  0.25070  Biso   1.000  H
  C639     1.0000 0.97008  0.72420  0.24800  Biso   1.000  C
  H637     1.0000 0.94990  0.72660  0.23370  Biso   1.000  H
  H638     1.0000 0.96960  0.70180  0.25850  Biso   1.000  H
  H639     1.0000 0.98000  0.69860  0.26500  Biso   1.000  H
  C640     1.0000 0.08060  0.74970  0.12370  Biso   1.000  C
  H640     1.0000 0.06740  0.76190  0.13910  Biso   1.000  H
  O257     1.0000 0.82925  0.53547  0.12111  Biso   1.000  O
  O258     1.0000 0.79028  0.53522  0.16066  Biso   1.000  O
  C641     1.0000 0.80282  0.54643  0.13442  Biso   1.000  C
  C642     1.0000 0.78569  0.57456  0.11715  Biso   1.000  C
  C643     1.0000 0.75860  0.59160  0.13230  Biso   1.000  C
  H641     1.0000 0.74930  0.58240  0.15220  Biso   1.000  H
  C644     1.0000 0.75200  0.52992  0.22420  Biso   1.000  C
  H642     1.0000 0.76630  0.55010  0.22660  Biso   1.000  H
  H643     1.0000 0.74150  0.53040  0.20180  Biso   1.000  H
  H644     1.0000 0.73500  0.52000  0.19860  Biso   1.000  H
  C645     1.0000 0.87630  0.41940  0.24970  Biso   1.000  C
  H645     1.0000 0.86090  0.43260  0.26190  Biso   1.000  H
  O259     1.0000 0.82925  0.03547  0.62111  Biso   1.000  O
  O260     1.0000 0.79028  0.03522  0.66066  Biso   1.000  O
  C646     1.0000 0.80282  0.04643  0.63442  Biso   1.000  C
  C647     1.0000 0.78569  0.07456  0.61715  Biso   1.000  C
  C648     1.0000 0.75860  0.09160  0.63230  Biso   1.000  C
  H646     1.0000 0.74930  0.08240  0.65220  Biso   1.000  H
  C649     1.0000 0.75200  0.02992  0.72420  Biso   1.000  C
  H647     1.0000 0.76630  0.05010  0.72660  Biso   1.000  H
  H648     1.0000 0.74150  0.03040  0.70180  Biso   1.000  H
  H649     1.0000 0.73500  0.02000  0.69860  Biso   1.000  H
  C650     1.0000 0.87630  0.91940  0.74970  Biso   1.000  C
  H650     1.0000 0.86090  0.93260  0.76190  Biso   1.000  H
  O261     1.0000 0.32925  0.53547  0.62111  Biso   1.000  O
  O262     1.0000 0.29028  0.53522  0.66066  Biso   1.000  O
  C651     1.0000 0.30282  0.54643  0.63442  Biso   1.000  C
  C652     1.0000 0.28569  0.57456  0.61715  Biso   1.000  C
  C653     1.0000 0.25860  0.59160  0.63230  Biso   1.000  C
  H651     1.0000 0.24930  0.58240  0.65220  Biso   1.000  H
  C654     1.0000 0.25200  0.52992  0.72420  Biso   1.000  C
  H652     1.0000 0.26630  0.55010  0.72660  Biso   1.000  H
  H653     1.0000 0.24150  0.53040  0.70180  Biso   1.000  H
  H654     1.0000 0.23500  0.52000  0.69860  Biso   1.000  H
  C655     1.0000 0.37630  0.41940  0.74970  Biso   1.000  C
  H655     1.0000 0.36090  0.43260  0.76190  Biso   1.000  H
  O263     1.0000 0.32925  0.03547  0.12111  Biso   1.000  O
  O264     1.0000 0.29028  0.03522  0.16066  Biso   1.000  O
  C656     1.0000 0.30282  0.04643  0.13442  Biso   1.000  C
  C657     1.0000 0.28569  0.07456  0.11715  Biso   1.000  C
  C658     1.0000 0.25860  0.09160  0.13230  Biso   1.000  C
  H656     1.0000 0.24930  0.08240  0.15220  Biso   1.000  H
  C659     1.0000 0.25200  0.02992  0.22420  Biso   1.000  C
  H657     1.0000 0.26630  0.05010  0.22660  Biso   1.000  H
  H658     1.0000 0.24150  0.03040  0.20180  Biso   1.000  H
  H659     1.0000 0.23500  0.02000  0.19860  Biso   1.000  H
  C660     1.0000 0.37630  0.91940  0.24970  Biso   1.000  C
  H660     1.0000 0.36090  0.93260  0.26190  Biso   1.000  H
  O265     1.0000 0.17075  0.53547  0.87889  Biso   1.000  O
  O266     1.0000 0.20972  0.53522  0.83934  Biso   1.000  O
  C661     1.0000 0.19718  0.54643  0.86558  Biso   1.000  C
  C662     1.0000 0.21431  0.57456  0.88285  Biso   1.000  C
  C663     1.0000 0.24140  0.59160  0.86770  Biso   1.000  C
  H661     1.0000 0.25070  0.58240  0.84780  Biso   1.000  H
  C664     1.0000 0.24800  0.52992  0.77580  Biso   1.000  C
  H662     1.0000 0.23370  0.55010  0.77340  Biso   1.000  H
  H663     1.0000 0.25850  0.53040  0.79820  Biso   1.000  H
  H664     1.0000 0.26500  0.52000  0.80140  Biso   1.000  H
  C665     1.0000 0.12370  0.41940  0.75030  Biso   1.000  C
  H665     1.0000 0.13910  0.43260  0.73810  Biso   1.000  H
  O267     1.0000 0.17075  0.03547  0.37889  Biso   1.000  O
  O268     1.0000 0.20972  0.03522  0.33934  Biso   1.000  O
  C666     1.0000 0.19718  0.04643  0.36558  Biso   1.000  C
  C667     1.0000 0.21431  0.07456  0.38285  Biso   1.000  C
  C668     1.0000 0.24140  0.09160  0.36770  Biso   1.000  C
  H666     1.0000 0.25070  0.08240  0.34780  Biso   1.000  H
  C669     1.0000 0.24800  0.02992  0.27580  Biso   1.000  C
  H667     1.0000 0.23370  0.05010  0.27340  Biso   1.000  H
  H668     1.0000 0.25850  0.03040  0.29820  Biso   1.000  H
  H669     1.0000 0.26500  0.02000  0.30140  Biso   1.000  H
  C670     1.0000 0.12370  0.91940  0.25030  Biso   1.000  C
  H670     1.0000 0.13910  0.93260  0.23810  Biso   1.000  H
  O269     1.0000 0.67075  0.53547  0.37889  Biso   1.000  O
  O270     1.0000 0.70972  0.53522  0.33934  Biso   1.000  O
  C671     1.0000 0.69718  0.54643  0.36558  Biso   1.000  C
  C672     1.0000 0.71431  0.57456  0.38285  Biso   1.000  C
  C673     1.0000 0.74140  0.59160  0.36770  Biso   1.000  C
  H671     1.0000 0.75070  0.58240  0.34780  Biso   1.000  H
  C674     1.0000 0.74800  0.52992  0.27580  Biso   1.000  C
  H672     1.0000 0.73370  0.55010  0.27340  Biso   1.000  H
  H673     1.0000 0.75850  0.53040  0.29820  Biso   1.000  H
  H674     1.0000 0.76500  0.52000  0.30140  Biso   1.000  H
  C675     1.0000 0.62370  0.41940  0.25030  Biso   1.000  C
  H675     1.0000 0.63910  0.43260  0.23810  Biso   1.000  H
  O271     1.0000 0.67075  0.03547  0.87889  Biso   1.000  O
  O272     1.0000 0.70972  0.03522  0.83934  Biso   1.000  O
  C676     1.0000 0.69718  0.04643  0.86558  Biso   1.000  C
  C677     1.0000 0.71431  0.07456  0.88285  Biso   1.000  C
  C678     1.0000 0.74140  0.09160  0.86770  Biso   1.000  C
  H676     1.0000 0.75070  0.08240  0.84780  Biso   1.000  H
  C679     1.0000 0.74800  0.02992  0.77580  Biso   1.000  C
  H677     1.0000 0.73370  0.05010  0.77340  Biso   1.000  H
  H678     1.0000 0.75850  0.03040  0.79820  Biso   1.000  H
  H679     1.0000 0.76500  0.02000  0.80140  Biso   1.000  H
  C680     1.0000 0.62370  0.91940  0.75030  Biso   1.000  C
  H680     1.0000 0.63910  0.93260  0.73810  Biso   1.000  H
  O273     1.0000 0.82925  0.46453  0.87889  Biso   1.000  O
  O274     1.0000 0.79028  0.46478  0.83934  Biso   1.000  O
  C681     1.0000 0.80282  0.45357  0.86558  Biso   1.000  C
  C682     1.0000 0.78569  0.42544  0.88285  Biso   1.000  C
  C683     1.0000 0.75860  0.40840  0.86770  Biso   1.000  C
  H681     1.0000 0.74930  0.41760  0.84780  Biso   1.000  H
  C684     1.0000 0.75200  0.47008  0.77580  Biso   1.000  C
  H682     1.0000 0.76630  0.44990  0.77340  Biso   1.000  H
  H683     1.0000 0.74150  0.46960  0.79820  Biso   1.000  H
  H684     1.0000 0.73500  0.48000  0.80140  Biso   1.000  H
  C685     1.0000 0.87630  0.58060  0.75030  Biso   1.000  C
  H685     1.0000 0.86090  0.56740  0.73810  Biso   1.000  H
  O275     1.0000 0.82925  0.96453  0.37889  Biso   1.000  O
  O276     1.0000 0.79028  0.96478  0.33934  Biso   1.000  O
  C686     1.0000 0.80282  0.95357  0.36558  Biso   1.000  C
  C687     1.0000 0.78569  0.92544  0.38285  Biso   1.000  C
  C688     1.0000 0.75860  0.90840  0.36770  Biso   1.000  C
  H686     1.0000 0.74930  0.91760  0.34780  Biso   1.000  H
  C689     1.0000 0.75200  0.97008  0.27580  Biso   1.000  C
  H687     1.0000 0.76630  0.94990  0.27340  Biso   1.000  H
  H688     1.0000 0.74150  0.96960  0.29820  Biso   1.000  H
  H689     1.0000 0.73500  0.98000  0.30140  Biso   1.000  H
  C690     1.0000 0.87630  0.08060  0.25030  Biso   1.000  C
  H690     1.0000 0.86090  0.06740  0.23810  Biso   1.000  H
  O277     1.0000 0.32925  0.46453  0.37889  Biso   1.000  O
  O278     1.0000 0.29028  0.46478  0.33934  Biso   1.000  O
  C691     1.0000 0.30282  0.45357  0.36558  Biso   1.000  C
  C692     1.0000 0.28569  0.42544  0.38285  Biso   1.000  C
  C693     1.0000 0.25860  0.40840  0.36770  Biso   1.000  C
  H691     1.0000 0.24930  0.41760  0.34780  Biso   1.000  H
  C694     1.0000 0.25200  0.47008  0.27580  Biso   1.000  C
  H692     1.0000 0.26630  0.44990  0.27340  Biso   1.000  H
  H693     1.0000 0.24150  0.46960  0.29820  Biso   1.000  H
  H694     1.0000 0.23500  0.48000  0.30140  Biso   1.000  H
  C695     1.0000 0.37630  0.58060  0.25030  Biso   1.000  C
  H695     1.0000 0.36090  0.56740  0.23810  Biso   1.000  H
  O279     1.0000 0.32925  0.96453  0.87889  Biso   1.000  O
  O280     1.0000 0.29028  0.96478  0.83934  Biso   1.000  O
  C696     1.0000 0.30282  0.95357  0.86558  Biso   1.000  C
  C697     1.0000 0.28569  0.92544  0.88285  Biso   1.000  C
  C698     1.0000 0.25860  0.90840  0.86770  Biso   1.000  C
  H696     1.0000 0.24930  0.91760  0.84780  Biso   1.000  H
  C699     1.0000 0.25200  0.97008  0.77580  Biso   1.000  C
  H697     1.0000 0.26630  0.94990  0.77340  Biso   1.000  H
  H698     1.0000 0.24150  0.96960  0.79820  Biso   1.000  H
  H699     1.0000 0.23500  0.98000  0.80140  Biso   1.000  H
  C700     1.0000 0.37630  0.08060  0.75030  Biso   1.000  C
  H700     1.0000 0.36090  0.06740  0.73810  Biso   1.000  H
  O281     1.0000 0.17075  0.46453  0.12111  Biso   1.000  O
  O282     1.0000 0.20972  0.46478  0.16066  Biso   1.000  O
  C701     1.0000 0.19718  0.45357  0.13442  Biso   1.000  C
  C702     1.0000 0.21431  0.42544  0.11715  Biso   1.000  C
  C703     1.0000 0.24140  0.40840  0.13230  Biso   1.000  C
  H701     1.0000 0.25070  0.41760  0.15220  Biso   1.000  H
  C704     1.0000 0.24800  0.47008  0.22420  Biso   1.000  C
  H702     1.0000 0.23370  0.44990  0.22660  Biso   1.000  H
  H703     1.0000 0.25850  0.46960  0.20180  Biso   1.000  H
  H704     1.0000 0.26500  0.48000  0.19860  Biso   1.000  H
  C705     1.0000 0.12370  0.58060  0.24970  Biso   1.000  C
  H705     1.0000 0.13910  0.56740  0.26190  Biso   1.000  H
  O283     1.0000 0.17075  0.96453  0.62111  Biso   1.000  O
  O284     1.0000 0.20972  0.96478  0.66066  Biso   1.000  O
  C706     1.0000 0.19718  0.95357  0.63442  Biso   1.000  C
  C707     1.0000 0.21431  0.92544  0.61715  Biso   1.000  C
  C708     1.0000 0.24140  0.90840  0.63230  Biso   1.000  C
  H706     1.0000 0.25070  0.91760  0.65220  Biso   1.000  H
  C709     1.0000 0.24800  0.97008  0.72420  Biso   1.000  C
  H707     1.0000 0.23370  0.94990  0.72660  Biso   1.000  H
  H708     1.0000 0.25850  0.96960  0.70180  Biso   1.000  H
  H709     1.0000 0.26500  0.98000  0.69860  Biso   1.000  H
  C710     1.0000 0.12370  0.08060  0.74970  Biso   1.000  C
  H710     1.0000 0.13910  0.06740  0.76190  Biso   1.000  H
  O285     1.0000 0.67075  0.46453  0.62111  Biso   1.000  O
  O286     1.0000 0.70972  0.46478  0.66066  Biso   1.000  O
  C711     1.0000 0.69718  0.45357  0.63442  Biso   1.000  C
  C712     1.0000 0.71431  0.42544  0.61715  Biso   1.000  C
  C713     1.0000 0.74140  0.40840  0.63230  Biso   1.000  C
  H711     1.0000 0.75070  0.41760  0.65220  Biso   1.000  H
  C714     1.0000 0.74800  0.47008  0.72420  Biso   1.000  C
  H712     1.0000 0.73370  0.44990  0.72660  Biso   1.000  H
  H713     1.0000 0.75850  0.46960  0.70180  Biso   1.000  H
  H714     1.0000 0.76500  0.48000  0.69860  Biso   1.000  H
  C715     1.0000 0.62370  0.58060  0.74970  Biso   1.000  C
  H715     1.0000 0.63910  0.56740  0.76190  Biso   1.000  H
  O287     1.0000 0.67075  0.96453  0.12111  Biso   1.000  O
  O288     1.0000 0.70972  0.96478  0.16066  Biso   1.000  O
  C716     1.0000 0.69718  0.95357  0.13442  Biso   1.000  C
  C717     1.0000 0.71431  0.92544  0.11715  Biso   1.000  C
  C718     1.0000 0.74140  0.90840  0.13230  Biso   1.000  C
  H716     1.0000 0.75070  0.91760  0.15220  Biso   1.000  H
  C719     1.0000 0.74800  0.97008  0.22420  Biso   1.000  C
  H717     1.0000 0.73370  0.94990  0.22660  Biso   1.000  H
  H718     1.0000 0.75850  0.96960  0.20180  Biso   1.000  H
  H719     1.0000 0.76500  0.98000  0.19860  Biso   1.000  H
  C720     1.0000 0.62370  0.08060  0.24970  Biso   1.000  C
  H720     1.0000 0.63910  0.06740  0.26190  Biso   1.000  H
  O289     1.0000 0.82925  0.12111  0.46453  Biso   1.000  O
  O290     1.0000 0.79028  0.16066  0.46478  Biso   1.000  O
  C721     1.0000 0.80282  0.13442  0.45357  Biso   1.000  C
  C722     1.0000 0.78569  0.11715  0.42544  Biso   1.000  C
  C723     1.0000 0.75860  0.13230  0.40840  Biso   1.000  C
  H721     1.0000 0.74930  0.15220  0.41760  Biso   1.000  H
  C724     1.0000 0.75200  0.22420  0.47008  Biso   1.000  C
  H722     1.0000 0.76630  0.22660  0.44990  Biso   1.000  H
  H723     1.0000 0.74150  0.20180  0.46960  Biso   1.000  H
  H724     1.0000 0.73500  0.19860  0.48000  Biso   1.000  H
  C725     1.0000 0.87630  0.24970  0.58060  Biso   1.000  C
  H725     1.0000 0.86090  0.26190  0.56740  Biso   1.000  H
  O291     1.0000 0.82925  0.62111  0.96453  Biso   1.000  O
  O292     1.0000 0.79028  0.66066  0.96478  Biso   1.000  O
  C726     1.0000 0.80282  0.63442  0.95357  Biso   1.000  C
  C727     1.0000 0.78569  0.61715  0.92544  Biso   1.000  C
  C728     1.0000 0.75860  0.63230  0.90840  Biso   1.000  C
  H726     1.0000 0.74930  0.65220  0.91760  Biso   1.000  H
  C729     1.0000 0.75200  0.72420  0.97008  Biso   1.000  C
  H727     1.0000 0.76630  0.72660  0.94990  Biso   1.000  H
  H728     1.0000 0.74150  0.70180  0.96960  Biso   1.000  H
  H729     1.0000 0.73500  0.69860  0.98000  Biso   1.000  H
  C730     1.0000 0.87630  0.74970  0.08060  Biso   1.000  C
  H730     1.0000 0.86090  0.76190  0.06740  Biso   1.000  H
  O293     1.0000 0.32925  0.12111  0.96453  Biso   1.000  O
  O294     1.0000 0.29028  0.16066  0.96478  Biso   1.000  O
  C731     1.0000 0.30282  0.13442  0.95357  Biso   1.000  C
  C732     1.0000 0.28569  0.11715  0.92544  Biso   1.000  C
  C733     1.0000 0.25860  0.13230  0.90840  Biso   1.000  C
  H731     1.0000 0.24930  0.15220  0.91760  Biso   1.000  H
  C734     1.0000 0.25200  0.22420  0.97008  Biso   1.000  C
  H732     1.0000 0.26630  0.22660  0.94990  Biso   1.000  H
  H733     1.0000 0.24150  0.20180  0.96960  Biso   1.000  H
  H734     1.0000 0.23500  0.19860  0.98000  Biso   1.000  H
  C735     1.0000 0.37630  0.24970  0.08060  Biso   1.000  C
  H735     1.0000 0.36090  0.26190  0.06740  Biso   1.000  H
  O295     1.0000 0.32925  0.62111  0.46453  Biso   1.000  O
  O296     1.0000 0.29028  0.66066  0.46478  Biso   1.000  O
  C736     1.0000 0.30282  0.63442  0.45357  Biso   1.000  C
  C737     1.0000 0.28569  0.61715  0.42544  Biso   1.000  C
  C738     1.0000 0.25860  0.63230  0.40840  Biso   1.000  C
  H736     1.0000 0.24930  0.65220  0.41760  Biso   1.000  H
  C739     1.0000 0.25200  0.72420  0.47008  Biso   1.000  C
  H737     1.0000 0.26630  0.72660  0.44990  Biso   1.000  H
  H738     1.0000 0.24150  0.70180  0.46960  Biso   1.000  H
  H739     1.0000 0.23500  0.69860  0.48000  Biso   1.000  H
  C740     1.0000 0.37630  0.74970  0.58060  Biso   1.000  C
  H740     1.0000 0.36090  0.76190  0.56740  Biso   1.000  H
  O297     1.0000 0.17075  0.87889  0.46453  Biso   1.000  O
  O298     1.0000 0.20972  0.83934  0.46478  Biso   1.000  O
  C741     1.0000 0.19718  0.86558  0.45357  Biso   1.000  C
  C742     1.0000 0.21431  0.88285  0.42544  Biso   1.000  C
  C743     1.0000 0.24140  0.86770  0.40840  Biso   1.000  C
  H741     1.0000 0.25070  0.84780  0.41760  Biso   1.000  H
  C744     1.0000 0.24800  0.77580  0.47008  Biso   1.000  C
  H742     1.0000 0.23370  0.77340  0.44990  Biso   1.000  H
  H743     1.0000 0.25850  0.79820  0.46960  Biso   1.000  H
  H744     1.0000 0.26500  0.80140  0.48000  Biso   1.000  H
  C745     1.0000 0.12370  0.75030  0.58060  Biso   1.000  C
  H745     1.0000 0.13910  0.73810  0.56740  Biso   1.000  H
  O299     1.0000 0.17075  0.37889  0.96453  Biso   1.000  O
  O300     1.0000 0.20972  0.33934  0.96478  Biso   1.000  O
  C746     1.0000 0.19718  0.36558  0.95357  Biso   1.000  C
  C747     1.0000 0.21431  0.38285  0.92544  Biso   1.000  C
  C748     1.0000 0.24140  0.36770  0.90840  Biso   1.000  C
  H746     1.0000 0.25070  0.34780  0.91760  Biso   1.000  H
  C749     1.0000 0.24800  0.27580  0.97008  Biso   1.000  C
  H747     1.0000 0.23370  0.27340  0.94990  Biso   1.000  H
  H748     1.0000 0.25850  0.29820  0.96960  Biso   1.000  H
  H749     1.0000 0.26500  0.30140  0.98000  Biso   1.000  H
  C750     1.0000 0.12370  0.25030  0.08060  Biso   1.000  C
  H750     1.0000 0.13910  0.23810  0.06740  Biso   1.000  H
  O301     1.0000 0.67075  0.87889  0.96453  Biso   1.000  O
  O302     1.0000 0.70972  0.83934  0.96478  Biso   1.000  O
  C751     1.0000 0.69718  0.86558  0.95357  Biso   1.000  C
  C752     1.0000 0.71431  0.88285  0.92544  Biso   1.000  C
  C753     1.0000 0.74140  0.86770  0.90840  Biso   1.000  C
  H751     1.0000 0.75070  0.84780  0.91760  Biso   1.000  H
  C754     1.0000 0.74800  0.77580  0.97008  Biso   1.000  C
  H752     1.0000 0.73370  0.77340  0.94990  Biso   1.000  H
  H753     1.0000 0.75850  0.79820  0.96960  Biso   1.000  H
  H754     1.0000 0.76500  0.80140  0.98000  Biso   1.000  H
  C755     1.0000 0.62370  0.75030  0.08060  Biso   1.000  C
  H755     1.0000 0.63910  0.73810  0.06740  Biso   1.000  H
  O303     1.0000 0.67075  0.37889  0.46453  Biso   1.000  O
  O304     1.0000 0.70972  0.33934  0.46478  Biso   1.000  O
  C756     1.0000 0.69718  0.36558  0.45357  Biso   1.000  C
  C757     1.0000 0.71431  0.38285  0.42544  Biso   1.000  C
  C758     1.0000 0.74140  0.36770  0.40840  Biso   1.000  C
  H756     1.0000 0.75070  0.34780  0.41760  Biso   1.000  H
  C759     1.0000 0.74800  0.27580  0.47008  Biso   1.000  C
  H757     1.0000 0.73370  0.27340  0.44990  Biso   1.000  H
  H758     1.0000 0.75850  0.29820  0.46960  Biso   1.000  H
  H759     1.0000 0.76500  0.30140  0.48000  Biso   1.000  H
  C760     1.0000 0.62370  0.25030  0.58060  Biso   1.000  C
  H760     1.0000 0.63910  0.23810  0.56740  Biso   1.000  H
  O305     1.0000 0.82925  0.87889  0.53547  Biso   1.000  O
  O306     1.0000 0.79028  0.83934  0.53522  Biso   1.000  O
  C761     1.0000 0.80282  0.86558  0.54643  Biso   1.000  C
  C762     1.0000 0.78569  0.88285  0.57456  Biso   1.000  C
  C763     1.0000 0.75860  0.86770  0.59160  Biso   1.000  C
  H761     1.0000 0.74930  0.84780  0.58240  Biso   1.000  H
  C764     1.0000 0.75200  0.77580  0.52992  Biso   1.000  C
  H762     1.0000 0.76630  0.77340  0.55010  Biso   1.000  H
  H763     1.0000 0.74150  0.79820  0.53040  Biso   1.000  H
  H764     1.0000 0.73500  0.80140  0.52000  Biso   1.000  H
  C765     1.0000 0.87630  0.75030  0.41940  Biso   1.000  C
  H765     1.0000 0.86090  0.73810  0.43260  Biso   1.000  H
  O307     1.0000 0.82925  0.37889  0.03547  Biso   1.000  O
  O308     1.0000 0.79028  0.33934  0.03522  Biso   1.000  O
  C766     1.0000 0.80282  0.36558  0.04643  Biso   1.000  C
  C767     1.0000 0.78569  0.38285  0.07456  Biso   1.000  C
  C768     1.0000 0.75860  0.36770  0.09160  Biso   1.000  C
  H766     1.0000 0.74930  0.34780  0.08240  Biso   1.000  H
  C769     1.0000 0.75200  0.27580  0.02992  Biso   1.000  C
  H767     1.0000 0.76630  0.27340  0.05010  Biso   1.000  H
  H768     1.0000 0.74150  0.29820  0.03040  Biso   1.000  H
  H769     1.0000 0.73500  0.30140  0.02000  Biso   1.000  H
  C770     1.0000 0.87630  0.25030  0.91940  Biso   1.000  C
  H770     1.0000 0.86090  0.23810  0.93260  Biso   1.000  H
  O309     1.0000 0.32925  0.87889  0.03547  Biso   1.000  O
  O310     1.0000 0.29028  0.83934  0.03522  Biso   1.000  O
  C771     1.0000 0.30282  0.86558  0.04643  Biso   1.000  C
  C772     1.0000 0.28569  0.88285  0.07456  Biso   1.000  C
  C773     1.0000 0.25860  0.86770  0.09160  Biso   1.000  C
  H771     1.0000 0.24930  0.84780  0.08240  Biso   1.000  H
  C774     1.0000 0.25200  0.77580  0.02992  Biso   1.000  C
  H772     1.0000 0.26630  0.77340  0.05010  Biso   1.000  H
  H773     1.0000 0.24150  0.79820  0.03040  Biso   1.000  H
  H774     1.0000 0.23500  0.80140  0.02000  Biso   1.000  H
  C775     1.0000 0.37630  0.75030  0.91940  Biso   1.000  C
  H775     1.0000 0.36090  0.73810  0.93260  Biso   1.000  H
  O311     1.0000 0.32925  0.37889  0.53547  Biso   1.000  O
  O312     1.0000 0.29028  0.33934  0.53522  Biso   1.000  O
  C776     1.0000 0.30282  0.36558  0.54643  Biso   1.000  C
  C777     1.0000 0.28569  0.38285  0.57456  Biso   1.000  C
  C778     1.0000 0.25860  0.36770  0.59160  Biso   1.000  C
  H776     1.0000 0.24930  0.34780  0.58240  Biso   1.000  H
  C779     1.0000 0.25200  0.27580  0.52992  Biso   1.000  C
  H777     1.0000 0.26630  0.27340  0.55010  Biso   1.000  H
  H778     1.0000 0.24150  0.29820  0.53040  Biso   1.000  H
  H779     1.0000 0.23500  0.30140  0.52000  Biso   1.000  H
  C780     1.0000 0.37630  0.25030  0.41940  Biso   1.000  C
  H780     1.0000 0.36090  0.23810  0.43260  Biso   1.000  H
  O313     1.0000 0.17075  0.12111  0.53547  Biso   1.000  O
  O314     1.0000 0.20972  0.16066  0.53522  Biso   1.000  O
  C781     1.0000 0.19718  0.13442  0.54643  Biso   1.000  C
  C782     1.0000 0.21431  0.11715  0.57456  Biso   1.000  C
  C783     1.0000 0.24140  0.13230  0.59160  Biso   1.000  C
  H781     1.0000 0.25070  0.15220  0.58240  Biso   1.000  H
  C784     1.0000 0.24800  0.22420  0.52992  Biso   1.000  C
  H782     1.0000 0.23370  0.22660  0.55010  Biso   1.000  H
  H783     1.0000 0.25850  0.20180  0.53040  Biso   1.000  H
  H784     1.0000 0.26500  0.19860  0.52000  Biso   1.000  H
  C785     1.0000 0.12370  0.24970  0.41940  Biso   1.000  C
  H785     1.0000 0.13910  0.26190  0.43260  Biso   1.000  H
  O315     1.0000 0.17075  0.62111  0.03547  Biso   1.000  O
  O316     1.0000 0.20972  0.66066  0.03522  Biso   1.000  O
  C786     1.0000 0.19718  0.63442  0.04643  Biso   1.000  C
  C787     1.0000 0.21431  0.61715  0.07456  Biso   1.000  C
  C788     1.0000 0.24140  0.63230  0.09160  Biso   1.000  C
  H786     1.0000 0.25070  0.65220  0.08240  Biso   1.000  H
  C789     1.0000 0.24800  0.72420  0.02992  Biso   1.000  C
  H787     1.0000 0.23370  0.72660  0.05010  Biso   1.000  H
  H788     1.0000 0.25850  0.70180  0.03040  Biso   1.000  H
  H789     1.0000 0.26500  0.69860  0.02000  Biso   1.000  H
  C790     1.0000 0.12370  0.74970  0.91940  Biso   1.000  C
  H790     1.0000 0.13910  0.76190  0.93260  Biso   1.000  H
  O317     1.0000 0.67075  0.12111  0.03547  Biso   1.000  O
  O318     1.0000 0.70972  0.16066  0.03522  Biso   1.000  O
  C791     1.0000 0.69718  0.13442  0.04643  Biso   1.000  C
  C792     1.0000 0.71431  0.11715  0.07456  Biso   1.000  C
  C793     1.0000 0.74140  0.13230  0.09160  Biso   1.000  C
  H791     1.0000 0.75070  0.15220  0.08240  Biso   1.000  H
  C794     1.0000 0.74800  0.22420  0.02992  Biso   1.000  C
  H792     1.0000 0.73370  0.22660  0.05010  Biso   1.000  H
  H793     1.0000 0.75850  0.20180  0.03040  Biso   1.000  H
  H794     1.0000 0.76500  0.19860  0.02000  Biso   1.000  H
  C795     1.0000 0.62370  0.24970  0.91940  Biso   1.000  C
  H795     1.0000 0.63910  0.26190  0.93260  Biso   1.000  H
  O319     1.0000 0.67075  0.62111  0.53547  Biso   1.000  O
  O320     1.0000 0.70972  0.66066  0.53522  Biso   1.000  O
  C796     1.0000 0.69718  0.63442  0.54643  Biso   1.000  C
  C797     1.0000 0.71431  0.61715  0.57456  Biso   1.000  C
  C798     1.0000 0.74140  0.63230  0.59160  Biso   1.000  C
  H796     1.0000 0.75070  0.65220  0.58240  Biso   1.000  H
  C799     1.0000 0.74800  0.72420  0.52992  Biso   1.000  C
  H797     1.0000 0.73370  0.72660  0.55010  Biso   1.000  H
  H798     1.0000 0.75850  0.70180  0.53040  Biso   1.000  H
  H799     1.0000 0.76500  0.69860  0.52000  Biso   1.000  H
  C800     1.0000 0.62370  0.74970  0.41940  Biso   1.000  C
  H800     1.0000 0.63910  0.76190  0.43260  Biso   1.000  H
  O321     1.0000 0.12111  0.53547  0.17075  Biso   1.000  O
  O322     1.0000 0.16066  0.53522  0.20972  Biso   1.000  O
  C801     1.0000 0.13442  0.54643  0.19718  Biso   1.000  C
  C802     1.0000 0.11715  0.57456  0.21431  Biso   1.000  C
  C803     1.0000 0.13230  0.59160  0.24140  Biso   1.000  C
  H801     1.0000 0.15220  0.58240  0.25070  Biso   1.000  H
  C804     1.0000 0.22420  0.52992  0.24800  Biso   1.000  C
  H802     1.0000 0.22660  0.55010  0.23370  Biso   1.000  H
  H803     1.0000 0.20180  0.53040  0.25850  Biso   1.000  H
  H804     1.0000 0.19860  0.52000  0.26500  Biso   1.000  H
  C805     1.0000 0.24970  0.41940  0.12370  Biso   1.000  C
  H805     1.0000 0.26190  0.43260  0.13910  Biso   1.000  H
  O323     1.0000 0.12111  0.03547  0.67075  Biso   1.000  O
  O324     1.0000 0.16066  0.03522  0.70972  Biso   1.000  O
  C806     1.0000 0.13442  0.04643  0.69718  Biso   1.000  C
  C807     1.0000 0.11715  0.07456  0.71431  Biso   1.000  C
  C808     1.0000 0.13230  0.09160  0.74140  Biso   1.000  C
  H806     1.0000 0.15220  0.08240  0.75070  Biso   1.000  H
  C809     1.0000 0.22420  0.02992  0.74800  Biso   1.000  C
  H807     1.0000 0.22660  0.05010  0.73370  Biso   1.000  H
  H808     1.0000 0.20180  0.03040  0.75850  Biso   1.000  H
  H809     1.0000 0.19860  0.02000  0.76500  Biso   1.000  H
  C810     1.0000 0.24970  0.91940  0.62370  Biso   1.000  C
  H810     1.0000 0.26190  0.93260  0.63910  Biso   1.000  H
  O325     1.0000 0.62111  0.53547  0.67075  Biso   1.000  O
  O326     1.0000 0.66066  0.53522  0.70972  Biso   1.000  O
  C811     1.0000 0.63442  0.54643  0.69718  Biso   1.000  C
  C812     1.0000 0.61715  0.57456  0.71431  Biso   1.000  C
  C813     1.0000 0.63230  0.59160  0.74140  Biso   1.000  C
  H811     1.0000 0.65220  0.58240  0.75070  Biso   1.000  H
  C814     1.0000 0.72420  0.52992  0.74800  Biso   1.000  C
  H812     1.0000 0.72660  0.55010  0.73370  Biso   1.000  H
  H813     1.0000 0.70180  0.53040  0.75850  Biso   1.000  H
  H814     1.0000 0.69860  0.52000  0.76500  Biso   1.000  H
  C815     1.0000 0.74970  0.41940  0.62370  Biso   1.000  C
  H815     1.0000 0.76190  0.43260  0.63910  Biso   1.000  H
  O327     1.0000 0.62111  0.03547  0.17075  Biso   1.000  O
  O328     1.0000 0.66066  0.03522  0.20972  Biso   1.000  O
  C816     1.0000 0.63442  0.04643  0.19718  Biso   1.000  C
  C817     1.0000 0.61715  0.07456  0.21431  Biso   1.000  C
  C818     1.0000 0.63230  0.09160  0.24140  Biso   1.000  C
  H816     1.0000 0.65220  0.08240  0.25070  Biso   1.000  H
  C819     1.0000 0.72420  0.02992  0.24800  Biso   1.000  C
  H817     1.0000 0.72660  0.05010  0.23370  Biso   1.000  H
  H818     1.0000 0.70180  0.03040  0.25850  Biso   1.000  H
  H819     1.0000 0.69860  0.02000  0.26500  Biso   1.000  H
  C820     1.0000 0.74970  0.91940  0.12370  Biso   1.000  C
  H820     1.0000 0.76190  0.93260  0.13910  Biso   1.000  H
  O329     1.0000 0.87889  0.53547  0.82925  Biso   1.000  O
  O330     1.0000 0.83934  0.53522  0.79028  Biso   1.000  O
  C821     1.0000 0.86558  0.54643  0.80282  Biso   1.000  C
  C822     1.0000 0.88285  0.57456  0.78569  Biso   1.000  C
  C823     1.0000 0.86770  0.59160  0.75860  Biso   1.000  C
  H821     1.0000 0.84780  0.58240  0.74930  Biso   1.000  H
  C824     1.0000 0.77580  0.52992  0.75200  Biso   1.000  C
  H822     1.0000 0.77340  0.55010  0.76630  Biso   1.000  H
  H823     1.0000 0.79820  0.53040  0.74150  Biso   1.000  H
  H824     1.0000 0.80140  0.52000  0.73500  Biso   1.000  H
  C825     1.0000 0.75030  0.41940  0.87630  Biso   1.000  C
  H825     1.0000 0.73810  0.43260  0.86090  Biso   1.000  H
  O331     1.0000 0.87889  0.03547  0.32925  Biso   1.000  O
  O332     1.0000 0.83934  0.03522  0.29028  Biso   1.000  O
  C826     1.0000 0.86558  0.04643  0.30282  Biso   1.000  C
  C827     1.0000 0.88285  0.07456  0.28569  Biso   1.000  C
  C828     1.0000 0.86770  0.09160  0.25860  Biso   1.000  C
  H826     1.0000 0.84780  0.08240  0.24930  Biso   1.000  H
  C829     1.0000 0.77580  0.02992  0.25200  Biso   1.000  C
  H827     1.0000 0.77340  0.05010  0.26630  Biso   1.000  H
  H828     1.0000 0.79820  0.03040  0.24150  Biso   1.000  H
  H829     1.0000 0.80140  0.02000  0.23500  Biso   1.000  H
  C830     1.0000 0.75030  0.91940  0.37630  Biso   1.000  C
  H830     1.0000 0.73810  0.93260  0.36090  Biso   1.000  H
  O333     1.0000 0.37889  0.53547  0.32925  Biso   1.000  O
  O334     1.0000 0.33934  0.53522  0.29028  Biso   1.000  O
  C831     1.0000 0.36558  0.54643  0.30282  Biso   1.000  C
  C832     1.0000 0.38285  0.57456  0.28569  Biso   1.000  C
  C833     1.0000 0.36770  0.59160  0.25860  Biso   1.000  C
  H831     1.0000 0.34780  0.58240  0.24930  Biso   1.000  H
  C834     1.0000 0.27580  0.52992  0.25200  Biso   1.000  C
  H832     1.0000 0.27340  0.55010  0.26630  Biso   1.000  H
  H833     1.0000 0.29820  0.53040  0.24150  Biso   1.000  H
  H834     1.0000 0.30140  0.52000  0.23500  Biso   1.000  H
  C835     1.0000 0.25030  0.41940  0.37630  Biso   1.000  C
  H835     1.0000 0.23810  0.43260  0.36090  Biso   1.000  H
  O335     1.0000 0.37889  0.03547  0.82925  Biso   1.000  O
  O336     1.0000 0.33934  0.03522  0.79028  Biso   1.000  O
  C836     1.0000 0.36558  0.04643  0.80282  Biso   1.000  C
  C837     1.0000 0.38285  0.07456  0.78569  Biso   1.000  C
  C838     1.0000 0.36770  0.09160  0.75860  Biso   1.000  C
  H836     1.0000 0.34780  0.08240  0.74930  Biso   1.000  H
  C839     1.0000 0.27580  0.02992  0.75200  Biso   1.000  C
  H837     1.0000 0.27340  0.05010  0.76630  Biso   1.000  H
  H838     1.0000 0.29820  0.03040  0.74150  Biso   1.000  H
  H839     1.0000 0.30140  0.02000  0.73500  Biso   1.000  H
  C840     1.0000 0.25030  0.91940  0.87630  Biso   1.000  C
  H840     1.0000 0.23810  0.93260  0.86090  Biso   1.000  H
  O337     1.0000 0.87889  0.46453  0.17075  Biso   1.000  O
  O338     1.0000 0.83934  0.46478  0.20972  Biso   1.000  O
  C841     1.0000 0.86558  0.45357  0.19718  Biso   1.000  C
  C842     1.0000 0.88285  0.42544  0.21431  Biso   1.000  C
  C843     1.0000 0.86770  0.40840  0.24140  Biso   1.000  C
  H841     1.0000 0.84780  0.41760  0.25070  Biso   1.000  H
  C844     1.0000 0.77580  0.47008  0.24800  Biso   1.000  C
  H842     1.0000 0.77340  0.44990  0.23370  Biso   1.000  H
  H843     1.0000 0.79820  0.46960  0.25850  Biso   1.000  H
  H844     1.0000 0.80140  0.48000  0.26500  Biso   1.000  H
  C845     1.0000 0.75030  0.58060  0.12370  Biso   1.000  C
  H845     1.0000 0.73810  0.56740  0.13910  Biso   1.000  H
  O339     1.0000 0.87889  0.96453  0.67075  Biso   1.000  O
  O340     1.0000 0.83934  0.96478  0.70972  Biso   1.000  O
  C846     1.0000 0.86558  0.95357  0.69718  Biso   1.000  C
  C847     1.0000 0.88285  0.92544  0.71431  Biso   1.000  C
  C848     1.0000 0.86770  0.90840  0.74140  Biso   1.000  C
  H846     1.0000 0.84780  0.91760  0.75070  Biso   1.000  H
  C849     1.0000 0.77580  0.97008  0.74800  Biso   1.000  C
  H847     1.0000 0.77340  0.94990  0.73370  Biso   1.000  H
  H848     1.0000 0.79820  0.96960  0.75850  Biso   1.000  H
  H849     1.0000 0.80140  0.98000  0.76500  Biso   1.000  H
  C850     1.0000 0.75030  0.08060  0.62370  Biso   1.000  C
  H850     1.0000 0.73810  0.06740  0.63910  Biso   1.000  H
  O341     1.0000 0.37889  0.46453  0.67075  Biso   1.000  O
  O342     1.0000 0.33934  0.46478  0.70972  Biso   1.000  O
  C851     1.0000 0.36558  0.45357  0.69718  Biso   1.000  C
  C852     1.0000 0.38285  0.42544  0.71431  Biso   1.000  C
  C853     1.0000 0.36770  0.40840  0.74140  Biso   1.000  C
  H851     1.0000 0.34780  0.41760  0.75070  Biso   1.000  H
  C854     1.0000 0.27580  0.47008  0.74800  Biso   1.000  C
  H852     1.0000 0.27340  0.44990  0.73370  Biso   1.000  H
  H853     1.0000 0.29820  0.46960  0.75850  Biso   1.000  H
  H854     1.0000 0.30140  0.48000  0.76500  Biso   1.000  H
  C855     1.0000 0.25030  0.58060  0.62370  Biso   1.000  C
  H855     1.0000 0.23810  0.56740  0.63910  Biso   1.000  H
  O343     1.0000 0.37889  0.96453  0.17075  Biso   1.000  O
  O344     1.0000 0.33934  0.96478  0.20972  Biso   1.000  O
  C856     1.0000 0.36558  0.95357  0.19718  Biso   1.000  C
  C857     1.0000 0.38285  0.92544  0.21431  Biso   1.000  C
  C858     1.0000 0.36770  0.90840  0.24140  Biso   1.000  C
  H856     1.0000 0.34780  0.91760  0.25070  Biso   1.000  H
  C859     1.0000 0.27580  0.97008  0.24800  Biso   1.000  C
  H857     1.0000 0.27340  0.94990  0.23370  Biso   1.000  H
  H858     1.0000 0.29820  0.96960  0.25850  Biso   1.000  H
  H859     1.0000 0.30140  0.98000  0.26500  Biso   1.000  H
  C860     1.0000 0.25030  0.08060  0.12370  Biso   1.000  C
  H860     1.0000 0.23810  0.06740  0.13910  Biso   1.000  H
  O345     1.0000 0.12111  0.46453  0.82925  Biso   1.000  O
  O346     1.0000 0.16066  0.46478  0.79028  Biso   1.000  O
  C861     1.0000 0.13442  0.45357  0.80282  Biso   1.000  C
  C862     1.0000 0.11715  0.42544  0.78569  Biso   1.000  C
  C863     1.0000 0.13230  0.40840  0.75860  Biso   1.000  C
  H861     1.0000 0.15220  0.41760  0.74930  Biso   1.000  H
  C864     1.0000 0.22420  0.47008  0.75200  Biso   1.000  C
  H862     1.0000 0.22660  0.44990  0.76630  Biso   1.000  H
  H863     1.0000 0.20180  0.46960  0.74150  Biso   1.000  H
  H864     1.0000 0.19860  0.48000  0.73500  Biso   1.000  H
  C865     1.0000 0.24970  0.58060  0.87630  Biso   1.000  C
  H865     1.0000 0.26190  0.56740  0.86090  Biso   1.000  H
  O347     1.0000 0.12111  0.96453  0.32925  Biso   1.000  O
  O348     1.0000 0.16066  0.96478  0.29028  Biso   1.000  O
  C866     1.0000 0.13442  0.95357  0.30282  Biso   1.000  C
  C867     1.0000 0.11715  0.92544  0.28569  Biso   1.000  C
  C868     1.0000 0.13230  0.90840  0.25860  Biso   1.000  C
  H866     1.0000 0.15220  0.91760  0.24930  Biso   1.000  H
  C869     1.0000 0.22420  0.97008  0.25200  Biso   1.000  C
  H867     1.0000 0.22660  0.94990  0.26630  Biso   1.000  H
  H868     1.0000 0.20180  0.96960  0.24150  Biso   1.000  H
  H869     1.0000 0.19860  0.98000  0.23500  Biso   1.000  H
  C870     1.0000 0.24970  0.08060  0.37630  Biso   1.000  C
  H870     1.0000 0.26190  0.06740  0.36090  Biso   1.000  H
  O349     1.0000 0.62111  0.46453  0.32925  Biso   1.000  O
  O350     1.0000 0.66066  0.46478  0.29028  Biso   1.000  O
  C871     1.0000 0.63442  0.45357  0.30282  Biso   1.000  C
  C872     1.0000 0.61715  0.42544  0.28569  Biso   1.000  C
  C873     1.0000 0.63230  0.40840  0.25860  Biso   1.000  C
  H871     1.0000 0.65220  0.41760  0.24930  Biso   1.000  H
  C874     1.0000 0.72420  0.47008  0.25200  Biso   1.000  C
  H872     1.0000 0.72660  0.44990  0.26630  Biso   1.000  H
  H873     1.0000 0.70180  0.46960  0.24150  Biso   1.000  H
  H874     1.0000 0.69860  0.48000  0.23500  Biso   1.000  H
  C875     1.0000 0.74970  0.58060  0.37630  Biso   1.000  C
  H875     1.0000 0.76190  0.56740  0.36090  Biso   1.000  H
  O351     1.0000 0.62111  0.96453  0.82925  Biso   1.000  O
  O352     1.0000 0.66066  0.96478  0.79028  Biso   1.000  O
  C876     1.0000 0.63442  0.95357  0.80282  Biso   1.000  C
  C877     1.0000 0.61715  0.92544  0.78569  Biso   1.000  C
  C878     1.0000 0.63230  0.90840  0.75860  Biso   1.000  C
  H876     1.0000 0.65220  0.91760  0.74930  Biso   1.000  H
  C879     1.0000 0.72420  0.97008  0.75200  Biso   1.000  C
  H877     1.0000 0.72660  0.94990  0.76630  Biso   1.000  H
  H878     1.0000 0.70180  0.96960  0.74150  Biso   1.000  H
  H879     1.0000 0.69860  0.98000  0.73500  Biso   1.000  H
  C880     1.0000 0.74970  0.08060  0.87630  Biso   1.000  C
  H880     1.0000 0.76190  0.06740  0.86090  Biso   1.000  H
  O353     1.0000 0.53547  0.82925  0.87889  Biso   1.000  O
  O354     1.0000 0.53522  0.79028  0.83934  Biso   1.000  O
  C881     1.0000 0.54643  0.80282  0.86558  Biso   1.000  C
  C882     1.0000 0.57456  0.78569  0.88285  Biso   1.000  C
  C883     1.0000 0.59160  0.75860  0.86770  Biso   1.000  C
  H881     1.0000 0.58240  0.74930  0.84780  Biso   1.000  H
  C884     1.0000 0.52992  0.75200  0.77580  Biso   1.000  C
  H882     1.0000 0.55010  0.76630  0.77340  Biso   1.000  H
  H883     1.0000 0.53040  0.74150  0.79820  Biso   1.000  H
  H884     1.0000 0.52000  0.73500  0.80140  Biso   1.000  H
  C885     1.0000 0.41940  0.87630  0.75030  Biso   1.000  C
  H885     1.0000 0.43260  0.86090  0.73810  Biso   1.000  H
  O355     1.0000 0.53547  0.32925  0.37889  Biso   1.000  O
  O356     1.0000 0.53522  0.29028  0.33934  Biso   1.000  O
  C886     1.0000 0.54643  0.30282  0.36558  Biso   1.000  C
  C887     1.0000 0.57456  0.28569  0.38285  Biso   1.000  C
  C888     1.0000 0.59160  0.25860  0.36770  Biso   1.000  C
  H886     1.0000 0.58240  0.24930  0.34780  Biso   1.000  H
  C889     1.0000 0.52992  0.25200  0.27580  Biso   1.000  C
  H887     1.0000 0.55010  0.26630  0.27340  Biso   1.000  H
  H888     1.0000 0.53040  0.24150  0.29820  Biso   1.000  H
  H889     1.0000 0.52000  0.23500  0.30140  Biso   1.000  H
  C890     1.0000 0.41940  0.37630  0.25030  Biso   1.000  C
  H890     1.0000 0.43260  0.36090  0.23810  Biso   1.000  H
  O357     1.0000 0.03547  0.82925  0.37889  Biso   1.000  O
  O358     1.0000 0.03522  0.79028  0.33934  Biso   1.000  O
  C891     1.0000 0.04643  0.80282  0.36558  Biso   1.000  C
  C892     1.0000 0.07456  0.78569  0.38285  Biso   1.000  C
  C893     1.0000 0.09160  0.75860  0.36770  Biso   1.000  C
  H891     1.0000 0.08240  0.74930  0.34780  Biso   1.000  H
  C894     1.0000 0.02992  0.75200  0.27580  Biso   1.000  C
  H892     1.0000 0.05010  0.76630  0.27340  Biso   1.000  H
  H893     1.0000 0.03040  0.74150  0.29820  Biso   1.000  H
  H894     1.0000 0.02000  0.73500  0.30140  Biso   1.000  H
  C895     1.0000 0.91940  0.87630  0.25030  Biso   1.000  C
  H895     1.0000 0.93260  0.86090  0.23810  Biso   1.000  H
  O359     1.0000 0.03547  0.32925  0.87889  Biso   1.000  O
  O360     1.0000 0.03522  0.29028  0.83934  Biso   1.000  O
  C896     1.0000 0.04643  0.30282  0.86558  Biso   1.000  C
  C897     1.0000 0.07456  0.28569  0.88285  Biso   1.000  C
  C898     1.0000 0.09160  0.25860  0.86770  Biso   1.000  C
  H896     1.0000 0.08240  0.24930  0.84780  Biso   1.000  H
  C899     1.0000 0.02992  0.25200  0.77580  Biso   1.000  C
  H897     1.0000 0.05010  0.26630  0.77340  Biso   1.000  H
  H898     1.0000 0.03040  0.24150  0.79820  Biso   1.000  H
  H899     1.0000 0.02000  0.23500  0.80140  Biso   1.000  H
  C900     1.0000 0.91940  0.37630  0.75030  Biso   1.000  C
  H900     1.0000 0.93260  0.36090  0.73810  Biso   1.000  H
  O361     1.0000 0.53547  0.17075  0.12111  Biso   1.000  O
  O362     1.0000 0.53522  0.20972  0.16066  Biso   1.000  O
  C901     1.0000 0.54643  0.19718  0.13442  Biso   1.000  C
  C902     1.0000 0.57456  0.21431  0.11715  Biso   1.000  C
  C903     1.0000 0.59160  0.24140  0.13230  Biso   1.000  C
  H901     1.0000 0.58240  0.25070  0.15220  Biso   1.000  H
  C904     1.0000 0.52992  0.24800  0.22420  Biso   1.000  C
  H902     1.0000 0.55010  0.23370  0.22660  Biso   1.000  H
  H903     1.0000 0.53040  0.25850  0.20180  Biso   1.000  H
  H904     1.0000 0.52000  0.26500  0.19860  Biso   1.000  H
  C905     1.0000 0.41940  0.12370  0.24970  Biso   1.000  C
  H905     1.0000 0.43260  0.13910  0.26190  Biso   1.000  H
  O363     1.0000 0.53547  0.67075  0.62111  Biso   1.000  O
  O364     1.0000 0.53522  0.70972  0.66066  Biso   1.000  O
  C906     1.0000 0.54643  0.69718  0.63442  Biso   1.000  C
  C907     1.0000 0.57456  0.71431  0.61715  Biso   1.000  C
  C908     1.0000 0.59160  0.74140  0.63230  Biso   1.000  C
  H906     1.0000 0.58240  0.75070  0.65220  Biso   1.000  H
  C909     1.0000 0.52992  0.74800  0.72420  Biso   1.000  C
  H907     1.0000 0.55010  0.73370  0.72660  Biso   1.000  H
  H908     1.0000 0.53040  0.75850  0.70180  Biso   1.000  H
  H909     1.0000 0.52000  0.76500  0.69860  Biso   1.000  H
  C910     1.0000 0.41940  0.62370  0.74970  Biso   1.000  C
  H910     1.0000 0.43260  0.63910  0.76190  Biso   1.000  H
  O365     1.0000 0.03547  0.17075  0.62111  Biso   1.000  O
  O366     1.0000 0.03522  0.20972  0.66066  Biso   1.000  O
  C911     1.0000 0.04643  0.19718  0.63442  Biso   1.000  C
  C912     1.0000 0.07456  0.21431  0.61715  Biso   1.000  C
  C913     1.0000 0.09160  0.24140  0.63230  Biso   1.000  C
  H911     1.0000 0.08240  0.25070  0.65220  Biso   1.000  H
  C914     1.0000 0.02992  0.24800  0.72420  Biso   1.000  C
  H912     1.0000 0.05010  0.23370  0.72660  Biso   1.000  H
  H913     1.0000 0.03040  0.25850  0.70180  Biso   1.000  H
  H914     1.0000 0.02000  0.26500  0.69860  Biso   1.000  H
  C915     1.0000 0.91940  0.12370  0.74970  Biso   1.000  C
  H915     1.0000 0.93260  0.13910  0.76190  Biso   1.000  H
  O367     1.0000 0.03547  0.67075  0.12111  Biso   1.000  O
  O368     1.0000 0.03522  0.70972  0.16066  Biso   1.000  O
  C916     1.0000 0.04643  0.69718  0.13442  Biso   1.000  C
  C917     1.0000 0.07456  0.71431  0.11715  Biso   1.000  C
  C918     1.0000 0.09160  0.74140  0.13230  Biso   1.000  C
  H916     1.0000 0.08240  0.75070  0.15220  Biso   1.000  H
  C919     1.0000 0.02992  0.74800  0.22420  Biso   1.000  C
  H917     1.0000 0.05010  0.73370  0.22660  Biso   1.000  H
  H918     1.0000 0.03040  0.75850  0.20180  Biso   1.000  H
  H919     1.0000 0.02000  0.76500  0.19860  Biso   1.000  H
  C920     1.0000 0.91940  0.62370  0.24970  Biso   1.000  C
  H920     1.0000 0.93260  0.63910  0.26190  Biso   1.000  H
  O369     1.0000 0.46453  0.82925  0.12111  Biso   1.000  O
  O370     1.0000 0.46478  0.79028  0.16066  Biso   1.000  O
  C921     1.0000 0.45357  0.80282  0.13442  Biso   1.000  C
  C922     1.0000 0.42544  0.78569  0.11715  Biso   1.000  C
  C923     1.0000 0.40840  0.75860  0.13230  Biso   1.000  C
  H921     1.0000 0.41760  0.74930  0.15220  Biso   1.000  H
  C924     1.0000 0.47008  0.75200  0.22420  Biso   1.000  C
  H922     1.0000 0.44990  0.76630  0.22660  Biso   1.000  H
  H923     1.0000 0.46960  0.74150  0.20180  Biso   1.000  H
  H924     1.0000 0.48000  0.73500  0.19860  Biso   1.000  H
  C925     1.0000 0.58060  0.87630  0.24970  Biso   1.000  C
  H925     1.0000 0.56740  0.86090  0.26190  Biso   1.000  H
  O371     1.0000 0.46453  0.32925  0.62111  Biso   1.000  O
  O372     1.0000 0.46478  0.29028  0.66066  Biso   1.000  O
  C926     1.0000 0.45357  0.30282  0.63442  Biso   1.000  C
  C927     1.0000 0.42544  0.28569  0.61715  Biso   1.000  C
  C928     1.0000 0.40840  0.25860  0.63230  Biso   1.000  C
  H926     1.0000 0.41760  0.24930  0.65220  Biso   1.000  H
  C929     1.0000 0.47008  0.25200  0.72420  Biso   1.000  C
  H927     1.0000 0.44990  0.26630  0.72660  Biso   1.000  H
  H928     1.0000 0.46960  0.24150  0.70180  Biso   1.000  H
  H929     1.0000 0.48000  0.23500  0.69860  Biso   1.000  H
  C930     1.0000 0.58060  0.37630  0.74970  Biso   1.000  C
  H930     1.0000 0.56740  0.36090  0.76190  Biso   1.000  H
  O373     1.0000 0.96453  0.82925  0.62111  Biso   1.000  O
  O374     1.0000 0.96478  0.79028  0.66066  Biso   1.000  O
  C931     1.0000 0.95357  0.80282  0.63442  Biso   1.000  C
  C932     1.0000 0.92544  0.78569  0.61715  Biso   1.000  C
  C933     1.0000 0.90840  0.75860  0.63230  Biso   1.000  C
  H931     1.0000 0.91760  0.74930  0.65220  Biso   1.000  H
  C934     1.0000 0.97008  0.75200  0.72420  Biso   1.000  C
  H932     1.0000 0.94990  0.76630  0.72660  Biso   1.000  H
  H933     1.0000 0.96960  0.74150  0.70180  Biso   1.000  H
  H934     1.0000 0.98000  0.73500  0.69860  Biso   1.000  H
  C935     1.0000 0.08060  0.87630  0.74970  Biso   1.000  C
  H935     1.0000 0.06740  0.86090  0.76190  Biso   1.000  H
  O375     1.0000 0.96453  0.32925  0.12111  Biso   1.000  O
  O376     1.0000 0.96478  0.29028  0.16066  Biso   1.000  O
  C936     1.0000 0.95357  0.30282  0.13442  Biso   1.000  C
  C937     1.0000 0.92544  0.28569  0.11715  Biso   1.000  C
  C938     1.0000 0.90840  0.25860  0.13230  Biso   1.000  C
  H936     1.0000 0.91760  0.24930  0.15220  Biso   1.000  H
  C939     1.0000 0.97008  0.25200  0.22420  Biso   1.000  C
  H937     1.0000 0.94990  0.26630  0.22660  Biso   1.000  H
  H938     1.0000 0.96960  0.24150  0.20180  Biso   1.000  H
  H939     1.0000 0.98000  0.23500  0.19860  Biso   1.000  H
  C940     1.0000 0.08060  0.37630  0.24970  Biso   1.000  C
  H940     1.0000 0.06740  0.36090  0.26190  Biso   1.000  H
  O377     1.0000 0.46453  0.17075  0.87889  Biso   1.000  O
  O378     1.0000 0.46478  0.20972  0.83934  Biso   1.000  O
  C941     1.0000 0.45357  0.19718  0.86558  Biso   1.000  C
  C942     1.0000 0.42544  0.21431  0.88285  Biso   1.000  C
  C943     1.0000 0.40840  0.24140  0.86770  Biso   1.000  C
  H941     1.0000 0.41760  0.25070  0.84780  Biso   1.000  H
  C944     1.0000 0.47008  0.24800  0.77580  Biso   1.000  C
  H942     1.0000 0.44990  0.23370  0.77340  Biso   1.000  H
  H943     1.0000 0.46960  0.25850  0.79820  Biso   1.000  H
  H944     1.0000 0.48000  0.26500  0.80140  Biso   1.000  H
  C945     1.0000 0.58060  0.12370  0.75030  Biso   1.000  C
  H945     1.0000 0.56740  0.13910  0.73810  Biso   1.000  H
  O379     1.0000 0.46453  0.67075  0.37889  Biso   1.000  O
  O380     1.0000 0.46478  0.70972  0.33934  Biso   1.000  O
  C946     1.0000 0.45357  0.69718  0.36558  Biso   1.000  C
  C947     1.0000 0.42544  0.71431  0.38285  Biso   1.000  C
  C948     1.0000 0.40840  0.74140  0.36770  Biso   1.000  C
  H946     1.0000 0.41760  0.75070  0.34780  Biso   1.000  H
  C949     1.0000 0.47008  0.74800  0.27580  Biso   1.000  C
  H947     1.0000 0.44990  0.73370  0.27340  Biso   1.000  H
  H948     1.0000 0.46960  0.75850  0.29820  Biso   1.000  H
  H949     1.0000 0.48000  0.76500  0.30140  Biso   1.000  H
  C950     1.0000 0.58060  0.62370  0.25030  Biso   1.000  C
  H950     1.0000 0.56740  0.63910  0.23810  Biso   1.000  H
  O381     1.0000 0.96453  0.17075  0.37889  Biso   1.000  O
  O382     1.0000 0.96478  0.20972  0.33934  Biso   1.000  O
  C951     1.0000 0.95357  0.19718  0.36558  Biso   1.000  C
  C952     1.0000 0.92544  0.21431  0.38285  Biso   1.000  C
  C953     1.0000 0.90840  0.24140  0.36770  Biso   1.000  C
  H951     1.0000 0.91760  0.25070  0.34780  Biso   1.000  H
  C954     1.0000 0.97008  0.24800  0.27580  Biso   1.000  C
  H952     1.0000 0.94990  0.23370  0.27340  Biso   1.000  H
  H953     1.0000 0.96960  0.25850  0.29820  Biso   1.000  H
  H954     1.0000 0.98000  0.26500  0.30140  Biso   1.000  H
  C955     1.0000 0.08060  0.12370  0.25030  Biso   1.000  C
  H955     1.0000 0.06740  0.13910  0.23810  Biso   1.000  H
  O383     1.0000 0.96453  0.67075  0.87889  Biso   1.000  O
  O384     1.0000 0.96478  0.70972  0.83934  Biso   1.000  O
  C956     1.0000 0.95357  0.69718  0.86558  Biso   1.000  C
  C957     1.0000 0.92544  0.71431  0.88285  Biso   1.000  C
  C958     1.0000 0.90840  0.74140  0.86770  Biso   1.000  C
  H956     1.0000 0.91760  0.75070  0.84780  Biso   1.000  H
  C959     1.0000 0.97008  0.74800  0.77580  Biso   1.000  C
  H957     1.0000 0.94990  0.73370  0.77340  Biso   1.000  H
  H958     1.0000 0.96960  0.75850  0.79820  Biso   1.000  H
  H959     1.0000 0.98000  0.76500  0.80140  Biso   1.000  H
  C960     1.0000 0.08060  0.62370  0.75030  Biso   1.000  C
  H960     1.0000 0.06740  0.63910  0.73810  Biso   1.000  H
  Zn1      1.0000 0.86079  0.13921  0.50000  Biso   1.000  Zn
  Zn2      1.0000 0.80872  0.19128  0.50000  Biso   1.000  Zn
  N1       1.0000 0.77241  0.22759  0.50000  Biso   1.000  N
  Zn3      1.0000 0.86079  0.63921  0.00000  Biso   1.000  Zn
  Zn4      1.0000 0.80872  0.69128  0.00000  Biso   1.000  Zn
  N2       1.0000 0.77241  0.72759  0.00000  Biso   1.000  N
  Zn5      1.0000 0.36079  0.13921  0.00000  Biso   1.000  Zn
  Zn6      1.0000 0.30872  0.19128  0.00000  Biso   1.000  Zn
  N3       1.0000 0.27241  0.22759  0.00000  Biso   1.000  N
  Zn7      1.0000 0.36079  0.63921  0.50000  Biso   1.000  Zn
  Zn8      1.0000 0.30872  0.69128  0.50000  Biso   1.000  Zn
  N4       1.0000 0.27241  0.72759  0.50000  Biso   1.000  N
  Zn9      1.0000 0.13921  0.86079  0.50000  Biso   1.000  Zn
  Zn10     1.0000 0.19128  0.80872  0.50000  Biso   1.000  Zn
  N5       1.0000 0.22759  0.77241  0.50000  Biso   1.000  N
  Zn11     1.0000 0.13921  0.36079  0.00000  Biso   1.000  Zn
  Zn12     1.0000 0.19128  0.30872  0.00000  Biso   1.000  Zn
  N6       1.0000 0.22759  0.27241  0.00000  Biso   1.000  N
  Zn13     1.0000 0.63921  0.86079  0.00000  Biso   1.000  Zn
  Zn14     1.0000 0.69128  0.80872  0.00000  Biso   1.000  Zn
  N7       1.0000 0.72759  0.77241  0.00000  Biso   1.000  N
  Zn15     1.0000 0.63921  0.36079  0.50000  Biso   1.000  Zn
  Zn16     1.0000 0.69128  0.30872  0.50000  Biso   1.000  Zn
  N8       1.0000 0.72759  0.27241  0.50000  Biso   1.000  N
  Zn17     1.0000 0.13921  0.13921  0.50000  Biso   1.000  Zn
  Zn18     1.0000 0.19128  0.19128  0.50000  Biso   1.000  Zn
  N9       1.0000 0.22759  0.22759  0.50000  Biso   1.000  N
  Zn19     1.0000 0.13921  0.63921  0.00000  Biso   1.000  Zn
  Zn20     1.0000 0.19128  0.69128  0.00000  Biso   1.000  Zn
  N10      1.0000 0.22759  0.72759  0.00000  Biso   1.000  N
  Zn21     1.0000 0.63921  0.13921  0.00000  Biso   1.000  Zn
  Zn22     1.0000 0.69128  0.19128  0.00000  Biso   1.000  Zn
  N11      1.0000 0.72759  0.22759  0.00000  Biso   1.000  N
  Zn23     1.0000 0.63921  0.63921  0.50000  Biso   1.000  Zn
  Zn24     1.0000 0.69128  0.69128  0.50000  Biso   1.000  Zn
  N12      1.0000 0.72759  0.72759  0.50000  Biso   1.000  N
  Zn25     1.0000 0.86079  0.86079  0.50000  Biso   1.000  Zn
  Zn26     1.0000 0.80872  0.80872  0.50000  Biso   1.000  Zn
  N13      1.0000 0.77241  0.77241  0.50000  Biso   1.000  N
  Zn27     1.0000 0.86079  0.36079  0.00000  Biso   1.000  Zn
  Zn28     1.0000 0.80872  0.30872  0.00000  Biso   1.000  Zn
  N14      1.0000 0.77241  0.27241  0.00000  Biso   1.000  N
  Zn29     1.0000 0.36079  0.86079  0.00000  Biso   1.000  Zn
  Zn30     1.0000 0.30872  0.80872  0.00000  Biso   1.000  Zn
  N15      1.0000 0.27241  0.77241  0.00000  Biso   1.000  N
  Zn31     1.0000 0.36079  0.36079  0.50000  Biso   1.000  Zn
  Zn32     1.0000 0.30872  0.30872  0.50000  Biso   1.000  Zn
  N16      1.0000 0.27241  0.27241  0.50000  Biso   1.000  N
  Zn33     1.0000 0.50000  0.86079  0.13921  Biso   1.000  Zn
  Zn34     1.0000 0.50000  0.80872  0.19128  Biso   1.000  Zn
  N17      1.0000 0.50000  0.77241  0.22759  Biso   1.000  N
  Zn35     1.0000 0.50000  0.36079  0.63921  Biso   1.000  Zn
  Zn36     1.0000 0.50000  0.30872  0.69128  Biso   1.000  Zn
  N18      1.0000 0.50000  0.27241  0.72759  Biso   1.000  N
  Zn37     1.0000 0.00000  0.86079  0.63921  Biso   1.000  Zn
  Zn38     1.0000 0.00000  0.80872  0.69128  Biso   1.000  Zn
  N19      1.0000 0.00000  0.77241  0.72759  Biso   1.000  N
  Zn39     1.0000 0.00000  0.36079  0.13921  Biso   1.000  Zn
  Zn40     1.0000 0.00000  0.30872  0.19128  Biso   1.000  Zn
  N20      1.0000 0.00000  0.27241  0.22759  Biso   1.000  N
  Zn41     1.0000 0.50000  0.13921  0.86079  Biso   1.000  Zn
  Zn42     1.0000 0.50000  0.19128  0.80872  Biso   1.000  Zn
  N21      1.0000 0.50000  0.22759  0.77241  Biso   1.000  N
  Zn43     1.0000 0.50000  0.63921  0.36079  Biso   1.000  Zn
  Zn44     1.0000 0.50000  0.69128  0.30872  Biso   1.000  Zn
  N22      1.0000 0.50000  0.72759  0.27241  Biso   1.000  N
  Zn45     1.0000 0.00000  0.13921  0.36079  Biso   1.000  Zn
  Zn46     1.0000 0.00000  0.19128  0.30872  Biso   1.000  Zn
  N23      1.0000 0.00000  0.22759  0.27241  Biso   1.000  N
  Zn47     1.0000 0.00000  0.63921  0.86079  Biso   1.000  Zn
  Zn48     1.0000 0.00000  0.69128  0.80872  Biso   1.000  Zn
  N24      1.0000 0.00000  0.72759  0.77241  Biso   1.000  N
  Zn49     1.0000 0.50000  0.13921  0.13921  Biso   1.000  Zn
  Zn50     1.0000 0.50000  0.19128  0.19128  Biso   1.000  Zn
  N25      1.0000 0.50000  0.22759  0.22759  Biso   1.000  N
  Zn51     1.0000 0.50000  0.63921  0.63921  Biso   1.000  Zn
  Zn52     1.0000 0.50000  0.69128  0.69128  Biso   1.000  Zn
  N26      1.0000 0.50000  0.72759  0.72759  Biso   1.000  N
  Zn53     1.0000 0.00000  0.13921  0.63921  Biso   1.000  Zn
  Zn54     1.0000 0.00000  0.19128  0.69128  Biso   1.000  Zn
  N27      1.0000 0.00000  0.22759  0.72759  Biso   1.000  N
  Zn55     1.0000 0.00000  0.63921  0.13921  Biso   1.000  Zn
  Zn56     1.0000 0.00000  0.69128  0.19128  Biso   1.000  Zn
  N28      1.0000 0.00000  0.72759  0.22759  Biso   1.000  N
  Zn57     1.0000 0.50000  0.86079  0.86079  Biso   1.000  Zn
  Zn58     1.0000 0.50000  0.80872  0.80872  Biso   1.000  Zn
  N29      1.0000 0.50000  0.77241  0.77241  Biso   1.000  N
  Zn59     1.0000 0.50000  0.36079  0.36079  Biso   1.000  Zn
  Zn60     1.0000 0.50000  0.30872  0.30872  Biso   1.000  Zn
  N30      1.0000 0.50000  0.27241  0.27241  Biso   1.000  N
  Zn61     1.0000 0.00000  0.86079  0.36079  Biso   1.000  Zn
  Zn62     1.0000 0.00000  0.80872  0.30872  Biso   1.000  Zn
  N31      1.0000 0.00000  0.77241  0.27241  Biso   1.000  N
  Zn63     1.0000 0.00000  0.36079  0.86079  Biso   1.000  Zn
  Zn64     1.0000 0.00000  0.30872  0.80872  Biso   1.000  Zn
  N32      1.0000 0.00000  0.27241  0.77241  Biso   1.000  N
  Zn65     1.0000 0.13921  0.50000  0.86079  Biso   1.000  Zn
  Zn66     1.0000 0.19128  0.50000  0.80872  Biso   1.000  Zn
  N33      1.0000 0.22759  0.50000  0.77241  Biso   1.000  N
  Zn67     1.0000 0.13921  0.00000  0.36079  Biso   1.000  Zn
  Zn68     1.0000 0.19128  0.00000  0.30872  Biso   1.000  Zn
  N34      1.0000 0.22759  0.00000  0.27241  Biso   1.000  N
  Zn69     1.0000 0.63921  0.50000  0.36079  Biso   1.000  Zn
  Zn70     1.0000 0.69128  0.50000  0.30872  Biso   1.000  Zn
  N35      1.0000 0.72759  0.50000  0.27241  Biso   1.000  N
  Zn71     1.0000 0.63921  0.00000  0.86079  Biso   1.000  Zn
  Zn72     1.0000 0.69128  0.00000  0.80872  Biso   1.000  Zn
  N36      1.0000 0.72759  0.00000  0.77241  Biso   1.000  N
  Zn73     1.0000 0.86079  0.50000  0.13921  Biso   1.000  Zn
  Zn74     1.0000 0.80872  0.50000  0.19128  Biso   1.000  Zn
  N37      1.0000 0.77241  0.50000  0.22759  Biso   1.000  N
  Zn75     1.0000 0.86079  0.00000  0.63921  Biso   1.000  Zn
  Zn76     1.0000 0.80872  0.00000  0.69128  Biso   1.000  Zn
  N38      1.0000 0.77241  0.00000  0.72759  Biso   1.000  N
  Zn77     1.0000 0.36079  0.50000  0.63921  Biso   1.000  Zn
  Zn78     1.0000 0.30872  0.50000  0.69128  Biso   1.000  Zn
  N39      1.0000 0.27241  0.50000  0.72759  Biso   1.000  N
  Zn79     1.0000 0.36079  0.00000  0.13921  Biso   1.000  Zn
  Zn80     1.0000 0.30872  0.00000  0.19128  Biso   1.000  Zn
  N40      1.0000 0.27241  0.00000  0.22759  Biso   1.000  N
  Zn81     1.0000 0.13921  0.50000  0.13921  Biso   1.000  Zn
  Zn82     1.0000 0.19128  0.50000  0.19128  Biso   1.000  Zn
  N41      1.0000 0.22759  0.50000  0.22759  Biso   1.000  N
  Zn83     1.0000 0.13921  0.00000  0.63921  Biso   1.000  Zn
  Zn84     1.0000 0.19128  0.00000  0.69128  Biso   1.000  Zn
  N42      1.0000 0.22759  0.00000  0.72759  Biso   1.000  N
  Zn85     1.0000 0.63921  0.50000  0.63921  Biso   1.000  Zn
  Zn86     1.0000 0.69128  0.50000  0.69128  Biso   1.000  Zn
  N43      1.0000 0.72759  0.50000  0.72759  Biso   1.000  N
  Zn87     1.0000 0.63921  0.00000  0.13921  Biso   1.000  Zn
  Zn88     1.0000 0.69128  0.00000  0.19128  Biso   1.000  Zn
  N44      1.0000 0.72759  0.00000  0.22759  Biso   1.000  N
  Zn89     1.0000 0.86079  0.50000  0.86079  Biso   1.000  Zn
  Zn90     1.0000 0.80872  0.50000  0.80872  Biso   1.000  Zn
  N45      1.0000 0.77241  0.50000  0.77241  Biso   1.000  N
  Zn91     1.0000 0.86079  0.00000  0.36079  Biso   1.000  Zn
  Zn92     1.0000 0.80872  0.00000  0.30872  Biso   1.000  Zn
  N46      1.0000 0.77241  0.00000  0.27241  Biso   1.000  N
  Zn93     1.0000 0.36079  0.50000  0.36079  Biso   1.000  Zn
  Zn94     1.0000 0.30872  0.50000  0.30872  Biso   1.000  Zn
  N47      1.0000 0.27241  0.50000  0.27241  Biso   1.000  N
  Zn95     1.0000 0.36079  0.00000  0.86079  Biso   1.000  Zn
  Zn96     1.0000 0.30872  0.00000  0.80872  Biso   1.000  Zn
  N48      1.0000 0.27241  0.00000  0.77241  Biso   1.000  N
  C961     1.0000 0.90995  0.19979  0.40995  Biso   1.000  C
  H961     1.0000 0.91820  0.17910  0.41820  Biso   1.000  H
  C962     1.0000 0.87990  0.25480  0.37990  Biso   1.000  C
  H962     1.0000 0.86890  0.27280  0.36890  Biso   1.000  H
  C963     1.0000 0.90995  0.69979  0.90995  Biso   1.000  C
  H963     1.0000 0.91820  0.67910  0.91820  Biso   1.000  H
  C964     1.0000 0.87990  0.75480  0.87990  Biso   1.000  C
  H964     1.0000 0.86890  0.77280  0.86890  Biso   1.000  H
  C965     1.0000 0.40995  0.69979  0.40995  Biso   1.000  C
  H965     1.0000 0.41820  0.67910  0.41820  Biso   1.000  H
  C966     1.0000 0.37990  0.75480  0.37990  Biso   1.000  C
  H966     1.0000 0.36890  0.77280  0.36890  Biso   1.000  H
  C967     1.0000 0.09005  0.80021  0.40995  Biso   1.000  C
  H967     1.0000 0.08180  0.82090  0.41820  Biso   1.000  H
  C968     1.0000 0.12010  0.74520  0.37990  Biso   1.000  C
  H968     1.0000 0.13110  0.72720  0.36890  Biso   1.000  H
  C969     1.0000 0.09005  0.30021  0.90995  Biso   1.000  C
  H969     1.0000 0.08180  0.32090  0.91820  Biso   1.000  H
  C970     1.0000 0.12010  0.24520  0.87990  Biso   1.000  C
  H970     1.0000 0.13110  0.22720  0.86890  Biso   1.000  H
  C971     1.0000 0.09005  0.19979  0.59005  Biso   1.000  C
  H971     1.0000 0.08180  0.17910  0.58180  Biso   1.000  H
  C972     1.0000 0.12010  0.25480  0.62010  Biso   1.000  C
  H972     1.0000 0.13110  0.27280  0.63110  Biso   1.000  H
  C973     1.0000 0.09005  0.69979  0.09005  Biso   1.000  C
  H973     1.0000 0.08180  0.67910  0.08180  Biso   1.000  H
  C974     1.0000 0.12010  0.75480  0.12010  Biso   1.000  C
  H974     1.0000 0.13110  0.77280  0.13110  Biso   1.000  H
  C975     1.0000 0.90995  0.80021  0.59005  Biso   1.000  C
  H975     1.0000 0.91820  0.82090  0.58180  Biso   1.000  H
  C976     1.0000 0.87990  0.74520  0.62010  Biso   1.000  C
  H976     1.0000 0.86890  0.72720  0.63110  Biso   1.000  H
  C977     1.0000 0.90995  0.30021  0.09005  Biso   1.000  C
  H977     1.0000 0.91820  0.32090  0.08180  Biso   1.000  H
  C978     1.0000 0.87990  0.24520  0.12010  Biso   1.000  C
  H978     1.0000 0.86890  0.22720  0.13110  Biso   1.000  H
  C979     1.0000 0.40995  0.80021  0.09005  Biso   1.000  C
  H979     1.0000 0.41820  0.82090  0.08180  Biso   1.000  H
  C980     1.0000 0.37990  0.74520  0.12010  Biso   1.000  C
  H980     1.0000 0.36890  0.72720  0.13110  Biso   1.000  H
  C981     1.0000 0.40995  0.90995  0.19979  Biso   1.000  C
  H981     1.0000 0.41820  0.91820  0.17910  Biso   1.000  H
  C982     1.0000 0.37990  0.87990  0.25480  Biso   1.000  C
  H982     1.0000 0.36890  0.86890  0.27280  Biso   1.000  H
  C983     1.0000 0.40995  0.40995  0.69979  Biso   1.000  C
  H983     1.0000 0.41820  0.41820  0.67910  Biso   1.000  H
  C984     1.0000 0.37990  0.37990  0.75480  Biso   1.000  C
  H984     1.0000 0.36890  0.36890  0.77280  Biso   1.000  H
  C985     1.0000 0.40995  0.09005  0.80021  Biso   1.000  C
  H985     1.0000 0.41820  0.08180  0.82090  Biso   1.000  H
  C986     1.0000 0.37990  0.12010  0.74520  Biso   1.000  C
  H986     1.0000 0.36890  0.13110  0.72720  Biso   1.000  H
  C987     1.0000 0.40995  0.59005  0.30021  Biso   1.000  C
  H987     1.0000 0.41820  0.58180  0.32090  Biso   1.000  H
  C988     1.0000 0.37990  0.62010  0.24520  Biso   1.000  C
  H988     1.0000 0.36890  0.63110  0.22720  Biso   1.000  H
  C989     1.0000 0.59005  0.09005  0.19979  Biso   1.000  C
  H989     1.0000 0.58180  0.08180  0.17910  Biso   1.000  H
  C990     1.0000 0.62010  0.12010  0.25480  Biso   1.000  C
  H990     1.0000 0.63110  0.13110  0.27280  Biso   1.000  H
  C991     1.0000 0.59005  0.59005  0.69979  Biso   1.000  C
  H991     1.0000 0.58180  0.58180  0.67910  Biso   1.000  H
  C992     1.0000 0.62010  0.62010  0.75480  Biso   1.000  C
  H992     1.0000 0.63110  0.63110  0.77280  Biso   1.000  H
  C993     1.0000 0.09005  0.09005  0.69979  Biso   1.000  C
  H993     1.0000 0.08180  0.08180  0.67910  Biso   1.000  H
  C994     1.0000 0.12010  0.12010  0.75480  Biso   1.000  C
  H994     1.0000 0.13110  0.13110  0.77280  Biso   1.000  H
  C995     1.0000 0.59005  0.90995  0.80021  Biso   1.000  C
  H995     1.0000 0.58180  0.91820  0.82090  Biso   1.000  H
  C996     1.0000 0.62010  0.87990  0.74520  Biso   1.000  C
  H996     1.0000 0.63110  0.86890  0.72720  Biso   1.000  H
  C997     1.0000 0.59005  0.40995  0.30021  Biso   1.000  C
  H997     1.0000 0.58180  0.41820  0.32090  Biso   1.000  H
  C998     1.0000 0.62010  0.37990  0.24520  Biso   1.000  C
  H998     1.0000 0.63110  0.36890  0.22720  Biso   1.000  H
  C999     1.0000 0.09005  0.40995  0.80021  Biso   1.000  C
  H999     1.0000 0.08180  0.41820  0.82090  Biso   1.000  H
  C1000    1.0000 0.12010  0.37990  0.74520  Biso   1.000  C
  H1000    1.0000 0.13110  0.36890  0.72720  Biso   1.000  H
  C1001    1.0000 0.19979  0.40995  0.90995  Biso   1.000  C
  H1001    1.0000 0.17910  0.41820  0.91820  Biso   1.000  H
  C1002    1.0000 0.25480  0.37990  0.87990  Biso   1.000  C
  H1002    1.0000 0.27280  0.36890  0.86890  Biso   1.000  H
  C1003    1.0000 0.69979  0.40995  0.40995  Biso   1.000  C
  H1003    1.0000 0.67910  0.41820  0.41820  Biso   1.000  H
  C1004    1.0000 0.75480  0.37990  0.37990  Biso   1.000  C
  H1004    1.0000 0.77280  0.36890  0.36890  Biso   1.000  H
  C1005    1.0000 0.80021  0.40995  0.09005  Biso   1.000  C
  H1005    1.0000 0.82090  0.41820  0.08180  Biso   1.000  H
  C1006    1.0000 0.74520  0.37990  0.12010  Biso   1.000  C
  H1006    1.0000 0.72720  0.36890  0.13110  Biso   1.000  H
  C1007    1.0000 0.30021  0.40995  0.59005  Biso   1.000  C
  H1007    1.0000 0.32090  0.41820  0.58180  Biso   1.000  H
  C1008    1.0000 0.24520  0.37990  0.62010  Biso   1.000  C
  H1008    1.0000 0.22720  0.36890  0.63110  Biso   1.000  H
  C1009    1.0000 0.19979  0.59005  0.09005  Biso   1.000  C
  H1009    1.0000 0.17910  0.58180  0.08180  Biso   1.000  H
  C1010    1.0000 0.25480  0.62010  0.12010  Biso   1.000  C
  H1010    1.0000 0.27280  0.63110  0.13110  Biso   1.000  H
  C1011    1.0000 0.69979  0.59005  0.59005  Biso   1.000  C
  H1011    1.0000 0.67910  0.58180  0.58180  Biso   1.000  H
  C1012    1.0000 0.75480  0.62010  0.62010  Biso   1.000  C
  H1012    1.0000 0.77280  0.63110  0.63110  Biso   1.000  H
  C1013    1.0000 0.69979  0.09005  0.09005  Biso   1.000  C
  H1013    1.0000 0.67910  0.08180  0.08180  Biso   1.000  H
  C1014    1.0000 0.75480  0.12010  0.12010  Biso   1.000  C
  H1014    1.0000 0.77280  0.13110  0.13110  Biso   1.000  H
  C1015    1.0000 0.80021  0.59005  0.90995  Biso   1.000  C
  H1015    1.0000 0.82090  0.58180  0.91820  Biso   1.000  H
  C1016    1.0000 0.74520  0.62010  0.87990  Biso   1.000  C
  H1016    1.0000 0.72720  0.63110  0.86890  Biso   1.000  H
  C1017    1.0000 0.80021  0.09005  0.40995  Biso   1.000  C
  H1017    1.0000 0.82090  0.08180  0.41820  Biso   1.000  H
  C1018    1.0000 0.74520  0.12010  0.37990  Biso   1.000  C
  H1018    1.0000 0.72720  0.13110  0.36890  Biso   1.000  H
  C1019    1.0000 0.30021  0.59005  0.40995  Biso   1.000  C
  H1019    1.0000 0.32090  0.58180  0.41820  Biso   1.000  H
  C1020    1.0000 0.24520  0.62010  0.37990  Biso   1.000  C
  H1020    1.0000 0.22720  0.63110  0.36890  Biso   1.000  H
  C1021    1.0000 0.19979  0.90995  0.59005  Biso   1.000  C
  H1021    1.0000 0.17910  0.91820  0.58180  Biso   1.000  H
  C1022    1.0000 0.25480  0.87990  0.62010  Biso   1.000  C
  H1022    1.0000 0.27280  0.86890  0.63110  Biso   1.000  H
  C1023    1.0000 0.19979  0.40995  0.09005  Biso   1.000  C
  H1023    1.0000 0.17910  0.41820  0.08180  Biso   1.000  H
  C1024    1.0000 0.25480  0.37990  0.12010  Biso   1.000  C
  H1024    1.0000 0.27280  0.36890  0.13110  Biso   1.000  H
  C1025    1.0000 0.69979  0.90995  0.09005  Biso   1.000  C
  H1025    1.0000 0.67910  0.91820  0.08180  Biso   1.000  H
  C1026    1.0000 0.75480  0.87990  0.12010  Biso   1.000  C
  H1026    1.0000 0.77280  0.86890  0.13110  Biso   1.000  H
  C1027    1.0000 0.80021  0.09005  0.59005  Biso   1.000  C
  H1027    1.0000 0.82090  0.08180  0.58180  Biso   1.000  H
  C1028    1.0000 0.74520  0.12010  0.62010  Biso   1.000  C
  H1028    1.0000 0.72720  0.13110  0.63110  Biso   1.000  H
  C1029    1.0000 0.30021  0.09005  0.09005  Biso   1.000  C
  H1029    1.0000 0.32090  0.08180  0.08180  Biso   1.000  H
  C1030    1.0000 0.24520  0.12010  0.12010  Biso   1.000  C
  H1030    1.0000 0.22720  0.13110  0.13110  Biso   1.000  H
  C1031    1.0000 0.19979  0.09005  0.40995  Biso   1.000  C
  H1031    1.0000 0.17910  0.08180  0.41820  Biso   1.000  H
  C1032    1.0000 0.25480  0.12010  0.37990  Biso   1.000  C
  H1032    1.0000 0.27280  0.13110  0.36890  Biso   1.000  H
  C1033    1.0000 0.69979  0.09005  0.90995  Biso   1.000  C
  H1033    1.0000 0.67910  0.08180  0.91820  Biso   1.000  H
  C1034    1.0000 0.75480  0.12010  0.87990  Biso   1.000  C
  H1034    1.0000 0.77280  0.13110  0.86890  Biso   1.000  H
  C1035    1.0000 0.80021  0.90995  0.40995  Biso   1.000  C
  H1035    1.0000 0.82090  0.91820  0.41820  Biso   1.000  H
  C1036    1.0000 0.74520  0.87990  0.37990  Biso   1.000  C
  H1036    1.0000 0.72720  0.86890  0.36890  Biso   1.000  H
  C1037    1.0000 0.30021  0.90995  0.90995  Biso   1.000  C
  H1037    1.0000 0.32090  0.91820  0.91820  Biso   1.000  H
  C1038    1.0000 0.24520  0.87990  0.87990  Biso   1.000  C
  H1038    1.0000 0.22720  0.86890  0.86890  Biso   1.000  H
  C1039    1.0000 0.30021  0.40995  0.40995  Biso   1.000  C
  H1039    1.0000 0.32090  0.41820  0.41820  Biso   1.000  H
  C1040    1.0000 0.24520  0.37990  0.37990  Biso   1.000  C
  H1040    1.0000 0.22720  0.36890  0.36890  Biso   1.000  H
  C1041    1.0000 0.90995  0.40995  0.80021  Biso   1.000  C
  H1041    1.0000 0.91820  0.41820  0.82090  Biso   1.000  H
  C1042    1.0000 0.87990  0.37990  0.74520  Biso   1.000  C
  H1042    1.0000 0.86890  0.36890  0.72720  Biso   1.000  H
  C1043    1.0000 0.90995  0.90995  0.30021  Biso   1.000  C
  H1043    1.0000 0.91820  0.91820  0.32090  Biso   1.000  H
  C1044    1.0000 0.87990  0.87990  0.24520  Biso   1.000  C
  H1044    1.0000 0.86890  0.86890  0.22720  Biso   1.000  H
  C1045    1.0000 0.40995  0.40995  0.30021  Biso   1.000  C
  H1045    1.0000 0.41820  0.41820  0.32090  Biso   1.000  H
  C1046    1.0000 0.37990  0.37990  0.24520  Biso   1.000  C
  H1046    1.0000 0.36890  0.36890  0.22720  Biso   1.000  H
  C1047    1.0000 0.09005  0.40995  0.19979  Biso   1.000  C
  H1047    1.0000 0.08180  0.41820  0.17910  Biso   1.000  H
  C1048    1.0000 0.12010  0.37990  0.25480  Biso   1.000  C
  H1048    1.0000 0.13110  0.36890  0.27280  Biso   1.000  H
  C1049    1.0000 0.09005  0.90995  0.69979  Biso   1.000  C
  H1049    1.0000 0.08180  0.91820  0.67910  Biso   1.000  H
  C1050    1.0000 0.12010  0.87990  0.75480  Biso   1.000  C
  H1050    1.0000 0.13110  0.86890  0.77280  Biso   1.000  H
  C1051    1.0000 0.09005  0.59005  0.80021  Biso   1.000  C
  H1051    1.0000 0.08180  0.58180  0.82090  Biso   1.000  H
  C1052    1.0000 0.12010  0.62010  0.74520  Biso   1.000  C
  H1052    1.0000 0.13110  0.63110  0.72720  Biso   1.000  H
  C1053    1.0000 0.09005  0.09005  0.30021  Biso   1.000  C
  H1053    1.0000 0.08180  0.08180  0.32090  Biso   1.000  H
  C1054    1.0000 0.12010  0.12010  0.24520  Biso   1.000  C
  H1054    1.0000 0.13110  0.13110  0.22720  Biso   1.000  H
  C1055    1.0000 0.90995  0.59005  0.19979  Biso   1.000  C
  H1055    1.0000 0.91820  0.58180  0.17910  Biso   1.000  H
  C1056    1.0000 0.87990  0.62010  0.25480  Biso   1.000  C
  H1056    1.0000 0.86890  0.63110  0.27280  Biso   1.000  H
  C1057    1.0000 0.90995  0.09005  0.69979  Biso   1.000  C
  H1057    1.0000 0.91820  0.08180  0.67910  Biso   1.000  H
  C1058    1.0000 0.87990  0.12010  0.75480  Biso   1.000  C
  H1058    1.0000 0.86890  0.13110  0.77280  Biso   1.000  H
  C1059    1.0000 0.40995  0.09005  0.19979  Biso   1.000  C
  H1059    1.0000 0.41820  0.08180  0.17910  Biso   1.000  H
  C1060    1.0000 0.37990  0.12010  0.25480  Biso   1.000  C
  H1060    1.0000 0.36890  0.13110  0.27280  Biso   1.000  H
  C1061    1.0000 0.40995  0.19979  0.09005  Biso   1.000  C
  H1061    1.0000 0.41820  0.17910  0.08180  Biso   1.000  H
  C1062    1.0000 0.37990  0.25480  0.12010  Biso   1.000  C
  H1062    1.0000 0.36890  0.27280  0.13110  Biso   1.000  H
  C1063    1.0000 0.40995  0.69979  0.59005  Biso   1.000  C
  H1063    1.0000 0.41820  0.67910  0.58180  Biso   1.000  H
  C1064    1.0000 0.37990  0.75480  0.62010  Biso   1.000  C
  H1064    1.0000 0.36890  0.77280  0.63110  Biso   1.000  H
  C1065    1.0000 0.40995  0.80021  0.90995  Biso   1.000  C
  H1065    1.0000 0.41820  0.82090  0.91820  Biso   1.000  H
  C1066    1.0000 0.37990  0.74520  0.87990  Biso   1.000  C
  H1066    1.0000 0.36890  0.72720  0.86890  Biso   1.000  H
  C1067    1.0000 0.40995  0.30021  0.40995  Biso   1.000  C
  H1067    1.0000 0.41820  0.32090  0.41820  Biso   1.000  H
  C1068    1.0000 0.37990  0.24520  0.37990  Biso   1.000  C
  H1068    1.0000 0.36890  0.22720  0.36890  Biso   1.000  H
  C1069    1.0000 0.59005  0.19979  0.90995  Biso   1.000  C
  H1069    1.0000 0.58180  0.17910  0.91820  Biso   1.000  H
  C1070    1.0000 0.62010  0.25480  0.87990  Biso   1.000  C
  H1070    1.0000 0.63110  0.27280  0.86890  Biso   1.000  H
  C1071    1.0000 0.59005  0.69979  0.40995  Biso   1.000  C
  H1071    1.0000 0.58180  0.67910  0.41820  Biso   1.000  H
  C1072    1.0000 0.62010  0.75480  0.37990  Biso   1.000  C
  H1072    1.0000 0.63110  0.77280  0.36890  Biso   1.000  H
  C1073    1.0000 0.09005  0.19979  0.40995  Biso   1.000  C
  H1073    1.0000 0.08180  0.17910  0.41820  Biso   1.000  H
  C1074    1.0000 0.12010  0.25480  0.37990  Biso   1.000  C
  H1074    1.0000 0.13110  0.27280  0.36890  Biso   1.000  H
  C1075    1.0000 0.59005  0.80021  0.09005  Biso   1.000  C
  H1075    1.0000 0.58180  0.82090  0.08180  Biso   1.000  H
  C1076    1.0000 0.62010  0.74520  0.12010  Biso   1.000  C
  H1076    1.0000 0.63110  0.72720  0.13110  Biso   1.000  H
  C1077    1.0000 0.59005  0.30021  0.59005  Biso   1.000  C
  H1077    1.0000 0.58180  0.32090  0.58180  Biso   1.000  H
  C1078    1.0000 0.62010  0.24520  0.62010  Biso   1.000  C
  H1078    1.0000 0.63110  0.22720  0.63110  Biso   1.000  H
  C1079    1.0000 0.09005  0.30021  0.09005  Biso   1.000  C
  H1079    1.0000 0.08180  0.32090  0.08180  Biso   1.000  H
  C1080    1.0000 0.12010  0.24520  0.12010  Biso   1.000  C
  H1080    1.0000 0.13110  0.22720  0.13110  Biso   1.000  H
  C1081    1.0000 0.09005  0.80021  0.59005  Biso   1.000  C
  H1081    1.0000 0.08180  0.82090  0.58180  Biso   1.000  H
  C1082    1.0000 0.12010  0.74520  0.62010  Biso   1.000  C
  H1082    1.0000 0.13110  0.72720  0.63110  Biso   1.000  H
  C1083    1.0000 0.90995  0.19979  0.59005  Biso   1.000  C
  H1083    1.0000 0.91820  0.17910  0.58180  Biso   1.000  H
  C1084    1.0000 0.87990  0.25480  0.62010  Biso   1.000  C
  H1084    1.0000 0.86890  0.27280  0.63110  Biso   1.000  H
  C1085    1.0000 0.90995  0.69979  0.09005  Biso   1.000  C
  H1085    1.0000 0.91820  0.67910  0.08180  Biso   1.000  H
  C1086    1.0000 0.87990  0.75480  0.12010  Biso   1.000  C
  H1086    1.0000 0.86890  0.77280  0.13110  Biso   1.000  H
  C1087    1.0000 0.90995  0.80021  0.40995  Biso   1.000  C
  H1087    1.0000 0.91820  0.82090  0.41820  Biso   1.000  H
  C1088    1.0000 0.87990  0.74520  0.37990  Biso   1.000  C
  H1088    1.0000 0.86890  0.72720  0.36890  Biso   1.000  H
  C1089    1.0000 0.90995  0.30021  0.90995  Biso   1.000  C
  H1089    1.0000 0.91820  0.32090  0.91820  Biso   1.000  H
  C1090    1.0000 0.87990  0.24520  0.87990  Biso   1.000  C
  H1090    1.0000 0.86890  0.22720  0.86890  Biso   1.000  H
  C1091    1.0000 0.09005  0.69979  0.90995  Biso   1.000  C
  H1091    1.0000 0.08180  0.67910  0.91820  Biso   1.000  H
  C1092    1.0000 0.12010  0.75480  0.87990  Biso   1.000  C
  H1092    1.0000 0.13110  0.77280  0.86890  Biso   1.000  H
  C1093    1.0000 0.59005  0.09005  0.80021  Biso   1.000  C
  H1093    1.0000 0.58180  0.08180  0.82090  Biso   1.000  H
  C1094    1.0000 0.62010  0.12010  0.74520  Biso   1.000  C
  H1094    1.0000 0.63110  0.13110  0.72720  Biso   1.000  H
  C1095    1.0000 0.59005  0.59005  0.30021  Biso   1.000  C
  H1095    1.0000 0.58180  0.58180  0.32090  Biso   1.000  H
  C1096    1.0000 0.62010  0.62010  0.24520  Biso   1.000  C
  H1096    1.0000 0.63110  0.63110  0.22720  Biso   1.000  H
  C1097    1.0000 0.59005  0.90995  0.19979  Biso   1.000  C
  H1097    1.0000 0.58180  0.91820  0.17910  Biso   1.000  H
  C1098    1.0000 0.62010  0.87990  0.25480  Biso   1.000  C
  H1098    1.0000 0.63110  0.86890  0.27280  Biso   1.000  H
  C1099    1.0000 0.59005  0.40995  0.69979  Biso   1.000  C
  H1099    1.0000 0.58180  0.41820  0.67910  Biso   1.000  H
  C1100    1.0000 0.62010  0.37990  0.75480  Biso   1.000  C
  H1100    1.0000 0.63110  0.36890  0.77280  Biso   1.000  H
  C1101    1.0000 0.40995  0.90995  0.80021  Biso   1.000  C
  H1101    1.0000 0.41820  0.91820  0.82090  Biso   1.000  H
  C1102    1.0000 0.37990  0.87990  0.74520  Biso   1.000  C
  H1102    1.0000 0.36890  0.86890  0.72720  Biso   1.000  H
  C1103    1.0000 0.40995  0.59005  0.69979  Biso   1.000  C
  H1103    1.0000 0.41820  0.58180  0.67910  Biso   1.000  H
  C1104    1.0000 0.37990  0.62010  0.75480  Biso   1.000  C
  H1104    1.0000 0.36890  0.63110  0.77280  Biso   1.000  H
  C1105    1.0000 0.80021  0.59005  0.09005  Biso   1.000  C
  H1105    1.0000 0.82090  0.58180  0.08180  Biso   1.000  H
  C1106    1.0000 0.74520  0.62010  0.12010  Biso   1.000  C
  H1106    1.0000 0.72720  0.63110  0.13110  Biso   1.000  H
  C1107    1.0000 0.30021  0.59005  0.59005  Biso   1.000  C
  H1107    1.0000 0.32090  0.58180  0.58180  Biso   1.000  H
  C1108    1.0000 0.24520  0.62010  0.62010  Biso   1.000  C
  H1108    1.0000 0.22720  0.63110  0.63110  Biso   1.000  H
  C1109    1.0000 0.19979  0.59005  0.90995  Biso   1.000  C
  H1109    1.0000 0.17910  0.58180  0.91820  Biso   1.000  H
  C1110    1.0000 0.25480  0.62010  0.87990  Biso   1.000  C
  H1110    1.0000 0.27280  0.63110  0.86890  Biso   1.000  H
  C1111    1.0000 0.69979  0.59005  0.40995  Biso   1.000  C
  H1111    1.0000 0.67910  0.58180  0.41820  Biso   1.000  H
  C1112    1.0000 0.75480  0.62010  0.37990  Biso   1.000  C
  H1112    1.0000 0.77280  0.63110  0.36890  Biso   1.000  H
  C1113    1.0000 0.80021  0.40995  0.90995  Biso   1.000  C
  H1113    1.0000 0.82090  0.41820  0.91820  Biso   1.000  H
  C1114    1.0000 0.74520  0.37990  0.87990  Biso   1.000  C
  H1114    1.0000 0.72720  0.36890  0.86890  Biso   1.000  H
  C1115    1.0000 0.69979  0.40995  0.59005  Biso   1.000  C
  H1115    1.0000 0.67910  0.41820  0.58180  Biso   1.000  H
  C1116    1.0000 0.75480  0.37990  0.62010  Biso   1.000  C
  H1116    1.0000 0.77280  0.36890  0.63110  Biso   1.000  H
  C1117    1.0000 0.30021  0.09005  0.90995  Biso   1.000  C
  H1117    1.0000 0.32090  0.08180  0.91820  Biso   1.000  H
  C1118    1.0000 0.24520  0.12010  0.87990  Biso   1.000  C
  H1118    1.0000 0.22720  0.13110  0.86890  Biso   1.000  H
  C1119    1.0000 0.19979  0.90995  0.40995  Biso   1.000  C
  H1119    1.0000 0.17910  0.91820  0.41820  Biso   1.000  H
  C1120    1.0000 0.25480  0.87990  0.37990  Biso   1.000  C
  H1120    1.0000 0.27280  0.86890  0.36890  Biso   1.000  H
  C1121    1.0000 0.69979  0.90995  0.90995  Biso   1.000  C
  H1121    1.0000 0.67910  0.91820  0.91820  Biso   1.000  H
  C1122    1.0000 0.75480  0.87990  0.87990  Biso   1.000  C
  H1122    1.0000 0.77280  0.86890  0.86890  Biso   1.000  H
  C1123    1.0000 0.80021  0.90995  0.59005  Biso   1.000  C
  H1123    1.0000 0.82090  0.91820  0.58180  Biso   1.000  H
  C1124    1.0000 0.74520  0.87990  0.62010  Biso   1.000  C
  H1124    1.0000 0.72720  0.86890  0.63110  Biso   1.000  H
  C1125    1.0000 0.30021  0.90995  0.09005  Biso   1.000  C
  H1125    1.0000 0.32090  0.91820  0.08180  Biso   1.000  H
  C1126    1.0000 0.24520  0.87990  0.12010  Biso   1.000  C
  H1126    1.0000 0.22720  0.86890  0.13110  Biso   1.000  H
  C1127    1.0000 0.19979  0.09005  0.59005  Biso   1.000  C
  H1127    1.0000 0.17910  0.08180  0.58180  Biso   1.000  H
  C1128    1.0000 0.25480  0.12010  0.62010  Biso   1.000  C
  H1128    1.0000 0.27280  0.13110  0.63110  Biso   1.000  H
  C1129    1.0000 0.09005  0.59005  0.19979  Biso   1.000  C
  H1129    1.0000 0.08180  0.58180  0.17910  Biso   1.000  H
  C1130    1.0000 0.12010  0.62010  0.25480  Biso   1.000  C
  H1130    1.0000 0.13110  0.63110  0.27280  Biso   1.000  H
  C1131    1.0000 0.90995  0.59005  0.80021  Biso   1.000  C
  H1131    1.0000 0.91820  0.58180  0.82090  Biso   1.000  H
  C1132    1.0000 0.87990  0.62010  0.74520  Biso   1.000  C
  H1132    1.0000 0.86890  0.63110  0.72720  Biso   1.000  H
  C1133    1.0000 0.90995  0.09005  0.30021  Biso   1.000  C
  H1133    1.0000 0.91820  0.08180  0.32090  Biso   1.000  H
  C1134    1.0000 0.87990  0.12010  0.24520  Biso   1.000  C
  H1134    1.0000 0.86890  0.13110  0.22720  Biso   1.000  H
  C1135    1.0000 0.90995  0.40995  0.19979  Biso   1.000  C
  H1135    1.0000 0.91820  0.41820  0.17910  Biso   1.000  H
  C1136    1.0000 0.87990  0.37990  0.25480  Biso   1.000  C
  H1136    1.0000 0.86890  0.36890  0.27280  Biso   1.000  H
  C1137    1.0000 0.90995  0.90995  0.69979  Biso   1.000  C
  H1137    1.0000 0.91820  0.91820  0.67910  Biso   1.000  H
  C1138    1.0000 0.87990  0.87990  0.75480  Biso   1.000  C
  H1138    1.0000 0.86890  0.86890  0.77280  Biso   1.000  H
  C1139    1.0000 0.09005  0.90995  0.30021  Biso   1.000  C
  H1139    1.0000 0.08180  0.91820  0.32090  Biso   1.000  H
  C1140    1.0000 0.12010  0.87990  0.24520  Biso   1.000  C
  H1140    1.0000 0.13110  0.86890  0.22720  Biso   1.000  H
  C1141    1.0000 0.59005  0.80021  0.90995  Biso   1.000  C
  H1141    1.0000 0.58180  0.82090  0.91820  Biso   1.000  H
  C1142    1.0000 0.62010  0.74520  0.87990  Biso   1.000  C
  H1142    1.0000 0.63110  0.72720  0.86890  Biso   1.000  H
  C1143    1.0000 0.59005  0.30021  0.40995  Biso   1.000  C
  H1143    1.0000 0.58180  0.32090  0.41820  Biso   1.000  H
  C1144    1.0000 0.62010  0.24520  0.37990  Biso   1.000  C
  H1144    1.0000 0.63110  0.22720  0.36890  Biso   1.000  H
  C1145    1.0000 0.59005  0.19979  0.09005  Biso   1.000  C
  H1145    1.0000 0.58180  0.17910  0.08180  Biso   1.000  H
  C1146    1.0000 0.62010  0.25480  0.12010  Biso   1.000  C
  H1146    1.0000 0.63110  0.27280  0.13110  Biso   1.000  H
  C1147    1.0000 0.59005  0.69979  0.59005  Biso   1.000  C
  H1147    1.0000 0.58180  0.67910  0.58180  Biso   1.000  H
  C1148    1.0000 0.62010  0.75480  0.62010  Biso   1.000  C
  H1148    1.0000 0.63110  0.77280  0.63110  Biso   1.000  H
  C1149    1.0000 0.40995  0.30021  0.59005  Biso   1.000  C
  H1149    1.0000 0.41820  0.32090  0.58180  Biso   1.000  H
  C1150    1.0000 0.37990  0.24520  0.62010  Biso   1.000  C
  H1150    1.0000 0.36890  0.22720  0.63110  Biso   1.000  H
  C1151    1.0000 0.40995  0.19979  0.90995  Biso   1.000  C
  H1151    1.0000 0.41820  0.17910  0.91820  Biso   1.000  H
  C1152    1.0000 0.37990  0.25480  0.87990  Biso   1.000  C
  H1152    1.0000 0.36890  0.27280  0.86890  Biso   1.000  H
  C1153    1.0000 0.78710  0.26220  0.50000  Biso   1.000  C
  C1154    1.0000 0.78710  0.76220  0.00000  Biso   1.000  C
  C1155    1.0000 0.28710  0.26220  0.00000  Biso   1.000  C
  C1156    1.0000 0.28710  0.76220  0.50000  Biso   1.000  C
  C1157    1.0000 0.21290  0.73780  0.50000  Biso   1.000  C
  C1158    1.0000 0.21290  0.23780  0.00000  Biso   1.000  C
  C1159    1.0000 0.71290  0.73780  0.00000  Biso   1.000  C
  C1160    1.0000 0.71290  0.23780  0.50000  Biso   1.000  C
  C1161    1.0000 0.21290  0.26220  0.50000  Biso   1.000  C
  C1162    1.0000 0.21290  0.76220  0.00000  Biso   1.000  C
  C1163    1.0000 0.71290  0.26220  0.00000  Biso   1.000  C
  C1164    1.0000 0.71290  0.76220  0.50000  Biso   1.000  C
  C1165    1.0000 0.78710  0.73780  0.50000  Biso   1.000  C
  C1166    1.0000 0.78710  0.23780  0.00000  Biso   1.000  C
  C1167    1.0000 0.28710  0.73780  0.00000  Biso   1.000  C
  C1168    1.0000 0.28710  0.23780  0.50000  Biso   1.000  C
  C1169    1.0000 0.50000  0.78710  0.26220  Biso   1.000  C
  C1170    1.0000 0.50000  0.28710  0.76220  Biso   1.000  C
  C1171    1.0000 0.00000  0.78710  0.76220  Biso   1.000  C
  C1172    1.0000 0.00000  0.28710  0.26220  Biso   1.000  C
  C1173    1.0000 0.50000  0.21290  0.73780  Biso   1.000  C
  C1174    1.0000 0.50000  0.71290  0.23780  Biso   1.000  C
  C1175    1.0000 0.00000  0.21290  0.23780  Biso   1.000  C
  C1176    1.0000 0.00000  0.71290  0.73780  Biso   1.000  C
  C1177    1.0000 0.50000  0.21290  0.26220  Biso   1.000  C
  C1178    1.0000 0.50000  0.71290  0.76220  Biso   1.000  C
  C1179    1.0000 0.00000  0.21290  0.76220  Biso   1.000  C
  C1180    1.0000 0.00000  0.71290  0.26220  Biso   1.000  C
  C1181    1.0000 0.50000  0.78710  0.73780  Biso   1.000  C
  C1182    1.0000 0.50000  0.28710  0.23780  Biso   1.000  C
  C1183    1.0000 0.00000  0.78710  0.23780  Biso   1.000  C
  C1184    1.0000 0.00000  0.28710  0.73780  Biso   1.000  C
  C1185    1.0000 0.26220  0.50000  0.78710  Biso   1.000  C
  C1186    1.0000 0.26220  0.00000  0.28710  Biso   1.000  C
  C1187    1.0000 0.76220  0.50000  0.28710  Biso   1.000  C
  C1188    1.0000 0.76220  0.00000  0.78710  Biso   1.000  C
  C1189    1.0000 0.73780  0.50000  0.21290  Biso   1.000  C
  C1190    1.0000 0.73780  0.00000  0.71290  Biso   1.000  C
  C1191    1.0000 0.23780  0.50000  0.71290  Biso   1.000  C
  C1192    1.0000 0.23780  0.00000  0.21290  Biso   1.000  C
  C1193    1.0000 0.26220  0.50000  0.21290  Biso   1.000  C
  C1194    1.0000 0.26220  0.00000  0.71290  Biso   1.000  C
  C1195    1.0000 0.76220  0.50000  0.71290  Biso   1.000  C
  C1196    1.0000 0.76220  0.00000  0.21290  Biso   1.000  C
  C1197    1.0000 0.73780  0.50000  0.78710  Biso   1.000  C
  C1198    1.0000 0.73780  0.00000  0.28710  Biso   1.000  C
  C1199    1.0000 0.23780  0.50000  0.28710  Biso   1.000  C
  C1200    1.0000 0.23780  0.00000  0.78710  Biso   1.000  C
  C1201    1.0000 0.26220  0.78710  0.50000  Biso   1.000  C
  C1202    1.0000 0.26220  0.28710  0.00000  Biso   1.000  C
  C1203    1.0000 0.76220  0.78710  0.00000  Biso   1.000  C
  C1204    1.0000 0.76220  0.28710  0.50000  Biso   1.000  C
  C1205    1.0000 0.73780  0.21290  0.50000  Biso   1.000  C
  C1206    1.0000 0.73780  0.71290  0.00000  Biso   1.000  C
  C1207    1.0000 0.23780  0.21290  0.00000  Biso   1.000  C
  C1208    1.0000 0.23780  0.71290  0.50000  Biso   1.000  C
  C1209    1.0000 0.26220  0.21290  0.50000  Biso   1.000  C
  C1210    1.0000 0.26220  0.71290  0.00000  Biso   1.000  C
  C1211    1.0000 0.76220  0.21290  0.00000  Biso   1.000  C
  C1212    1.0000 0.76220  0.71290  0.50000  Biso   1.000  C
  C1213    1.0000 0.73780  0.78710  0.50000  Biso   1.000  C
  C1214    1.0000 0.73780  0.28710  0.00000  Biso   1.000  C
  C1215    1.0000 0.23780  0.78710  0.00000  Biso   1.000  C
  C1216    1.0000 0.23780  0.28710  0.50000  Biso   1.000  C
  C1217    1.0000 0.78710  0.50000  0.73780  Biso   1.000  C
  C1218    1.0000 0.78710  0.00000  0.23780  Biso   1.000  C
  C1219    1.0000 0.28710  0.50000  0.23780  Biso   1.000  C
  C1220    1.0000 0.28710  0.00000  0.73780  Biso   1.000  C
  C1221    1.0000 0.21290  0.50000  0.26220  Biso   1.000  C
  C1222    1.0000 0.21290  0.00000  0.76220  Biso   1.000  C
  C1223    1.0000 0.71290  0.50000  0.76220  Biso   1.000  C
  C1224    1.0000 0.71290  0.00000  0.26220  Biso   1.000  C
  C1225    1.0000 0.21290  0.50000  0.73780  Biso   1.000  C
  C1226    1.0000 0.21290  0.00000  0.23780  Biso   1.000  C
  C1227    1.0000 0.71290  0.50000  0.23780  Biso   1.000  C
  C1228    1.0000 0.71290  0.00000  0.73780  Biso   1.000  C
  C1229    1.0000 0.78710  0.50000  0.26220  Biso   1.000  C
  C1230    1.0000 0.78710  0.00000  0.76220  Biso   1.000  C
  C1231    1.0000 0.28710  0.50000  0.76220  Biso   1.000  C
  C1232    1.0000 0.28710  0.00000  0.26220  Biso   1.000  C
  C1233    1.0000 0.50000  0.26220  0.21290  Biso   1.000  C
  C1234    1.0000 0.50000  0.76220  0.71290  Biso   1.000  C
  C1235    1.0000 0.00000  0.26220  0.71290  Biso   1.000  C
  C1236    1.0000 0.00000  0.76220  0.21290  Biso   1.000  C
  C1237    1.0000 0.50000  0.73780  0.78710  Biso   1.000  C
  C1238    1.0000 0.50000  0.23780  0.28710  Biso   1.000  C
  C1239    1.0000 0.00000  0.73780  0.28710  Biso   1.000  C
  C1240    1.0000 0.00000  0.23780  0.78710  Biso   1.000  C
  C1241    1.0000 0.50000  0.26220  0.78710  Biso   1.000  C
  C1242    1.0000 0.50000  0.76220  0.28710  Biso   1.000  C
  C1243    1.0000 0.00000  0.26220  0.28710  Biso   1.000  C
  C1244    1.0000 0.00000  0.76220  0.78710  Biso   1.000  C
  C1245    1.0000 0.50000  0.73780  0.21290  Biso   1.000  C
  C1246    1.0000 0.50000  0.23780  0.71290  Biso   1.000  C
  C1247    1.0000 0.00000  0.73780  0.71290  Biso   1.000  C
  C1248    1.0000 0.00000  0.23780  0.21290  Biso   1.000  C
  C1249    1.0000 0.73560  0.10640  0.60640  Biso   1.000  C
  H1153    1.0000 0.71350  0.11270  0.61270  Biso   1.000  H
  C1250    1.0000 0.23560  0.10640  0.10640  Biso   1.000  C
  H1154    1.0000 0.21350  0.11270  0.11270  Biso   1.000  H
  C1251    1.0000 0.23560  0.60640  0.60640  Biso   1.000  C
  H1155    1.0000 0.21350  0.61270  0.61270  Biso   1.000  H
  C1252    1.0000 0.26440  0.89360  0.60640  Biso   1.000  C
  H1156    1.0000 0.28650  0.88730  0.61270  Biso   1.000  H
  C1253    1.0000 0.76440  0.89360  0.10640  Biso   1.000  C
  H1157    1.0000 0.78650  0.88730  0.11270  Biso   1.000  H
  C1254    1.0000 0.26440  0.10640  0.39360  Biso   1.000  C
  H1158    1.0000 0.28650  0.11270  0.38730  Biso   1.000  H
  C1255    1.0000 0.26440  0.60640  0.89360  Biso   1.000  C
  H1159    1.0000 0.28650  0.61270  0.88730  Biso   1.000  H
  C1256    1.0000 0.76440  0.10640  0.89360  Biso   1.000  C
  H1160    1.0000 0.78650  0.11270  0.88730  Biso   1.000  H
  C1257    1.0000 0.73560  0.89360  0.39360  Biso   1.000  C
  H1161    1.0000 0.71350  0.88730  0.38730  Biso   1.000  H
  C1258    1.0000 0.23560  0.89360  0.89360  Biso   1.000  C
  H1162    1.0000 0.21350  0.88730  0.88730  Biso   1.000  H
  C1259    1.0000 0.60640  0.73560  0.10640  Biso   1.000  C
  H1163    1.0000 0.61270  0.71350  0.11270  Biso   1.000  H
  C1260    1.0000 0.60640  0.23560  0.60640  Biso   1.000  C
  H1164    1.0000 0.61270  0.21350  0.61270  Biso   1.000  H
  C1261    1.0000 0.60640  0.26440  0.89360  Biso   1.000  C
  H1165    1.0000 0.61270  0.28650  0.88730  Biso   1.000  H
  C1262    1.0000 0.60640  0.76440  0.39360  Biso   1.000  C
  H1166    1.0000 0.61270  0.78650  0.38730  Biso   1.000  H
  C1263    1.0000 0.39360  0.26440  0.10640  Biso   1.000  C
  H1167    1.0000 0.38730  0.28650  0.11270  Biso   1.000  H
  C1264    1.0000 0.39360  0.76440  0.60640  Biso   1.000  C
  H1168    1.0000 0.38730  0.78650  0.61270  Biso   1.000  H
  C1265    1.0000 0.89360  0.26440  0.60640  Biso   1.000  C
  H1169    1.0000 0.88730  0.28650  0.61270  Biso   1.000  H
  C1266    1.0000 0.39360  0.73560  0.89360  Biso   1.000  C
  H1170    1.0000 0.38730  0.71350  0.88730  Biso   1.000  H
  C1267    1.0000 0.39360  0.23560  0.39360  Biso   1.000  C
  H1171    1.0000 0.38730  0.21350  0.38730  Biso   1.000  H
  C1268    1.0000 0.89360  0.23560  0.89360  Biso   1.000  C
  H1172    1.0000 0.88730  0.21350  0.88730  Biso   1.000  H
  C1269    1.0000 0.10640  0.60640  0.73560  Biso   1.000  C
  H1173    1.0000 0.11270  0.61270  0.71350  Biso   1.000  H
  C1270    1.0000 0.10640  0.10640  0.23560  Biso   1.000  C
  H1174    1.0000 0.11270  0.11270  0.21350  Biso   1.000  H
  C1271    1.0000 0.60640  0.60640  0.23560  Biso   1.000  C
  H1175    1.0000 0.61270  0.61270  0.21350  Biso   1.000  H
  C1272    1.0000 0.89360  0.60640  0.26440  Biso   1.000  C
  H1176    1.0000 0.88730  0.61270  0.28650  Biso   1.000  H
  C1273    1.0000 0.89360  0.10640  0.76440  Biso   1.000  C
  H1177    1.0000 0.88730  0.11270  0.78650  Biso   1.000  H
  C1274    1.0000 0.10640  0.39360  0.26440  Biso   1.000  C
  H1178    1.0000 0.11270  0.38730  0.28650  Biso   1.000  H
  C1275    1.0000 0.10640  0.89360  0.76440  Biso   1.000  C
  H1179    1.0000 0.11270  0.88730  0.78650  Biso   1.000  H
  C1276    1.0000 0.60640  0.89360  0.26440  Biso   1.000  C
  H1180    1.0000 0.61270  0.88730  0.28650  Biso   1.000  H
  C1277    1.0000 0.89360  0.39360  0.73560  Biso   1.000  C
  H1181    1.0000 0.88730  0.38730  0.71350  Biso   1.000  H
  C1278    1.0000 0.89360  0.89360  0.23560  Biso   1.000  C
  H1182    1.0000 0.88730  0.88730  0.21350  Biso   1.000  H
  C1279    1.0000 0.10640  0.73560  0.39360  Biso   1.000  C
  H1183    1.0000 0.11270  0.71350  0.38730  Biso   1.000  H
  C1280    1.0000 0.10640  0.23560  0.89360  Biso   1.000  C
  H1184    1.0000 0.11270  0.21350  0.88730  Biso   1.000  H
  C1281    1.0000 0.60640  0.73560  0.89360  Biso   1.000  C
  H1185    1.0000 0.61270  0.71350  0.88730  Biso   1.000  H
  C1282    1.0000 0.89360  0.26440  0.39360  Biso   1.000  C
  H1186    1.0000 0.88730  0.28650  0.38730  Biso   1.000  H
  C1283    1.0000 0.89360  0.76440  0.89360  Biso   1.000  C
  H1187    1.0000 0.88730  0.78650  0.88730  Biso   1.000  H
  C1284    1.0000 0.10640  0.26440  0.60640  Biso   1.000  C
  H1188    1.0000 0.11270  0.28650  0.61270  Biso   1.000  H
  C1285    1.0000 0.10640  0.76440  0.10640  Biso   1.000  C
  H1189    1.0000 0.11270  0.78650  0.11270  Biso   1.000  H
  C1286    1.0000 0.60640  0.76440  0.60640  Biso   1.000  C
  H1190    1.0000 0.61270  0.78650  0.61270  Biso   1.000  H
  C1287    1.0000 0.89360  0.73560  0.60640  Biso   1.000  C
  H1191    1.0000 0.88730  0.71350  0.61270  Biso   1.000  H
  C1288    1.0000 0.89360  0.23560  0.10640  Biso   1.000  C
  H1192    1.0000 0.88730  0.21350  0.11270  Biso   1.000  H
  C1289    1.0000 0.73560  0.60640  0.89360  Biso   1.000  C
  H1193    1.0000 0.71350  0.61270  0.88730  Biso   1.000  H
  C1290    1.0000 0.23560  0.60640  0.39360  Biso   1.000  C
  H1194    1.0000 0.21350  0.61270  0.38730  Biso   1.000  H
  C1291    1.0000 0.26440  0.60640  0.10640  Biso   1.000  C
  H1195    1.0000 0.28650  0.61270  0.11270  Biso   1.000  H
  C1292    1.0000 0.76440  0.60640  0.60640  Biso   1.000  C
  H1196    1.0000 0.78650  0.61270  0.61270  Biso   1.000  H
  C1293    1.0000 0.26440  0.39360  0.89360  Biso   1.000  C
  H1197    1.0000 0.28650  0.38730  0.88730  Biso   1.000  H
  C1294    1.0000 0.76440  0.39360  0.39360  Biso   1.000  C
  H1198    1.0000 0.78650  0.38730  0.38730  Biso   1.000  H
  C1295    1.0000 0.76440  0.89360  0.89360  Biso   1.000  C
  H1199    1.0000 0.78650  0.88730  0.88730  Biso   1.000  H
  C1296    1.0000 0.73560  0.39360  0.10640  Biso   1.000  C
  H1200    1.0000 0.71350  0.38730  0.11270  Biso   1.000  H
  C1297    1.0000 0.73560  0.89360  0.60640  Biso   1.000  C
  H1201    1.0000 0.71350  0.88730  0.61270  Biso   1.000  H
  C1298    1.0000 0.23560  0.39360  0.60640  Biso   1.000  C
  H1202    1.0000 0.21350  0.38730  0.61270  Biso   1.000  H
  C1299    1.0000 0.60640  0.10640  0.26440  Biso   1.000  C
  H1203    1.0000 0.61270  0.11270  0.28650  Biso   1.000  H
  C1300    1.0000 0.60640  0.60640  0.76440  Biso   1.000  C
  H1204    1.0000 0.61270  0.61270  0.78650  Biso   1.000  H
  C1301    1.0000 0.60640  0.89360  0.73560  Biso   1.000  C
  H1205    1.0000 0.61270  0.88730  0.71350  Biso   1.000  H
  C1302    1.0000 0.60640  0.39360  0.23560  Biso   1.000  C
  H1206    1.0000 0.61270  0.38730  0.21350  Biso   1.000  H
  C1303    1.0000 0.39360  0.10640  0.73560  Biso   1.000  C
  H1207    1.0000 0.38730  0.11270  0.71350  Biso   1.000  H
  C1304    1.0000 0.39360  0.60640  0.23560  Biso   1.000  C
  H1208    1.0000 0.38730  0.61270  0.21350  Biso   1.000  H
  C1305    1.0000 0.89360  0.60640  0.73560  Biso   1.000  C
  H1209    1.0000 0.88730  0.61270  0.71350  Biso   1.000  H
  C1306    1.0000 0.39360  0.89360  0.26440  Biso   1.000  C
  H1210    1.0000 0.38730  0.88730  0.28650  Biso   1.000  H
  C1307    1.0000 0.39360  0.39360  0.76440  Biso   1.000  C
  H1211    1.0000 0.38730  0.38730  0.78650  Biso   1.000  H
  C1308    1.0000 0.89360  0.89360  0.76440  Biso   1.000  C
  H1212    1.0000 0.88730  0.88730  0.78650  Biso   1.000  H
  C1309    1.0000 0.26440  0.89360  0.39360  Biso   1.000  C
  H1213    1.0000 0.28650  0.88730  0.38730  Biso   1.000  H
  C1310    1.0000 0.73560  0.10640  0.39360  Biso   1.000  C
  H1214    1.0000 0.71350  0.11270  0.38730  Biso   1.000  H
  C1311    1.0000 0.23560  0.10640  0.89360  Biso   1.000  C
  H1215    1.0000 0.21350  0.11270  0.88730  Biso   1.000  H
  C1312    1.0000 0.23560  0.89360  0.10640  Biso   1.000  C
  H1216    1.0000 0.21350  0.88730  0.11270  Biso   1.000  H
  C1313    1.0000 0.26440  0.10640  0.60640  Biso   1.000  C
  H1217    1.0000 0.28650  0.11270  0.61270  Biso   1.000  H
  C1314    1.0000 0.76440  0.10640  0.10640  Biso   1.000  C
  H1218    1.0000 0.78650  0.11270  0.11270  Biso   1.000  H
  C1315    1.0000 0.39360  0.26440  0.89360  Biso   1.000  C
  H1219    1.0000 0.38730  0.28650  0.88730  Biso   1.000  H
  C1316    1.0000 0.39360  0.76440  0.39360  Biso   1.000  C
  H1220    1.0000 0.38730  0.78650  0.38730  Biso   1.000  H
  C1317    1.0000 0.39360  0.73560  0.10640  Biso   1.000  C
  H1221    1.0000 0.38730  0.71350  0.11270  Biso   1.000  H
  C1318    1.0000 0.39360  0.23560  0.60640  Biso   1.000  C
  H1222    1.0000 0.38730  0.21350  0.61270  Biso   1.000  H
  C1319    1.0000 0.60640  0.23560  0.39360  Biso   1.000  C
  H1223    1.0000 0.61270  0.21350  0.38730  Biso   1.000  H
  C1320    1.0000 0.60640  0.26440  0.10640  Biso   1.000  C
  H1224    1.0000 0.61270  0.28650  0.11270  Biso   1.000  H
  C1321    1.0000 0.89360  0.39360  0.26440  Biso   1.000  C
  H1225    1.0000 0.88730  0.38730  0.28650  Biso   1.000  H
  C1322    1.0000 0.10640  0.39360  0.73560  Biso   1.000  C
  H1226    1.0000 0.11270  0.38730  0.71350  Biso   1.000  H
  C1323    1.0000 0.10640  0.89360  0.23560  Biso   1.000  C
  H1227    1.0000 0.11270  0.88730  0.21350  Biso   1.000  H
  C1324    1.0000 0.89360  0.10640  0.23560  Biso   1.000  C
  H1228    1.0000 0.88730  0.11270  0.21350  Biso   1.000  H
  C1325    1.0000 0.10640  0.60640  0.26440  Biso   1.000  C
  H1229    1.0000 0.11270  0.61270  0.28650  Biso   1.000  H
  C1326    1.0000 0.10640  0.10640  0.76440  Biso   1.000  C
  H1230    1.0000 0.11270  0.11270  0.78650  Biso   1.000  H
  C1327    1.0000 0.89360  0.76440  0.10640  Biso   1.000  C
  H1231    1.0000 0.88730  0.78650  0.11270  Biso   1.000  H
  C1328    1.0000 0.10640  0.73560  0.60640  Biso   1.000  C
  H1232    1.0000 0.11270  0.71350  0.61270  Biso   1.000  H
  C1329    1.0000 0.10640  0.23560  0.10640  Biso   1.000  C
  H1233    1.0000 0.11270  0.21350  0.11270  Biso   1.000  H
  C1330    1.0000 0.89360  0.73560  0.39360  Biso   1.000  C
  H1234    1.0000 0.88730  0.71350  0.38730  Biso   1.000  H
  C1331    1.0000 0.10640  0.26440  0.39360  Biso   1.000  C
  H1235    1.0000 0.11270  0.28650  0.38730  Biso   1.000  H
  C1332    1.0000 0.10640  0.76440  0.89360  Biso   1.000  C
  H1236    1.0000 0.11270  0.78650  0.88730  Biso   1.000  H
  C1333    1.0000 0.26440  0.39360  0.10640  Biso   1.000  C
  H1237    1.0000 0.28650  0.38730  0.11270  Biso   1.000  H
  C1334    1.0000 0.76440  0.39360  0.60640  Biso   1.000  C
  H1238    1.0000 0.78650  0.38730  0.61270  Biso   1.000  H
  C1335    1.0000 0.73560  0.39360  0.89360  Biso   1.000  C
  H1239    1.0000 0.71350  0.38730  0.88730  Biso   1.000  H
  C1336    1.0000 0.23560  0.39360  0.39360  Biso   1.000  C
  H1240    1.0000 0.21350  0.38730  0.38730  Biso   1.000  H
  C1337    1.0000 0.73560  0.60640  0.10640  Biso   1.000  C
  H1241    1.0000 0.71350  0.61270  0.11270  Biso   1.000  H
  C1338    1.0000 0.76440  0.60640  0.39360  Biso   1.000  C
  H1242    1.0000 0.78650  0.61270  0.38730  Biso   1.000  H
  C1339    1.0000 0.39360  0.89360  0.73560  Biso   1.000  C
  H1243    1.0000 0.38730  0.88730  0.71350  Biso   1.000  H
  C1340    1.0000 0.39360  0.39360  0.23560  Biso   1.000  C
  H1244    1.0000 0.38730  0.38730  0.21350  Biso   1.000  H
  C1341    1.0000 0.39360  0.10640  0.26440  Biso   1.000  C
  H1245    1.0000 0.38730  0.11270  0.28650  Biso   1.000  H
  C1342    1.0000 0.39360  0.60640  0.76440  Biso   1.000  C
  H1246    1.0000 0.38730  0.61270  0.78650  Biso   1.000  H
  C1343    1.0000 0.60640  0.39360  0.76440  Biso   1.000  C
  H1247    1.0000 0.61270  0.38730  0.78650  Biso   1.000  H
  C1344    1.0000 0.60640  0.10640  0.73560  Biso   1.000  C
  H1248    1.0000 0.61270  0.11270  0.71350  Biso   1.000  H
