data_image0
_cell_length_a       45.597
_cell_length_b       45.597
_cell_length_c       40.718
_cell_angle_alpha    90
_cell_angle_beta     90
_cell_angle_gamma    120

_symmetry_space_group_name_H-M    "P 1"
_symmetry_int_tables_number       1

loop_
  _symmetry_equiv_pos_as_xyz
  'x, y, z'

loop_
  _atom_site_label
  _atom_site_occupancy
  _atom_site_fract_x
  _atom_site_fract_y
  _atom_site_fract_z
  _atom_site_thermal_displace_type
  _atom_site_B_iso_or_equiv
  _atom_site_type_symbol
  In1      1.0000 0.24066  0.06441  0.45780  Biso   1.000  In
  O1       1.0000 0.26140  0.07450  0.50587  Biso   1.000  O
  O2       1.0000 0.23070  0.02280  0.49440  Biso   1.000  O
  O3       1.0000 0.19500  0.07440  0.48180  Biso   1.000  O
  O4       1.0000 0.18677  0.03810  0.44770  Biso   1.000  O
  O5       1.0000 0.23835  0.02558  0.42075  Biso   1.000  O
  O6       1.0000 0.28661  0.05941  0.44200  Biso   1.000  O
  O7       1.0000 0.27212  0.12068  0.45810  Biso   1.000  O
  O8       1.0000 0.24730  0.09850  0.41260  Biso   1.000  O
  C1       1.0000 0.25340  0.05160  0.51610  Biso   1.000  C
  C2       1.0000 0.17350  0.05190  0.46360  Biso   1.000  C
  C3       1.0000 0.25370  0.03840  0.53620  Biso   1.000  C
  C4       1.0000 0.14140  0.04400  0.46380  Biso   1.000  C
  C5       1.0000 0.27700  0.05850  0.56910  Biso   1.000  C
  C6       1.0000 0.24390  0.01050  0.55380  Biso   1.000  C
  C7       1.0000 0.12650  0.06060  0.47890  Biso   1.000  C
  C8       1.0000 0.12140  0.01640  0.44380  Biso   1.000  C
  H1       1.0000 0.29000  0.08170  0.56560  Biso   1.000  H
  C9       1.0000 0.28230  0.04900  0.60150  Biso   1.000  C
  C10      1.0000 0.24230  0.99220  0.58420  Biso   1.000  C
  H2       1.0000 0.23130  0.99320  0.53890  Biso   1.000  H
  C11      1.0000 0.09050  0.04700  0.47370  Biso   1.000  C
  C12      1.0000 0.08580  0.00360  0.43960  Biso   1.000  C
  H3       1.0000 0.29770  0.06510  0.61590  Biso   1.000  H
  C13      1.0000 0.26370  0.01540  0.61040  Biso   1.000  C
  H4       1.0000 0.22940  0.96880  0.58650  Biso   1.000  H
  H5       1.0000 0.08010  0.05750  0.48420  Biso   1.000  H
  C14      1.0000 0.07170  0.02030  0.45490  Biso   1.000  C
  H6       1.0000 0.07270  0.98450  0.42680  Biso   1.000  H
  C15      1.0000 0.26830  0.00830  0.64590  Biso   1.000  C
  C16      1.0000 0.03340  0.01170  0.45490  Biso   1.000  C
  C17      1.0000 0.24120  0.98480  0.66340  Biso   1.000  C
  C18      1.0000 0.30060  0.02310  0.66170  Biso   1.000  C
  C19      1.0000 0.01170  0.97720  0.45470  Biso   1.000  C
  H7       1.0000 0.22000  0.97500  0.65360  Biso   1.000  H
  C20      1.0000 0.24330  0.97480  0.69500  Biso   1.000  C
  C21      1.0000 0.30360  0.01320  0.69350  Biso   1.000  C
  H8       1.0000 0.31970  0.03940  0.65070  Biso   1.000  H
  H9       1.0000 0.01960  0.96210  0.45430  Biso   1.000  H
  C22      1.0000 0.27490  0.98960  0.70910  Biso   1.000  C
  C23      1.0000 0.21440  0.95054  0.71360  Biso   1.000  C
  C24      1.0000 0.33790  0.02810  0.70880  Biso   1.000  C
  H10      1.0000 0.27680  0.98330  0.73030  Biso   1.000  H
  C25      1.0000 0.18210  0.94339  0.70448  Biso   1.000  C
  C26      1.0000 0.21846  0.93240  0.73890  Biso   1.000  C
  C27      1.0000 0.34500  0.00650  0.72850  Biso   1.000  C
  C28      1.0000 0.36320  0.06020  0.70430  Biso   1.000  C
  H11      1.0000 0.17940  0.95550  0.68760  Biso   1.000  H
  C29      1.0000 0.15389  0.91810  0.72060  Biso   1.000  C
  C30      1.0000 0.19030  0.90710  0.75500  Biso   1.000  C
  H12      1.0000 0.32840  0.98390  0.73130  Biso   1.000  H
  C31      1.0000 0.37610  0.01850  0.74350  Biso   1.000  C
  C32      1.0000 0.39360  0.07150  0.72150  Biso   1.000  C
  H13      1.0000 0.36060  0.07460  0.69000  Biso   1.000  H
  H14      1.0000 0.13230  0.91330  0.71450  Biso   1.000  H
  C33      1.0000 0.15797  0.89991  0.74580  Biso   1.000  C
  H15      1.0000 0.38050  0.00400  0.75590  Biso   1.000  H
  C34      1.0000 0.40050  0.05210  0.74010  Biso   1.000  C
  H16      1.0000 0.41000  0.09430  0.71970  Biso   1.000  H
  C35      1.0000 0.12380  0.87130  0.76340  Biso   1.000  C
  C36      1.0000 0.43330  0.06460  0.75730  Biso   1.000  C
  O9       1.0000 0.09620  0.86240  0.75095  Biso   1.000  O
  O10      1.0000 0.12985  0.86215  0.78906  Biso   1.000  O
  In2      1.0000 0.06917  0.82880  0.79455  Biso   1.000  In
  O11      1.0000 0.03460  0.79617  0.83641  Biso   1.000  O
  O12      1.0000 0.09048  0.82420  0.84359  Biso   1.000  O
  O13      1.0000 0.03035  0.84499  0.78176  Biso   1.000  O
  O14      1.0000 0.07242  0.87573  0.81692  Biso   1.000  O
  O15      1.0000 0.03723  0.78363  0.76027  Biso   1.000  O
  O16      1.0000 0.07750  0.78470  0.78760  Biso   1.000  O
  C37      1.0000 0.06200  0.80530  0.85320  Biso   1.000  C
  C38      1.0000 0.04660  0.86960  0.79880  Biso   1.000  C
  C39      1.0000 0.05470  0.78980  0.88851  Biso   1.000  C
  C40      1.0000 0.03610  0.89670  0.80300  Biso   1.000  C
  C41      1.0000 0.02610  0.75980  0.89780  Biso   1.000  C
  C42      1.0000 0.08011  0.80806  0.91130  Biso   1.000  C
  C43      1.0000 0.05180  0.92220  0.82620  Biso   1.000  C
  C44      1.0000 0.00980  0.89472  0.78400  Biso   1.000  C
  C45      1.0000 0.02292  0.74797  0.92980  Biso   1.000  C
  C46      1.0000 0.07696  0.79630  0.94329  Biso   1.000  C
  C47      1.0000 0.04120  0.94580  0.83050  Biso   1.000  C
  C48      1.0000 0.99930  0.91830  0.78820  Biso   1.000  C
  C49      1.0000 0.04840  0.76620  0.95254  Biso   1.000  C
  C50      1.0000 0.01500  0.94380  0.81150  Biso   1.000  C
  C51      1.0000 0.04690  0.75170  0.98550  Biso   1.000  C
  C52      1.0000 0.00850  0.97250  0.81110  Biso   1.000  C
  C53      1.0000 0.01660  0.72750  0.00070  Biso   1.000  C
  C54      1.0000 0.07650  0.76190  0.00280  Biso   1.000  C
  C55      1.0000 0.97370  0.96680  0.81460  Biso   1.000  C
  H17      1.0000 0.99600  0.71940  0.98990  Biso   1.000  H
  C56      1.0000 0.01770  0.71570  0.03210  Biso   1.000  C
  C57      1.0000 0.07820  0.75160  0.03310  Biso   1.000  C
  H18      1.0000 0.09670  0.77710  0.99260  Biso   1.000  H
  C58      1.0000 0.04810  0.72740  0.04900  Biso   1.000  C
  C59      1.0000 0.98470  0.69020  0.04839  Biso   1.000  C
  C60      1.0000 0.11100  0.76370  0.05150  Biso   1.000  C
  H19      1.0000 0.04860  0.71960  0.06990  Biso   1.000  H
  C61      1.0000 0.95720  0.69544  0.04980  Biso   1.000  C
  C62      1.0000 0.98227  0.66110  0.06200  Biso   1.000  C
  C63      1.0000 0.11480  0.76970  0.08510  Biso   1.000  C
  C64      1.0000 0.14100  0.77110  0.03330  Biso   1.000  C
  C65      1.0000 0.92730  0.67160  0.06480  Biso   1.000  C
  C66      1.0000 0.95240  0.63726  0.07700  Biso   1.000  C
  H20      1.0000 0.09640  0.76500  0.09850  Biso   1.000  H
  C67      1.0000 0.14790  0.78330  0.09830  Biso   1.000  C
  C68      1.0000 0.17090  0.78360  0.04810  Biso   1.000  C
  H21      1.0000 0.13940  0.76710  0.01080  Biso   1.000  H
  C69      1.0000 0.92488  0.64250  0.07841  Biso   1.000  C
  H22      1.0000 0.15090  0.78670  0.12080  Biso   1.000  H
  C70      1.0000 0.17570  0.79170  0.07880  Biso   1.000  C
  H23      1.0000 0.18930  0.78670  0.03560  Biso   1.000  H
  C71      1.0000 0.89160  0.61660  0.09660  Biso   1.000  C
  C72      1.0000 0.20890  0.80830  0.09570  Biso   1.000  C
  C73      1.0000 0.18990  0.90410  0.75130  Biso   1.000  C
  C74      1.0000 0.04730  0.95400  0.81510  Biso   1.000  C
  C75      1.0000 0.05750  0.93010  0.81240  Biso   1.000  C
  C76      1.0000 0.02130  0.94870  0.79370  Biso   1.000  C
  C77      1.0000 0.00360  0.92030  0.77390  Biso   1.000  C
  C78      1.0000 0.01030  0.97410  0.78990  Biso   1.000  C
  C79      1.0000 0.97470  0.96540  0.79490  Biso   1.000  C
  C80      1.0000 0.17810  0.05820  0.45800  Biso   1.000  C
  C81      1.0000 0.13820  0.02490  0.45600  Biso   1.000  C
  C82      1.0000 0.07740  0.77540  0.93420  Biso   1.000  C
  C83      1.0000 0.08230  0.79020  0.90330  Biso   1.000  C
  C84      1.0000 0.01990  0.76170  0.93570  Biso   1.000  C
  C85      1.0000 0.02290  0.77230  0.90320  Biso   1.000  C
  C86      1.0000 0.97190  0.69760  0.07620  Biso   1.000  C
  C87      1.0000 0.94360  0.67390  0.09340  Biso   1.000  C
  C88      1.0000 0.93570  0.63290  0.05060  Biso   1.000  C
  C89      1.0000 0.96240  0.65930  0.03390  Biso   1.000  C
  O17      1.0000 0.87330  0.62840  0.10500  Biso   1.000  O
  C90      1.0000 0.43490  0.06357  0.75380  Biso   1.000  C
  In3      1.0000 0.90732  0.39774  0.79113  Biso   1.000  In
  O18      1.0000 0.92807  0.40783  0.83920  Biso   1.000  O
  O19      1.0000 0.89737  0.35613  0.82773  Biso   1.000  O
  O20      1.0000 0.86167  0.40773  0.81513  Biso   1.000  O
  O21      1.0000 0.85344  0.37143  0.78103  Biso   1.000  O
  O22      1.0000 0.90502  0.35891  0.75408  Biso   1.000  O
  O23      1.0000 0.95328  0.39274  0.77533  Biso   1.000  O
  O24      1.0000 0.93879  0.45401  0.79143  Biso   1.000  O
  O25      1.0000 0.91397  0.43183  0.74593  Biso   1.000  O
  C91      1.0000 0.92007  0.38493  0.84943  Biso   1.000  C
  C92      1.0000 0.84017  0.38523  0.79693  Biso   1.000  C
  C93      1.0000 0.92037  0.37173  0.86953  Biso   1.000  C
  C94      1.0000 0.80807  0.37733  0.79713  Biso   1.000  C
  C95      1.0000 0.94367  0.39183  0.90243  Biso   1.000  C
  C96      1.0000 0.91057  0.34383  0.88713  Biso   1.000  C
  C97      1.0000 0.79317  0.39393  0.81223  Biso   1.000  C
  C98      1.0000 0.78807  0.34973  0.77713  Biso   1.000  C
  H24      1.0000 0.95667  0.41503  0.89893  Biso   1.000  H
  C99      1.0000 0.94897  0.38233  0.93483  Biso   1.000  C
  C100     1.0000 0.90897  0.32553  0.91753  Biso   1.000  C
  H25      1.0000 0.89797  0.32653  0.87223  Biso   1.000  H
  C101     1.0000 0.75717  0.38033  0.80703  Biso   1.000  C
  C102     1.0000 0.75247  0.33693  0.77293  Biso   1.000  C
  H26      1.0000 0.96437  0.39843  0.94923  Biso   1.000  H
  C103     1.0000 0.93037  0.34873  0.94373  Biso   1.000  C
  H27      1.0000 0.89607  0.30213  0.91983  Biso   1.000  H
  H28      1.0000 0.74677  0.39083  0.81753  Biso   1.000  H
  C104     1.0000 0.73837  0.35363  0.78823  Biso   1.000  C
  H29      1.0000 0.73937  0.31783  0.76013  Biso   1.000  H
  C105     1.0000 0.93497  0.34163  0.97923  Biso   1.000  C
  C106     1.0000 0.70007  0.34503  0.78823  Biso   1.000  C
  C107     1.0000 0.90787  0.31813  0.99673  Biso   1.000  C
  C108     1.0000 0.96727  0.35643  0.99503  Biso   1.000  C
  C109     1.0000 0.67837  0.31053  0.78803  Biso   1.000  C
  H30      1.0000 0.88667  0.30833  0.98693  Biso   1.000  H
  C110     1.0000 0.90997  0.30813  0.02833  Biso   1.000  C
  C111     1.0000 0.97027  0.34653  0.02683  Biso   1.000  C
  H31      1.0000 0.98637  0.37273  0.98403  Biso   1.000  H
  H32      1.0000 0.68627  0.29543  0.78763  Biso   1.000  H
  C112     1.0000 0.94157  0.32293  0.04243  Biso   1.000  C
  C113     1.0000 0.88107  0.28387  0.04693  Biso   1.000  C
  C114     1.0000 0.00457  0.36143  0.04213  Biso   1.000  C
  H33      1.0000 0.94347  0.31663  0.06363  Biso   1.000  H
  C115     1.0000 0.84877  0.27672  0.03781  Biso   1.000  C
  C116     1.0000 0.88513  0.26573  0.07223  Biso   1.000  C
  C117     1.0000 0.01167  0.33983  0.06183  Biso   1.000  C
  C118     1.0000 0.02987  0.39353  0.03763  Biso   1.000  C
  H34      1.0000 0.84607  0.28883  0.02093  Biso   1.000  H
  C119     1.0000 0.82056  0.25143  0.05393  Biso   1.000  C
  C120     1.0000 0.85697  0.24043  0.08833  Biso   1.000  C
  H35      1.0000 0.99507  0.31723  0.06463  Biso   1.000  H
  C121     1.0000 0.04277  0.35183  0.07683  Biso   1.000  C
  C122     1.0000 0.06027  0.40483  0.05483  Biso   1.000  C
  H36      1.0000 0.02727  0.40793  0.02333  Biso   1.000  H
  H37      1.0000 0.79897  0.24663  0.04783  Biso   1.000  H
  C123     1.0000 0.82464  0.23324  0.07913  Biso   1.000  C
  H38      1.0000 0.04717  0.33733  0.08923  Biso   1.000  H
  C124     1.0000 0.06717  0.38543  0.07343  Biso   1.000  C
  H39      1.0000 0.07667  0.42763  0.05303  Biso   1.000  H
  C125     1.0000 0.79047  0.20463  0.09673  Biso   1.000  C
  C126     1.0000 0.09997  0.39793  0.09063  Biso   1.000  C
  O26      1.0000 0.76287  0.19573  0.08428  Biso   1.000  O
  O27      1.0000 0.79652  0.19548  0.12239  Biso   1.000  O
  In4      1.0000 0.73583  0.16214  0.12788  Biso   1.000  In
  O28      1.0000 0.70127  0.12950  0.16974  Biso   1.000  O
  O29      1.0000 0.75715  0.15753  0.17692  Biso   1.000  O
  O30      1.0000 0.69702  0.17832  0.11509  Biso   1.000  O
  O31      1.0000 0.73909  0.20906  0.15025  Biso   1.000  O
  O32      1.0000 0.70390  0.11696  0.09360  Biso   1.000  O
  O33      1.0000 0.74417  0.11803  0.12093  Biso   1.000  O
  C127     1.0000 0.72867  0.13863  0.18653  Biso   1.000  C
  C128     1.0000 0.71327  0.20293  0.13213  Biso   1.000  C
  C129     1.0000 0.72137  0.12313  0.22184  Biso   1.000  C
  C130     1.0000 0.70277  0.23003  0.13633  Biso   1.000  C
  C131     1.0000 0.69277  0.09313  0.23113  Biso   1.000  C
  C132     1.0000 0.74678  0.14139  0.24463  Biso   1.000  C
  C133     1.0000 0.71847  0.25553  0.15953  Biso   1.000  C
  C134     1.0000 0.67647  0.22805  0.11733  Biso   1.000  C
  C135     1.0000 0.68959  0.08130  0.26313  Biso   1.000  C
  C136     1.0000 0.74363  0.12963  0.27662  Biso   1.000  C
  C137     1.0000 0.70787  0.27913  0.16383  Biso   1.000  C
  C138     1.0000 0.66597  0.25163  0.12153  Biso   1.000  C
  C139     1.0000 0.71507  0.09953  0.28587  Biso   1.000  C
  C140     1.0000 0.68167  0.27713  0.14483  Biso   1.000  C
  C141     1.0000 0.71357  0.08503  0.31883  Biso   1.000  C
  C142     1.0000 0.67517  0.30583  0.14443  Biso   1.000  C
  C143     1.0000 0.68327  0.06083  0.33403  Biso   1.000  C
  C144     1.0000 0.74317  0.09523  0.33613  Biso   1.000  C
  C145     1.0000 0.64037  0.30013  0.14793  Biso   1.000  C
  H40      1.0000 0.66267  0.05273  0.32323  Biso   1.000  H
  C146     1.0000 0.68437  0.04903  0.36543  Biso   1.000  C
  C147     1.0000 0.74487  0.08493  0.36643  Biso   1.000  C
  H41      1.0000 0.76337  0.11043  0.32593  Biso   1.000  H
  C148     1.0000 0.71477  0.06073  0.38233  Biso   1.000  C
  C149     1.0000 0.65137  0.02353  0.38172  Biso   1.000  C
  C150     1.0000 0.77767  0.09703  0.38483  Biso   1.000  C
  H42      1.0000 0.71527  0.05293  0.40323  Biso   1.000  H
  C151     1.0000 0.62387  0.02877  0.38313  Biso   1.000  C
  C152     1.0000 0.64894  0.99443  0.39533  Biso   1.000  C
  C153     1.0000 0.78147  0.10303  0.41843  Biso   1.000  C
  C154     1.0000 0.80767  0.10443  0.36663  Biso   1.000  C
  C155     1.0000 0.59397  0.00493  0.39813  Biso   1.000  C
  C156     1.0000 0.61907  0.97059  0.41033  Biso   1.000  C
  H43      1.0000 0.76307  0.09833  0.43183  Biso   1.000  H
  C157     1.0000 0.81457  0.11663  0.43163  Biso   1.000  C
  C158     1.0000 0.83757  0.11693  0.38143  Biso   1.000  C
  H44      1.0000 0.80607  0.10043  0.34413  Biso   1.000  H
  C159     1.0000 0.59155  0.97583  0.41174  Biso   1.000  C
  H45      1.0000 0.81757  0.12003  0.45413  Biso   1.000  H
  C160     1.0000 0.84237  0.12503  0.41213  Biso   1.000  C
  H46      1.0000 0.85597  0.12003  0.36893  Biso   1.000  H
  C161     1.0000 0.55827  0.94993  0.42993  Biso   1.000  C
  C162     1.0000 0.87557  0.14163  0.42903  Biso   1.000  C
  C163     1.0000 0.85657  0.23743  0.08463  Biso   1.000  C
  C164     1.0000 0.71397  0.28733  0.14843  Biso   1.000  C
  C165     1.0000 0.72417  0.26343  0.14573  Biso   1.000  C
  C166     1.0000 0.68797  0.28203  0.12703  Biso   1.000  C
  C167     1.0000 0.67027  0.25363  0.10723  Biso   1.000  C
  C168     1.0000 0.67697  0.30743  0.12323  Biso   1.000  C
  C169     1.0000 0.64137  0.29873  0.12823  Biso   1.000  C
  C170     1.0000 0.84477  0.39153  0.79133  Biso   1.000  C
  C171     1.0000 0.80487  0.35823  0.78933  Biso   1.000  C
  C172     1.0000 0.74407  0.10873  0.26753  Biso   1.000  C
  C173     1.0000 0.74897  0.12353  0.23663  Biso   1.000  C
  C174     1.0000 0.68657  0.09503  0.26903  Biso   1.000  C
  C175     1.0000 0.68957  0.10563  0.23653  Biso   1.000  C
  C176     1.0000 0.63857  0.03093  0.40953  Biso   1.000  C
  C177     1.0000 0.61027  0.00723  0.42673  Biso   1.000  C
  C178     1.0000 0.60237  0.96623  0.38393  Biso   1.000  C
  C179     1.0000 0.62907  0.99263  0.36723  Biso   1.000  C
  O34      1.0000 0.53997  0.96173  0.43833  Biso   1.000  O
  C180     1.0000 0.10157  0.39690  0.08713  Biso   1.000  C
  In5      1.0000 0.57399  0.73108  0.12447  Biso   1.000  In
  O35      1.0000 0.59473  0.74117  0.17254  Biso   1.000  O
  O36      1.0000 0.56403  0.68947  0.16107  Biso   1.000  O
  O37      1.0000 0.52833  0.74107  0.14847  Biso   1.000  O
  O38      1.0000 0.52010  0.70477  0.11437  Biso   1.000  O
  O39      1.0000 0.57168  0.69225  0.08742  Biso   1.000  O
  O40      1.0000 0.61994  0.72608  0.10867  Biso   1.000  O
  O41      1.0000 0.60545  0.78735  0.12477  Biso   1.000  O
  O42      1.0000 0.58063  0.76517  0.07927  Biso   1.000  O
  C181     1.0000 0.58673  0.71827  0.18277  Biso   1.000  C
  C182     1.0000 0.50683  0.71857  0.13027  Biso   1.000  C
  C183     1.0000 0.58703  0.70507  0.20287  Biso   1.000  C
  C184     1.0000 0.47473  0.71067  0.13047  Biso   1.000  C
  C185     1.0000 0.61033  0.72517  0.23577  Biso   1.000  C
  C186     1.0000 0.57723  0.67717  0.22047  Biso   1.000  C
  C187     1.0000 0.45983  0.72727  0.14557  Biso   1.000  C
  C188     1.0000 0.45473  0.68307  0.11047  Biso   1.000  C
  H47      1.0000 0.62333  0.74837  0.23227  Biso   1.000  H
  C189     1.0000 0.61563  0.71567  0.26817  Biso   1.000  C
  C190     1.0000 0.57563  0.65887  0.25087  Biso   1.000  C
  H48      1.0000 0.56463  0.65987  0.20557  Biso   1.000  H
  C191     1.0000 0.42383  0.71367  0.14037  Biso   1.000  C
  C192     1.0000 0.41913  0.67027  0.10627  Biso   1.000  C
  H49      1.0000 0.63103  0.73177  0.28257  Biso   1.000  H
  C193     1.0000 0.59703  0.68207  0.27707  Biso   1.000  C
  H50      1.0000 0.56273  0.63547  0.25317  Biso   1.000  H
  H51      1.0000 0.41343  0.72417  0.15087  Biso   1.000  H
  C194     1.0000 0.40503  0.68697  0.12157  Biso   1.000  C
  H52      1.0000 0.40603  0.65117  0.09347  Biso   1.000  H
  C195     1.0000 0.60163  0.67497  0.31257  Biso   1.000  C
  C196     1.0000 0.36673  0.67837  0.12157  Biso   1.000  C
  C197     1.0000 0.57453  0.65147  0.33007  Biso   1.000  C
  C198     1.0000 0.63393  0.68977  0.32837  Biso   1.000  C
  C199     1.0000 0.34503  0.64387  0.12137  Biso   1.000  C
  H53      1.0000 0.55333  0.64167  0.32027  Biso   1.000  H
  C200     1.0000 0.57663  0.64147  0.36167  Biso   1.000  C
  C201     1.0000 0.63693  0.67987  0.36017  Biso   1.000  C
  H54      1.0000 0.65303  0.70607  0.31737  Biso   1.000  H
  H55      1.0000 0.35293  0.62877  0.12097  Biso   1.000  H
  C202     1.0000 0.60823  0.65627  0.37577  Biso   1.000  C
  C203     1.0000 0.54773  0.61721  0.38027  Biso   1.000  C
  C204     1.0000 0.67123  0.69477  0.37547  Biso   1.000  C
  H56      1.0000 0.61013  0.64997  0.39697  Biso   1.000  H
  C205     1.0000 0.51543  0.61006  0.37115  Biso   1.000  C
  C206     1.0000 0.55179  0.59907  0.40557  Biso   1.000  C
  C207     1.0000 0.67833  0.67317  0.39517  Biso   1.000  C
  C208     1.0000 0.69653  0.72687  0.37097  Biso   1.000  C
  H57      1.0000 0.51273  0.62217  0.35427  Biso   1.000  H
  C209     1.0000 0.48722  0.58477  0.38727  Biso   1.000  C
  C210     1.0000 0.52363  0.57377  0.42167  Biso   1.000  C
  H58      1.0000 0.66173  0.65057  0.39797  Biso   1.000  H
  C211     1.0000 0.70943  0.68517  0.41017  Biso   1.000  C
  C212     1.0000 0.72693  0.73817  0.38817  Biso   1.000  C
  H59      1.0000 0.69393  0.74127  0.35667  Biso   1.000  H
  H60      1.0000 0.46563  0.57997  0.38117  Biso   1.000  H
  C213     1.0000 0.49130  0.56658  0.41247  Biso   1.000  C
  H61      1.0000 0.71383  0.67067  0.42257  Biso   1.000  H
  C214     1.0000 0.73383  0.71877  0.40677  Biso   1.000  C
  H62      1.0000 0.74333  0.76097  0.38637  Biso   1.000  H
  C215     1.0000 0.45713  0.53797  0.43007  Biso   1.000  C
  C216     1.0000 0.76663  0.73127  0.42397  Biso   1.000  C
  O43      1.0000 0.42953  0.52907  0.41762  Biso   1.000  O
  O44      1.0000 0.46318  0.52882  0.45573  Biso   1.000  O
  In6      1.0000 0.40250  0.49547  0.46121  Biso   1.000  In
  O45      1.0000 0.36793  0.46284  0.50308  Biso   1.000  O
  O46      1.0000 0.42381  0.49087  0.51026  Biso   1.000  O
  O47      1.0000 0.36368  0.51166  0.44843  Biso   1.000  O
  O48      1.0000 0.40575  0.54240  0.48359  Biso   1.000  O
  O49      1.0000 0.37056  0.45030  0.42694  Biso   1.000  O
  O50      1.0000 0.41083  0.45137  0.45427  Biso   1.000  O
  C217     1.0000 0.39533  0.47197  0.51987  Biso   1.000  C
  C218     1.0000 0.37993  0.53627  0.46547  Biso   1.000  C
  C219     1.0000 0.38803  0.45647  0.55518  Biso   1.000  C
  C220     1.0000 0.36943  0.56337  0.46967  Biso   1.000  C
  C221     1.0000 0.35943  0.42647  0.56447  Biso   1.000  C
  C222     1.0000 0.41344  0.47473  0.57797  Biso   1.000  C
  C223     1.0000 0.38513  0.58887  0.49287  Biso   1.000  C
  C224     1.0000 0.34313  0.56139  0.45067  Biso   1.000  C
  C225     1.0000 0.35625  0.41464  0.59647  Biso   1.000  C
  C226     1.0000 0.41029  0.46297  0.60996  Biso   1.000  C
  C227     1.0000 0.37453  0.61247  0.49717  Biso   1.000  C
  C228     1.0000 0.33263  0.58497  0.45487  Biso   1.000  C
  C229     1.0000 0.38173  0.43287  0.61921  Biso   1.000  C
  C230     1.0000 0.34833  0.61047  0.47817  Biso   1.000  C
  C231     1.0000 0.38023  0.41837  0.65217  Biso   1.000  C
  C232     1.0000 0.34183  0.63917  0.47777  Biso   1.000  C
  C233     1.0000 0.34993  0.39417  0.66737  Biso   1.000  C
  C234     1.0000 0.40983  0.42857  0.66947  Biso   1.000  C
  C235     1.0000 0.30703  0.63347  0.48127  Biso   1.000  C
  H63      1.0000 0.32933  0.38607  0.65657  Biso   1.000  H
  C236     1.0000 0.35103  0.38237  0.69877  Biso   1.000  C
  C237     1.0000 0.41153  0.41827  0.69977  Biso   1.000  C
  H64      1.0000 0.43003  0.44377  0.65927  Biso   1.000  H
  C238     1.0000 0.38143  0.39407  0.71567  Biso   1.000  C
  C239     1.0000 0.31803  0.35687  0.71506  Biso   1.000  C
  C240     1.0000 0.44433  0.43037  0.71817  Biso   1.000  C
  H65      1.0000 0.38193  0.38627  0.73657  Biso   1.000  H
  C241     1.0000 0.29053  0.36211  0.71647  Biso   1.000  C
  C242     1.0000 0.31560  0.32777  0.72867  Biso   1.000  C
  C243     1.0000 0.44813  0.43637  0.75177  Biso   1.000  C
  C244     1.0000 0.47433  0.43777  0.69997  Biso   1.000  C
  C245     1.0000 0.26063  0.33827  0.73147  Biso   1.000  C
  C246     1.0000 0.28573  0.30393  0.74367  Biso   1.000  C
  H66      1.0000 0.42973  0.43167  0.76517  Biso   1.000  H
  C247     1.0000 0.48123  0.44997  0.76497  Biso   1.000  C
  C248     1.0000 0.50423  0.45027  0.71477  Biso   1.000  C
  H67      1.0000 0.47273  0.43377  0.67747  Biso   1.000  H
  C249     1.0000 0.25821  0.30917  0.74508  Biso   1.000  C
  H68      1.0000 0.48423  0.45337  0.78747  Biso   1.000  H
  C250     1.0000 0.50903  0.45837  0.74547  Biso   1.000  C
  H69      1.0000 0.52263  0.45337  0.70227  Biso   1.000  H
  C251     1.0000 0.22493  0.28327  0.76327  Biso   1.000  C
  C252     1.0000 0.54223  0.47497  0.76237  Biso   1.000  C
  C253     1.0000 0.52323  0.57077  0.41797  Biso   1.000  C
  C254     1.0000 0.38063  0.62067  0.48177  Biso   1.000  C
  C255     1.0000 0.39083  0.59677  0.47907  Biso   1.000  C
  C256     1.0000 0.35463  0.61537  0.46037  Biso   1.000  C
  C257     1.0000 0.33693  0.58697  0.44057  Biso   1.000  C
  C258     1.0000 0.34363  0.64077  0.45657  Biso   1.000  C
  C259     1.0000 0.30803  0.63207  0.46157  Biso   1.000  C
  C260     1.0000 0.51143  0.72487  0.12467  Biso   1.000  C
  C261     1.0000 0.47153  0.69157  0.12267  Biso   1.000  C
  C262     1.0000 0.41073  0.44207  0.60087  Biso   1.000  C
  C263     1.0000 0.41563  0.45687  0.56997  Biso   1.000  C
  C264     1.0000 0.35323  0.42837  0.60237  Biso   1.000  C
  C265     1.0000 0.35623  0.43897  0.56987  Biso   1.000  C
  C266     1.0000 0.30523  0.36427  0.74287  Biso   1.000  C
  C267     1.0000 0.27693  0.34057  0.76007  Biso   1.000  C
  C268     1.0000 0.26903  0.29957  0.71727  Biso   1.000  C
  C269     1.0000 0.29573  0.32597  0.70057  Biso   1.000  C
  O51      1.0000 0.20663  0.29507  0.77167  Biso   1.000  O
  C270     1.0000 0.76823  0.73024  0.42047  Biso   1.000  C
  In7      1.0000 0.93559  0.17625  0.45780  Biso   1.000  In
  O52      1.0000 0.92550  0.18690  0.50587  Biso   1.000  O
  O53      1.0000 0.97720  0.20790  0.49440  Biso   1.000  O
  O54      1.0000 0.92560  0.12060  0.48180  Biso   1.000  O
  O55      1.0000 0.96190  0.14867  0.44770  Biso   1.000  O
  O56      1.0000 0.97442  0.21277  0.42075  Biso   1.000  O
  O57      1.0000 0.94059  0.22720  0.44200  Biso   1.000  O
  O58      1.0000 0.87932  0.15144  0.45810  Biso   1.000  O
  O59      1.0000 0.90150  0.14880  0.41260  Biso   1.000  O
  C271     1.0000 0.94840  0.20180  0.51610  Biso   1.000  C
  C272     1.0000 0.94810  0.12160  0.46360  Biso   1.000  C
  C273     1.0000 0.96160  0.21530  0.53620  Biso   1.000  C
  C274     1.0000 0.95600  0.09740  0.46380  Biso   1.000  C
  C275     1.0000 0.94150  0.21850  0.56910  Biso   1.000  C
  C276     1.0000 0.98950  0.23340  0.55380  Biso   1.000  C
  C277     1.0000 0.93940  0.06590  0.47890  Biso   1.000  C
  C278     1.0000 0.98360  0.10500  0.44380  Biso   1.000  C
  H70      1.0000 0.91830  0.20830  0.56560  Biso   1.000  H
  C279     1.0000 0.95100  0.23330  0.60150  Biso   1.000  C
  C280     1.0000 0.00780  0.25010  0.58420  Biso   1.000  C
  H71      1.0000 0.00680  0.23810  0.53890  Biso   1.000  H
  C281     1.0000 0.95300  0.04350  0.47370  Biso   1.000  C
  C282     1.0000 0.99640  0.08220  0.43960  Biso   1.000  C
  H72      1.0000 0.93490  0.23260  0.61590  Biso   1.000  H
  C283     1.0000 0.98460  0.24830  0.61040  Biso   1.000  C
  H73      1.0000 0.03120  0.26060  0.58650  Biso   1.000  H
  H74      1.0000 0.94250  0.02260  0.48420  Biso   1.000  H
  C284     1.0000 0.97970  0.05140  0.45490  Biso   1.000  C
  H75      1.0000 0.01550  0.08820  0.42680  Biso   1.000  H
  C285     1.0000 0.99170  0.26000  0.64590  Biso   1.000  C
  C286     1.0000 0.98830  0.02170  0.45490  Biso   1.000  C
  C287     1.0000 0.01520  0.25640  0.66340  Biso   1.000  C
  C288     1.0000 0.97690  0.27750  0.66170  Biso   1.000  C
  C289     1.0000 0.02280  0.03450  0.45470  Biso   1.000  C
  H76      1.0000 0.02500  0.24500  0.65360  Biso   1.000  H
  C290     1.0000 0.02520  0.26850  0.69500  Biso   1.000  C
  C291     1.0000 0.98680  0.29040  0.69350  Biso   1.000  C
  H77      1.0000 0.96060  0.28030  0.65070  Biso   1.000  H
  H78      1.0000 0.03790  0.05750  0.45430  Biso   1.000  H
  C292     1.0000 0.01040  0.28530  0.70910  Biso   1.000  C
  C293     1.0000 0.04946  0.26386  0.71360  Biso   1.000  C
  C294     1.0000 0.97190  0.30980  0.70880  Biso   1.000  C
  H79      1.0000 0.01670  0.29350  0.73030  Biso   1.000  H
  C295     1.0000 0.05661  0.23871  0.70448  Biso   1.000  C
  C296     1.0000 0.06760  0.28606  0.73890  Biso   1.000  C
  C297     1.0000 0.99350  0.33850  0.72850  Biso   1.000  C
  C298     1.0000 0.93980  0.30300  0.70430  Biso   1.000  C
  H80      1.0000 0.04450  0.22390  0.68760  Biso   1.000  H
  C299     1.0000 0.08190  0.23579  0.72060  Biso   1.000  C
  C300     1.0000 0.09290  0.28320  0.75500  Biso   1.000  C
  H81      1.0000 0.01610  0.34450  0.73130  Biso   1.000  H
  C301     1.0000 0.98150  0.35760  0.74350  Biso   1.000  C
  C302     1.0000 0.92850  0.32210  0.72150  Biso   1.000  C
  H82      1.0000 0.92540  0.28600  0.69000  Biso   1.000  H
  H83      1.0000 0.08670  0.21900  0.71450  Biso   1.000  H
  C303     1.0000 0.10009  0.25806  0.74580  Biso   1.000  C
  H84      1.0000 0.99600  0.37650  0.75590  Biso   1.000  H
  C304     1.0000 0.94790  0.34840  0.74010  Biso   1.000  C
  H85      1.0000 0.90570  0.31570  0.71970  Biso   1.000  H
  C305     1.0000 0.12870  0.25250  0.76340  Biso   1.000  C
  C306     1.0000 0.93540  0.36870  0.75730  Biso   1.000  C
  O60      1.0000 0.13760  0.23380  0.75095  Biso   1.000  O
  O61      1.0000 0.13785  0.26770  0.78906  Biso   1.000  O
  In8      1.0000 0.17120  0.24036  0.79455  Biso   1.000  In
  O62      1.0000 0.20383  0.23843  0.83641  Biso   1.000  O
  O63      1.0000 0.17580  0.26628  0.84359  Biso   1.000  O
  O64      1.0000 0.15501  0.18536  0.78176  Biso   1.000  O
  O65      1.0000 0.12427  0.19669  0.81692  Biso   1.000  O
  O66      1.0000 0.21637  0.25360  0.76027  Biso   1.000  O
  O67      1.0000 0.21530  0.29280  0.78760  Biso   1.000  O
  C307     1.0000 0.19470  0.25670  0.85320  Biso   1.000  C
  C308     1.0000 0.13040  0.17700  0.79880  Biso   1.000  C
  C309     1.0000 0.21020  0.26490  0.88851  Biso   1.000  C
  C310     1.0000 0.10330  0.13940  0.80300  Biso   1.000  C
  C311     1.0000 0.24020  0.26630  0.89780  Biso   1.000  C
  C312     1.0000 0.19194  0.27205  0.91130  Biso   1.000  C
  C313     1.0000 0.07780  0.12960  0.82620  Biso   1.000  C
  C314     1.0000 0.10528  0.11508  0.78400  Biso   1.000  C
  C315     1.0000 0.25203  0.27495  0.92980  Biso   1.000  C
  C316     1.0000 0.20370  0.28066  0.94329  Biso   1.000  C
  C317     1.0000 0.05420  0.09540  0.83050  Biso   1.000  C
  C318     1.0000 0.08170  0.08100  0.78820  Biso   1.000  C
  C319     1.0000 0.23380  0.28220  0.95254  Biso   1.000  C
  C320     1.0000 0.05620  0.07120  0.81150  Biso   1.000  C
  C321     1.0000 0.24830  0.29520  0.98550  Biso   1.000  C
  C322     1.0000 0.02750  0.03600  0.81110  Biso   1.000  C
  C323     1.0000 0.27250  0.28910  0.00070  Biso   1.000  C
  C324     1.0000 0.23810  0.31460  0.00280  Biso   1.000  C
  C325     1.0000 0.03320  0.00690  0.81460  Biso   1.000  C
  H86      1.0000 0.28060  0.27660  0.98990  Biso   1.000  H
  C326     1.0000 0.28430  0.30200  0.03210  Biso   1.000  C
  C327     1.0000 0.24840  0.32660  0.03310  Biso   1.000  C
  H87      1.0000 0.22290  0.31960  0.99260  Biso   1.000  H
  C328     1.0000 0.27260  0.32070  0.04900  Biso   1.000  C
  C329     1.0000 0.30980  0.29450  0.04839  Biso   1.000  C
  C330     1.0000 0.23630  0.34730  0.05150  Biso   1.000  C
  H88      1.0000 0.28040  0.32900  0.06990  Biso   1.000  H
  C331     1.0000 0.30456  0.26176  0.04980  Biso   1.000  C
  C332     1.0000 0.33890  0.32117  0.06200  Biso   1.000  C
  C333     1.0000 0.23030  0.34510  0.08510  Biso   1.000  C
  C334     1.0000 0.22890  0.36990  0.03330  Biso   1.000  C
  C335     1.0000 0.32840  0.25570  0.06480  Biso   1.000  C
  C336     1.0000 0.36274  0.31514  0.07700  Biso   1.000  C
  H89      1.0000 0.23500  0.33140  0.09850  Biso   1.000  H
  C337     1.0000 0.21670  0.36460  0.09830  Biso   1.000  C
  C338     1.0000 0.21640  0.38730  0.04810  Biso   1.000  C
  H90      1.0000 0.23290  0.37230  0.01080  Biso   1.000  H
  C339     1.0000 0.35750  0.28238  0.07841  Biso   1.000  C
  H91      1.0000 0.21330  0.36420  0.12080  Biso   1.000  H
  C340     1.0000 0.20830  0.38400  0.07880  Biso   1.000  C
  H92      1.0000 0.21330  0.40260  0.03560  Biso   1.000  H
  C341     1.0000 0.38340  0.27500  0.09660  Biso   1.000  C
  C342     1.0000 0.19170  0.40060  0.09570  Biso   1.000  C
  C343     1.0000 0.09590  0.28580  0.75130  Biso   1.000  C
  C344     1.0000 0.04600  0.09330  0.81510  Biso   1.000  C
  C345     1.0000 0.06990  0.12740  0.81240  Biso   1.000  C
  C346     1.0000 0.05130  0.07260  0.79370  Biso   1.000  C
  C347     1.0000 0.07970  0.08330  0.77390  Biso   1.000  C
  C348     1.0000 0.02590  0.03620  0.78990  Biso   1.000  C
  C349     1.0000 0.03460  0.00930  0.79490  Biso   1.000  C
  C350     1.0000 0.94180  0.11990  0.45800  Biso   1.000  C
  C351     1.0000 0.97510  0.11330  0.45600  Biso   1.000  C
  C352     1.0000 0.22460  0.30200  0.93420  Biso   1.000  C
  C353     1.0000 0.20980  0.29210  0.90330  Biso   1.000  C
  C354     1.0000 0.23830  0.25820  0.93570  Biso   1.000  C
  C355     1.0000 0.22770  0.25060  0.90320  Biso   1.000  C
  C356     1.0000 0.30240  0.27430  0.07620  Biso   1.000  C
  C357     1.0000 0.32610  0.26970  0.09340  Biso   1.000  C
  C358     1.0000 0.36710  0.30280  0.05060  Biso   1.000  C
  C359     1.0000 0.34070  0.30310  0.03390  Biso   1.000  C
  O68      1.0000 0.37160  0.24490  0.10500  Biso   1.000  O
  C360     1.0000 0.93643  0.37133  0.75380  Biso   1.000  C
  In9      1.0000 0.60226  0.50958  0.79113  Biso   1.000  In
  O69      1.0000 0.59217  0.52023  0.83920  Biso   1.000  O
  O70      1.0000 0.64387  0.54123  0.82773  Biso   1.000  O
  O71      1.0000 0.59227  0.45393  0.81513  Biso   1.000  O
  O72      1.0000 0.62857  0.48200  0.78103  Biso   1.000  O
  O73      1.0000 0.64109  0.54610  0.75408  Biso   1.000  O
  O74      1.0000 0.60726  0.56053  0.77533  Biso   1.000  O
  O75      1.0000 0.54599  0.48477  0.79143  Biso   1.000  O
  O76      1.0000 0.56817  0.48213  0.74593  Biso   1.000  O
  C361     1.0000 0.61507  0.53513  0.84943  Biso   1.000  C
  C362     1.0000 0.61477  0.45493  0.79693  Biso   1.000  C
  C363     1.0000 0.62827  0.54863  0.86953  Biso   1.000  C
  C364     1.0000 0.62267  0.43073  0.79713  Biso   1.000  C
  C365     1.0000 0.60817  0.55183  0.90243  Biso   1.000  C
  C366     1.0000 0.65617  0.56673  0.88713  Biso   1.000  C
  C367     1.0000 0.60607  0.39923  0.81223  Biso   1.000  C
  C368     1.0000 0.65027  0.43833  0.77713  Biso   1.000  C
  H93      1.0000 0.58497  0.54163  0.89893  Biso   1.000  H
  C369     1.0000 0.61767  0.56663  0.93483  Biso   1.000  C
  C370     1.0000 0.67447  0.58343  0.91753  Biso   1.000  C
  H94      1.0000 0.67347  0.57143  0.87223  Biso   1.000  H
  C371     1.0000 0.61967  0.37683  0.80703  Biso   1.000  C
  C372     1.0000 0.66307  0.41553  0.77293  Biso   1.000  C
  H95      1.0000 0.60157  0.56593  0.94923  Biso   1.000  H
  C373     1.0000 0.65127  0.58163  0.94373  Biso   1.000  C
  H96      1.0000 0.69787  0.59393  0.91983  Biso   1.000  H
  H97      1.0000 0.60917  0.35593  0.81753  Biso   1.000  H
  C374     1.0000 0.64637  0.38473  0.78823  Biso   1.000  C
  H98      1.0000 0.68217  0.42153  0.76013  Biso   1.000  H
  C375     1.0000 0.65837  0.59333  0.97923  Biso   1.000  C
  C376     1.0000 0.65497  0.35503  0.78823  Biso   1.000  C
  C377     1.0000 0.68187  0.58973  0.99673  Biso   1.000  C
  C378     1.0000 0.64357  0.61083  0.99503  Biso   1.000  C
  C379     1.0000 0.68947  0.36783  0.78803  Biso   1.000  C
  H99      1.0000 0.69167  0.57833  0.98693  Biso   1.000  H
  C380     1.0000 0.69187  0.60183  0.02833  Biso   1.000  C
  C381     1.0000 0.65347  0.62373  0.02683  Biso   1.000  C
  H100     1.0000 0.62727  0.61363  0.98403  Biso   1.000  H
  H101     1.0000 0.70457  0.39083  0.78763  Biso   1.000  H
  C382     1.0000 0.67707  0.61863  0.04243  Biso   1.000  C
  C383     1.0000 0.71613  0.59719  0.04693  Biso   1.000  C
  C384     1.0000 0.63857  0.64313  0.04213  Biso   1.000  C
  H102     1.0000 0.68337  0.62683  0.06363  Biso   1.000  H
  C385     1.0000 0.72328  0.57204  0.03781  Biso   1.000  C
  C386     1.0000 0.73427  0.61939  0.07223  Biso   1.000  C
  C387     1.0000 0.66017  0.67183  0.06183  Biso   1.000  C
  C388     1.0000 0.60647  0.63633  0.03763  Biso   1.000  C
  H103     1.0000 0.71117  0.55723  0.02093  Biso   1.000  H
  C389     1.0000 0.74857  0.56912  0.05393  Biso   1.000  C
  C390     1.0000 0.75957  0.61653  0.08833  Biso   1.000  C
  H104     1.0000 0.68277  0.67783  0.06463  Biso   1.000  H
  C391     1.0000 0.64817  0.69093  0.07683  Biso   1.000  C
  C392     1.0000 0.59517  0.65543  0.05483  Biso   1.000  C
  H105     1.0000 0.59207  0.61933  0.02333  Biso   1.000  H
  H106     1.0000 0.75337  0.55233  0.04783  Biso   1.000  H
  C393     1.0000 0.76676  0.59139  0.07913  Biso   1.000  C
  H107     1.0000 0.66267  0.70983  0.08923  Biso   1.000  H
  C394     1.0000 0.61457  0.68173  0.07343  Biso   1.000  C
  H108     1.0000 0.57237  0.64903  0.05303  Biso   1.000  H
  C395     1.0000 0.79537  0.58583  0.09673  Biso   1.000  C
  C396     1.0000 0.60207  0.70203  0.09063  Biso   1.000  C
  O77      1.0000 0.80427  0.56713  0.08428  Biso   1.000  O
  O78      1.0000 0.80452  0.60103  0.12239  Biso   1.000  O
  In10     1.0000 0.83786  0.57370  0.12788  Biso   1.000  In
  O79      1.0000 0.87050  0.57176  0.16974  Biso   1.000  O
  O80      1.0000 0.84247  0.59961  0.17692  Biso   1.000  O
  O81      1.0000 0.82168  0.51869  0.11509  Biso   1.000  O
  O82      1.0000 0.79094  0.53002  0.15025  Biso   1.000  O
  O83      1.0000 0.88304  0.58693  0.09360  Biso   1.000  O
  O84      1.0000 0.88197  0.62613  0.12093  Biso   1.000  O
  C397     1.0000 0.86137  0.59003  0.18653  Biso   1.000  C
  C398     1.0000 0.79707  0.51033  0.13213  Biso   1.000  C
  C399     1.0000 0.87687  0.59823  0.22184  Biso   1.000  C
  C400     1.0000 0.76997  0.47273  0.13633  Biso   1.000  C
  C401     1.0000 0.90687  0.59963  0.23113  Biso   1.000  C
  C402     1.0000 0.85861  0.60538  0.24463  Biso   1.000  C
  C403     1.0000 0.74447  0.46293  0.15953  Biso   1.000  C
  C404     1.0000 0.77195  0.44841  0.11733  Biso   1.000  C
  C405     1.0000 0.91870  0.60828  0.26313  Biso   1.000  C
  C406     1.0000 0.87037  0.61399  0.27662  Biso   1.000  C
  C407     1.0000 0.72087  0.42873  0.16383  Biso   1.000  C
  C408     1.0000 0.74837  0.41433  0.12153  Biso   1.000  C
  C409     1.0000 0.90047  0.61553  0.28587  Biso   1.000  C
  C410     1.0000 0.72287  0.40453  0.14483  Biso   1.000  C
  C411     1.0000 0.91497  0.62853  0.31883  Biso   1.000  C
  C412     1.0000 0.69417  0.36933  0.14443  Biso   1.000  C
  C413     1.0000 0.93917  0.62243  0.33403  Biso   1.000  C
  C414     1.0000 0.90477  0.64793  0.33613  Biso   1.000  C
  C415     1.0000 0.69987  0.34023  0.14793  Biso   1.000  C
  H109     1.0000 0.94727  0.60993  0.32323  Biso   1.000  H
  C416     1.0000 0.95097  0.63533  0.36543  Biso   1.000  C
  C417     1.0000 0.91507  0.65993  0.36643  Biso   1.000  C
  H110     1.0000 0.88957  0.65293  0.32593  Biso   1.000  H
  C418     1.0000 0.93927  0.65403  0.38233  Biso   1.000  C
  C419     1.0000 0.97647  0.62783  0.38172  Biso   1.000  C
  C420     1.0000 0.90297  0.68063  0.38483  Biso   1.000  C
  H111     1.0000 0.94707  0.66233  0.40323  Biso   1.000  H
  C421     1.0000 0.97123  0.59509  0.38313  Biso   1.000  C
  C422     1.0000 0.00557  0.65450  0.39533  Biso   1.000  C
  C423     1.0000 0.89697  0.67843  0.41843  Biso   1.000  C
  C424     1.0000 0.89557  0.70323  0.36663  Biso   1.000  C
  C425     1.0000 0.99507  0.58903  0.39813  Biso   1.000  C
  C426     1.0000 0.02941  0.64847  0.41033  Biso   1.000  C
  H112     1.0000 0.90167  0.66473  0.43183  Biso   1.000  H
  C427     1.0000 0.88337  0.69793  0.43163  Biso   1.000  C
  C428     1.0000 0.88307  0.72063  0.38143  Biso   1.000  C
  H113     1.0000 0.89957  0.70563  0.34413  Biso   1.000  H
  C429     1.0000 0.02417  0.61571  0.41174  Biso   1.000  C
  H114     1.0000 0.87997  0.69753  0.45413  Biso   1.000  H
  C430     1.0000 0.87497  0.71733  0.41213  Biso   1.000  C
  H115     1.0000 0.87997  0.73593  0.36893  Biso   1.000  H
  C431     1.0000 0.05007  0.60833  0.42993  Biso   1.000  C
  C432     1.0000 0.85837  0.73393  0.42903  Biso   1.000  C
  C433     1.0000 0.76257  0.61913  0.08463  Biso   1.000  C
  C434     1.0000 0.71267  0.42663  0.14843  Biso   1.000  C
  C435     1.0000 0.73657  0.46073  0.14573  Biso   1.000  C
  C436     1.0000 0.71797  0.40593  0.12703  Biso   1.000  C
  C437     1.0000 0.74637  0.41663  0.10723  Biso   1.000  C
  C438     1.0000 0.69257  0.36953  0.12323  Biso   1.000  C
  C439     1.0000 0.70127  0.34263  0.12823  Biso   1.000  C
  C440     1.0000 0.60847  0.45323  0.79133  Biso   1.000  C
  C441     1.0000 0.64177  0.44663  0.78933  Biso   1.000  C
  C442     1.0000 0.89127  0.63533  0.26753  Biso   1.000  C
  C443     1.0000 0.87647  0.62543  0.23663  Biso   1.000  C
  C444     1.0000 0.90497  0.59153  0.26903  Biso   1.000  C
  C445     1.0000 0.89437  0.58393  0.23653  Biso   1.000  C
  C446     1.0000 0.96907  0.60763  0.40953  Biso   1.000  C
  C447     1.0000 0.99277  0.60303  0.42673  Biso   1.000  C
  C448     1.0000 0.03377  0.63613  0.38393  Biso   1.000  C
  C449     1.0000 0.00737  0.63643  0.36723  Biso   1.000  C
  O85      1.0000 0.03827  0.57823  0.43833  Biso   1.000  O
  C450     1.0000 0.60310  0.70466  0.08713  Biso   1.000  C
  In11     1.0000 0.26892  0.84291  0.12447  Biso   1.000  In
  O86      1.0000 0.25883  0.85357  0.17254  Biso   1.000  O
  O87      1.0000 0.31053  0.87457  0.16107  Biso   1.000  O
  O88      1.0000 0.25893  0.78727  0.14847  Biso   1.000  O
  O89      1.0000 0.29523  0.81534  0.11437  Biso   1.000  O
  O90      1.0000 0.30775  0.87944  0.08742  Biso   1.000  O
  O91      1.0000 0.27392  0.89387  0.10867  Biso   1.000  O
  O92      1.0000 0.21265  0.81811  0.12477  Biso   1.000  O
  O93      1.0000 0.23483  0.81547  0.07927  Biso   1.000  O
  C451     1.0000 0.28173  0.86847  0.18277  Biso   1.000  C
  C452     1.0000 0.28143  0.78827  0.13027  Biso   1.000  C
  C453     1.0000 0.29493  0.88197  0.20287  Biso   1.000  C
  C454     1.0000 0.28933  0.76407  0.13047  Biso   1.000  C
  C455     1.0000 0.27483  0.88517  0.23577  Biso   1.000  C
  C456     1.0000 0.32283  0.90007  0.22047  Biso   1.000  C
  C457     1.0000 0.27273  0.73257  0.14557  Biso   1.000  C
  C458     1.0000 0.31693  0.77167  0.11047  Biso   1.000  C
  H116     1.0000 0.25163  0.87497  0.23227  Biso   1.000  H
  C459     1.0000 0.28433  0.89997  0.26817  Biso   1.000  C
  C460     1.0000 0.34113  0.91677  0.25087  Biso   1.000  C
  H117     1.0000 0.34013  0.90477  0.20557  Biso   1.000  H
  C461     1.0000 0.28633  0.71017  0.14037  Biso   1.000  C
  C462     1.0000 0.32973  0.74887  0.10627  Biso   1.000  C
  H118     1.0000 0.26823  0.89927  0.28257  Biso   1.000  H
  C463     1.0000 0.31793  0.91497  0.27707  Biso   1.000  C
  H119     1.0000 0.36453  0.92727  0.25317  Biso   1.000  H
  H120     1.0000 0.27583  0.68927  0.15087  Biso   1.000  H
  C464     1.0000 0.31303  0.71807  0.12157  Biso   1.000  C
  H121     1.0000 0.34883  0.75487  0.09347  Biso   1.000  H
  C465     1.0000 0.32503  0.92667  0.31257  Biso   1.000  C
  C466     1.0000 0.32163  0.68837  0.12157  Biso   1.000  C
  C467     1.0000 0.34853  0.92307  0.33007  Biso   1.000  C
  C468     1.0000 0.31023  0.94417  0.32837  Biso   1.000  C
  C469     1.0000 0.35613  0.70117  0.12137  Biso   1.000  C
  H122     1.0000 0.35833  0.91167  0.32027  Biso   1.000  H
  C470     1.0000 0.35853  0.93517  0.36167  Biso   1.000  C
  C471     1.0000 0.32013  0.95707  0.36017  Biso   1.000  C
  H123     1.0000 0.29393  0.94697  0.31737  Biso   1.000  H
  H124     1.0000 0.37123  0.72417  0.12097  Biso   1.000  H
  C472     1.0000 0.34373  0.95197  0.37577  Biso   1.000  C
  C473     1.0000 0.38279  0.93053  0.38027  Biso   1.000  C
  C474     1.0000 0.30523  0.97647  0.37547  Biso   1.000  C
  H125     1.0000 0.35003  0.96017  0.39697  Biso   1.000  H
  C475     1.0000 0.38994  0.90538  0.37115  Biso   1.000  C
  C476     1.0000 0.40093  0.95273  0.40557  Biso   1.000  C
  C477     1.0000 0.32683  0.00517  0.39517  Biso   1.000  C
  C478     1.0000 0.27313  0.96967  0.37097  Biso   1.000  C
  H126     1.0000 0.37783  0.89057  0.35427  Biso   1.000  H
  C479     1.0000 0.41523  0.90246  0.38727  Biso   1.000  C
  C480     1.0000 0.42623  0.94987  0.42167  Biso   1.000  C
  H127     1.0000 0.34943  0.01117  0.39797  Biso   1.000  H
  C481     1.0000 0.31483  0.02427  0.41017  Biso   1.000  C
  C482     1.0000 0.26183  0.98877  0.38817  Biso   1.000  C
  H128     1.0000 0.25873  0.95267  0.35667  Biso   1.000  H
  H129     1.0000 0.42003  0.88567  0.38117  Biso   1.000  H
  C483     1.0000 0.43342  0.92473  0.41247  Biso   1.000  C
  H130     1.0000 0.32933  0.04317  0.42257  Biso   1.000  H
  C484     1.0000 0.28123  0.01507  0.40677  Biso   1.000  C
  H131     1.0000 0.23903  0.98237  0.38637  Biso   1.000  H
  C485     1.0000 0.46203  0.91917  0.43007  Biso   1.000  C
  C486     1.0000 0.26873  0.03537  0.42397  Biso   1.000  C
  O94      1.0000 0.47093  0.90047  0.41762  Biso   1.000  O
  O95      1.0000 0.47118  0.93437  0.45573  Biso   1.000  O
  In12     1.0000 0.50453  0.90703  0.46121  Biso   1.000  In
  O96      1.0000 0.53716  0.90510  0.50308  Biso   1.000  O
  O97      1.0000 0.50913  0.93295  0.51026  Biso   1.000  O
  O98      1.0000 0.48834  0.85203  0.44843  Biso   1.000  O
  O99      1.0000 0.45760  0.86336  0.48359  Biso   1.000  O
  O100     1.0000 0.54970  0.92027  0.42694  Biso   1.000  O
  O101     1.0000 0.54863  0.95947  0.45427  Biso   1.000  O
  C487     1.0000 0.52803  0.92337  0.51987  Biso   1.000  C
  C488     1.0000 0.46373  0.84367  0.46547  Biso   1.000  C
  C489     1.0000 0.54353  0.93157  0.55518  Biso   1.000  C
  C490     1.0000 0.43663  0.80607  0.46967  Biso   1.000  C
  C491     1.0000 0.57353  0.93297  0.56447  Biso   1.000  C
  C492     1.0000 0.52527  0.93872  0.57797  Biso   1.000  C
  C493     1.0000 0.41113  0.79627  0.49287  Biso   1.000  C
  C494     1.0000 0.43861  0.78175  0.45067  Biso   1.000  C
  C495     1.0000 0.58536  0.94162  0.59647  Biso   1.000  C
  C496     1.0000 0.53703  0.94733  0.60996  Biso   1.000  C
  C497     1.0000 0.38753  0.76207  0.49717  Biso   1.000  C
  C498     1.0000 0.41503  0.74767  0.45487  Biso   1.000  C
  C499     1.0000 0.56713  0.94887  0.61921  Biso   1.000  C
  C500     1.0000 0.38953  0.73787  0.47817  Biso   1.000  C
  C501     1.0000 0.58163  0.96187  0.65217  Biso   1.000  C
  C502     1.0000 0.36083  0.70267  0.47777  Biso   1.000  C
  C503     1.0000 0.60583  0.95577  0.66737  Biso   1.000  C
  C504     1.0000 0.57143  0.98127  0.66947  Biso   1.000  C
  C505     1.0000 0.36653  0.67357  0.48127  Biso   1.000  C
  H132     1.0000 0.61393  0.94327  0.65657  Biso   1.000  H
  C506     1.0000 0.61763  0.96867  0.69877  Biso   1.000  C
  C507     1.0000 0.58173  0.99327  0.69977  Biso   1.000  C
  H133     1.0000 0.55623  0.98627  0.65927  Biso   1.000  H
  C508     1.0000 0.60593  0.98737  0.71567  Biso   1.000  C
  C509     1.0000 0.64313  0.96117  0.71506  Biso   1.000  C
  C510     1.0000 0.56963  0.01397  0.71817  Biso   1.000  C
  H134     1.0000 0.61373  0.99567  0.73657  Biso   1.000  H
  C511     1.0000 0.63789  0.92843  0.71647  Biso   1.000  C
  C512     1.0000 0.67223  0.98784  0.72867  Biso   1.000  C
  C513     1.0000 0.56363  0.01177  0.75177  Biso   1.000  C
  C514     1.0000 0.56223  0.03657  0.69997  Biso   1.000  C
  C515     1.0000 0.66173  0.92237  0.73147  Biso   1.000  C
  C516     1.0000 0.69607  0.98181  0.74367  Biso   1.000  C
  H135     1.0000 0.56833  0.99807  0.76517  Biso   1.000  H
  C517     1.0000 0.55003  0.03127  0.76497  Biso   1.000  C
  C518     1.0000 0.54973  0.05397  0.71477  Biso   1.000  C
  H136     1.0000 0.56623  0.03897  0.67747  Biso   1.000  H
  C519     1.0000 0.69083  0.94905  0.74508  Biso   1.000  C
  H137     1.0000 0.54663  0.03087  0.78747  Biso   1.000  H
  C520     1.0000 0.54163  0.05067  0.74547  Biso   1.000  C
  H138     1.0000 0.54663  0.06927  0.70227  Biso   1.000  H
  C521     1.0000 0.71673  0.94167  0.76327  Biso   1.000  C
  C522     1.0000 0.52503  0.06727  0.76237  Biso   1.000  C
  C523     1.0000 0.42923  0.95247  0.41797  Biso   1.000  C
  C524     1.0000 0.37933  0.75997  0.48177  Biso   1.000  C
  C525     1.0000 0.40323  0.79407  0.47907  Biso   1.000  C
  C526     1.0000 0.38463  0.73927  0.46037  Biso   1.000  C
  C527     1.0000 0.41303  0.74997  0.44057  Biso   1.000  C
  C528     1.0000 0.35923  0.70287  0.45657  Biso   1.000  C
  C529     1.0000 0.36793  0.67597  0.46157  Biso   1.000  C
  C530     1.0000 0.27513  0.78657  0.12467  Biso   1.000  C
  C531     1.0000 0.30843  0.77997  0.12267  Biso   1.000  C
  C532     1.0000 0.55793  0.96867  0.60087  Biso   1.000  C
  C533     1.0000 0.54313  0.95877  0.56997  Biso   1.000  C
  C534     1.0000 0.57163  0.92487  0.60237  Biso   1.000  C
  C535     1.0000 0.56103  0.91727  0.56987  Biso   1.000  C
  C536     1.0000 0.63573  0.94097  0.74287  Biso   1.000  C
  C537     1.0000 0.65943  0.93637  0.76007  Biso   1.000  C
  C538     1.0000 0.70043  0.96947  0.71727  Biso   1.000  C
  C539     1.0000 0.67403  0.96977  0.70057  Biso   1.000  C
  O102     1.0000 0.70493  0.91157  0.77167  Biso   1.000  O
  C540     1.0000 0.26976  0.03800  0.42047  Biso   1.000  C
  In13     1.0000 0.82375  0.75934  0.45780  Biso   1.000  In
  O103     1.0000 0.81310  0.73860  0.50587  Biso   1.000  O
  O104     1.0000 0.79210  0.76930  0.49440  Biso   1.000  O
  O105     1.0000 0.87940  0.80500  0.48180  Biso   1.000  O
  O106     1.0000 0.85133  0.81323  0.44770  Biso   1.000  O
  O107     1.0000 0.78723  0.76165  0.42075  Biso   1.000  O
  O108     1.0000 0.77280  0.71339  0.44200  Biso   1.000  O
  O109     1.0000 0.84856  0.72788  0.45810  Biso   1.000  O
  O110     1.0000 0.85120  0.75270  0.41260  Biso   1.000  O
  C541     1.0000 0.79820  0.74660  0.51610  Biso   1.000  C
  C542     1.0000 0.87840  0.82650  0.46360  Biso   1.000  C
  C543     1.0000 0.78470  0.74630  0.53620  Biso   1.000  C
  C544     1.0000 0.90260  0.85860  0.46380  Biso   1.000  C
  C545     1.0000 0.78150  0.72300  0.56910  Biso   1.000  C
  C546     1.0000 0.76660  0.75610  0.55380  Biso   1.000  C
  C547     1.0000 0.93410  0.87350  0.47890  Biso   1.000  C
  C548     1.0000 0.89500  0.87860  0.44380  Biso   1.000  C
  H139     1.0000 0.79170  0.71000  0.56560  Biso   1.000  H
  C549     1.0000 0.76670  0.71770  0.60150  Biso   1.000  C
  C550     1.0000 0.74990  0.75770  0.58420  Biso   1.000  C
  H140     1.0000 0.76190  0.76870  0.53890  Biso   1.000  H
  C551     1.0000 0.95650  0.90950  0.47370  Biso   1.000  C
  C552     1.0000 0.91780  0.91420  0.43960  Biso   1.000  C
  H141     1.0000 0.76740  0.70230  0.61590  Biso   1.000  H
  C553     1.0000 0.75170  0.73630  0.61040  Biso   1.000  C
  H142     1.0000 0.73940  0.77060  0.58650  Biso   1.000  H
  H143     1.0000 0.97740  0.91990  0.48420  Biso   1.000  H
  C554     1.0000 0.94860  0.92830  0.45490  Biso   1.000  C
  H144     1.0000 0.91180  0.92730  0.42680  Biso   1.000  H
  C555     1.0000 0.74000  0.73170  0.64590  Biso   1.000  C
  C556     1.0000 0.97830  0.96660  0.45490  Biso   1.000  C
  C557     1.0000 0.74360  0.75880  0.66340  Biso   1.000  C
  C558     1.0000 0.72250  0.69940  0.66170  Biso   1.000  C
  C559     1.0000 0.96550  0.98830  0.45470  Biso   1.000  C
  H145     1.0000 0.75500  0.78000  0.65360  Biso   1.000  H
  C560     1.0000 0.73150  0.75670  0.69500  Biso   1.000  C
  C561     1.0000 0.70960  0.69640  0.69350  Biso   1.000  C
  H146     1.0000 0.71970  0.68030  0.65070  Biso   1.000  H
  H147     1.0000 0.94250  0.98040  0.45430  Biso   1.000  H
  C562     1.0000 0.71470  0.72510  0.70910  Biso   1.000  C
  C563     1.0000 0.73614  0.78560  0.71360  Biso   1.000  C
  C564     1.0000 0.69020  0.66210  0.70880  Biso   1.000  C
  H148     1.0000 0.70650  0.72320  0.73030  Biso   1.000  H
  C565     1.0000 0.76129  0.81790  0.70448  Biso   1.000  C
  C566     1.0000 0.71394  0.78154  0.73890  Biso   1.000  C
  C567     1.0000 0.66150  0.65500  0.72850  Biso   1.000  C
  C568     1.0000 0.69700  0.63680  0.70430  Biso   1.000  C
  H149     1.0000 0.77610  0.82060  0.68760  Biso   1.000  H
  C569     1.0000 0.76421  0.84611  0.72060  Biso   1.000  C
  C570     1.0000 0.71680  0.80970  0.75500  Biso   1.000  C
  H150     1.0000 0.65550  0.67160  0.73130  Biso   1.000  H
  C571     1.0000 0.64240  0.62390  0.74350  Biso   1.000  C
  C572     1.0000 0.67790  0.60640  0.72150  Biso   1.000  C
  H151     1.0000 0.71400  0.63940  0.69000  Biso   1.000  H
  H152     1.0000 0.78100  0.86770  0.71450  Biso   1.000  H
  C573     1.0000 0.74194  0.84203  0.74580  Biso   1.000  C
  H153     1.0000 0.62350  0.61950  0.75590  Biso   1.000  H
  C574     1.0000 0.65160  0.59950  0.74010  Biso   1.000  C
  H154     1.0000 0.68430  0.59000  0.71970  Biso   1.000  H
  C575     1.0000 0.74750  0.87620  0.76340  Biso   1.000  C
  C576     1.0000 0.63130  0.56670  0.75730  Biso   1.000  C
  O111     1.0000 0.76620  0.90380  0.75095  Biso   1.000  O
  O112     1.0000 0.73230  0.87015  0.78906  Biso   1.000  O
  In14     1.0000 0.75964  0.93083  0.79455  Biso   1.000  In
  O113     1.0000 0.76157  0.96540  0.83641  Biso   1.000  O
  O114     1.0000 0.73372  0.90952  0.84359  Biso   1.000  O
  O115     1.0000 0.81464  0.96965  0.78176  Biso   1.000  O
  O116     1.0000 0.80331  0.92758  0.81692  Biso   1.000  O
  O117     1.0000 0.74640  0.96277  0.76027  Biso   1.000  O
  O118     1.0000 0.70720  0.92250  0.78760  Biso   1.000  O
  C577     1.0000 0.74330  0.93800  0.85320  Biso   1.000  C
  C578     1.0000 0.82300  0.95340  0.79880  Biso   1.000  C
  C579     1.0000 0.73510  0.94530  0.88851  Biso   1.000  C
  C580     1.0000 0.86060  0.96390  0.80300  Biso   1.000  C
  C581     1.0000 0.73370  0.97390  0.89780  Biso   1.000  C
  C582     1.0000 0.72795  0.91989  0.91130  Biso   1.000  C
  C583     1.0000 0.87040  0.94820  0.82620  Biso   1.000  C
  C584     1.0000 0.88492  0.99020  0.78400  Biso   1.000  C
  C585     1.0000 0.72505  0.97708  0.92980  Biso   1.000  C
  C586     1.0000 0.71934  0.92304  0.94329  Biso   1.000  C
  C587     1.0000 0.90460  0.95880  0.83050  Biso   1.000  C
  C588     1.0000 0.91900  0.00070  0.78820  Biso   1.000  C
  C589     1.0000 0.71780  0.95160  0.95254  Biso   1.000  C
  C590     1.0000 0.92880  0.98500  0.81150  Biso   1.000  C
  C591     1.0000 0.70480  0.95310  0.98550  Biso   1.000  C
  C592     1.0000 0.96400  0.99150  0.81110  Biso   1.000  C
  C593     1.0000 0.71090  0.98340  0.00070  Biso   1.000  C
  C594     1.0000 0.68540  0.92350  0.00280  Biso   1.000  C
  C595     1.0000 0.99310  0.02630  0.81460  Biso   1.000  C
  H155     1.0000 0.72340  0.00400  0.98990  Biso   1.000  H
  C596     1.0000 0.69800  0.98230  0.03210  Biso   1.000  C
  C597     1.0000 0.67340  0.92180  0.03310  Biso   1.000  C
  H156     1.0000 0.68040  0.90330  0.99260  Biso   1.000  H
  C598     1.0000 0.67930  0.95190  0.04900  Biso   1.000  C
  C599     1.0000 0.70550  0.01530  0.04839  Biso   1.000  C
  C600     1.0000 0.65270  0.88900  0.05150  Biso   1.000  C
  H157     1.0000 0.67100  0.95140  0.06990  Biso   1.000  H
  C601     1.0000 0.73824  0.04280  0.04980  Biso   1.000  C
  C602     1.0000 0.67883  0.01773  0.06200  Biso   1.000  C
  C603     1.0000 0.65490  0.88520  0.08510  Biso   1.000  C
  C604     1.0000 0.63010  0.85900  0.03330  Biso   1.000  C
  C605     1.0000 0.74430  0.07270  0.06480  Biso   1.000  C
  C606     1.0000 0.68486  0.04760  0.07700  Biso   1.000  C
  H158     1.0000 0.66860  0.90360  0.09850  Biso   1.000  H
  C607     1.0000 0.63540  0.85210  0.09830  Biso   1.000  C
  C608     1.0000 0.61270  0.82910  0.04810  Biso   1.000  C
  H159     1.0000 0.62770  0.86060  0.01080  Biso   1.000  H
  C609     1.0000 0.71762  0.07512  0.07841  Biso   1.000  C
  H160     1.0000 0.63580  0.84910  0.12080  Biso   1.000  H
  C610     1.0000 0.61600  0.82430  0.07880  Biso   1.000  C
  H161     1.0000 0.59740  0.81070  0.03560  Biso   1.000  H
  C611     1.0000 0.72500  0.10840  0.09660  Biso   1.000  C
  C612     1.0000 0.59940  0.79110  0.09570  Biso   1.000  C
  C613     1.0000 0.71420  0.81010  0.75130  Biso   1.000  C
  C614     1.0000 0.90670  0.95270  0.81510  Biso   1.000  C
  C615     1.0000 0.87260  0.94250  0.81240  Biso   1.000  C
  C616     1.0000 0.92740  0.97870  0.79370  Biso   1.000  C
  C617     1.0000 0.91670  0.99640  0.77390  Biso   1.000  C
  C618     1.0000 0.96380  0.98970  0.78990  Biso   1.000  C
  C619     1.0000 0.99070  0.02530  0.79490  Biso   1.000  C
  C620     1.0000 0.88010  0.82190  0.45800  Biso   1.000  C
  C621     1.0000 0.88670  0.86180  0.45600  Biso   1.000  C
  C622     1.0000 0.69800  0.92260  0.93420  Biso   1.000  C
  C623     1.0000 0.70790  0.91770  0.90330  Biso   1.000  C
  C624     1.0000 0.74180  0.98010  0.93570  Biso   1.000  C
  C625     1.0000 0.74940  0.97710  0.90320  Biso   1.000  C
  C626     1.0000 0.72570  0.02810  0.07620  Biso   1.000  C
  C627     1.0000 0.73030  0.05640  0.09340  Biso   1.000  C
  C628     1.0000 0.69720  0.06430  0.05060  Biso   1.000  C
  C629     1.0000 0.69690  0.03760  0.03390  Biso   1.000  C
  O119     1.0000 0.75510  0.12670  0.10500  Biso   1.000  O
  C630     1.0000 0.62867  0.56510  0.75380  Biso   1.000  C
  In15     1.0000 0.49042  0.09268  0.79113  Biso   1.000  In
  O120     1.0000 0.47977  0.07193  0.83920  Biso   1.000  O
  O121     1.0000 0.45877  0.10263  0.82773  Biso   1.000  O
  O122     1.0000 0.54607  0.13833  0.81513  Biso   1.000  O
  O123     1.0000 0.51800  0.14656  0.78103  Biso   1.000  O
  O124     1.0000 0.45390  0.09498  0.75408  Biso   1.000  O
  O125     1.0000 0.43947  0.04672  0.77533  Biso   1.000  O
  O126     1.0000 0.51523  0.06121  0.79143  Biso   1.000  O
  O127     1.0000 0.51787  0.08603  0.74593  Biso   1.000  O
  C631     1.0000 0.46487  0.07993  0.84943  Biso   1.000  C
  C632     1.0000 0.54507  0.15983  0.79693  Biso   1.000  C
  C633     1.0000 0.45137  0.07963  0.86953  Biso   1.000  C
  C634     1.0000 0.56927  0.19193  0.79713  Biso   1.000  C
  C635     1.0000 0.44817  0.05633  0.90243  Biso   1.000  C
  C636     1.0000 0.43327  0.08943  0.88713  Biso   1.000  C
  C637     1.0000 0.60077  0.20683  0.81223  Biso   1.000  C
  C638     1.0000 0.56167  0.21193  0.77713  Biso   1.000  C
  H162     1.0000 0.45837  0.04333  0.89893  Biso   1.000  H
  C639     1.0000 0.43337  0.05103  0.93483  Biso   1.000  C
  C640     1.0000 0.41657  0.09103  0.91753  Biso   1.000  C
  H163     1.0000 0.42857  0.10203  0.87223  Biso   1.000  H
  C641     1.0000 0.62317  0.24283  0.80703  Biso   1.000  C
  C642     1.0000 0.58447  0.24753  0.77293  Biso   1.000  C
  H164     1.0000 0.43407  0.03563  0.94923  Biso   1.000  H
  C643     1.0000 0.41837  0.06963  0.94373  Biso   1.000  C
  H165     1.0000 0.40607  0.10393  0.91983  Biso   1.000  H
  H166     1.0000 0.64407  0.25323  0.81753  Biso   1.000  H
  C644     1.0000 0.61527  0.26163  0.78823  Biso   1.000  C
  H167     1.0000 0.57847  0.26063  0.76013  Biso   1.000  H
  C645     1.0000 0.40667  0.06503  0.97923  Biso   1.000  C
  C646     1.0000 0.64497  0.29993  0.78823  Biso   1.000  C
  C647     1.0000 0.41027  0.09213  0.99673  Biso   1.000  C
  C648     1.0000 0.38917  0.03273  0.99503  Biso   1.000  C
  C649     1.0000 0.63217  0.32163  0.78803  Biso   1.000  C
  H168     1.0000 0.42167  0.11333  0.98693  Biso   1.000  H
  C650     1.0000 0.39817  0.09003  0.02833  Biso   1.000  C
  C651     1.0000 0.37627  0.02973  0.02683  Biso   1.000  C
  H169     1.0000 0.38637  0.01363  0.98403  Biso   1.000  H
  H170     1.0000 0.60917  0.31373  0.78763  Biso   1.000  H
  C652     1.0000 0.38137  0.05843  0.04243  Biso   1.000  C
  C653     1.0000 0.40281  0.11893  0.04693  Biso   1.000  C
  C654     1.0000 0.35687  0.99543  0.04213  Biso   1.000  C
  H171     1.0000 0.37317  0.05653  0.06363  Biso   1.000  H
  C655     1.0000 0.42796  0.15123  0.03781  Biso   1.000  C
  C656     1.0000 0.38061  0.11487  0.07223  Biso   1.000  C
  C657     1.0000 0.32817  0.98833  0.06183  Biso   1.000  C
  C658     1.0000 0.36367  0.97013  0.03763  Biso   1.000  C
  H172     1.0000 0.44277  0.15393  0.02093  Biso   1.000  H
  C659     1.0000 0.43088  0.17944  0.05393  Biso   1.000  C
  C660     1.0000 0.38347  0.14303  0.08833  Biso   1.000  C
  H173     1.0000 0.32217  0.00493  0.06463  Biso   1.000  H
  C661     1.0000 0.30907  0.95723  0.07683  Biso   1.000  C
  C662     1.0000 0.34457  0.93973  0.05483  Biso   1.000  C
  H174     1.0000 0.38067  0.97273  0.02333  Biso   1.000  H
  H175     1.0000 0.44767  0.20103  0.04783  Biso   1.000  H
  C663     1.0000 0.40861  0.17536  0.07913  Biso   1.000  C
  H176     1.0000 0.29017  0.95283  0.08923  Biso   1.000  H
  C664     1.0000 0.31827  0.93283  0.07343  Biso   1.000  C
  H177     1.0000 0.35097  0.92333  0.05303  Biso   1.000  H
  C665     1.0000 0.41417  0.20953  0.09673  Biso   1.000  C
  C666     1.0000 0.29797  0.90003  0.09063  Biso   1.000  C
  O128     1.0000 0.43287  0.23713  0.08428  Biso   1.000  O
  O129     1.0000 0.39897  0.20348  0.12239  Biso   1.000  O
  In16     1.0000 0.42630  0.26417  0.12788  Biso   1.000  In
  O130     1.0000 0.42824  0.29873  0.16974  Biso   1.000  O
  O131     1.0000 0.40039  0.24285  0.17692  Biso   1.000  O
  O132     1.0000 0.48131  0.30298  0.11509  Biso   1.000  O
  O133     1.0000 0.46998  0.26091  0.15025  Biso   1.000  O
  O134     1.0000 0.41307  0.29610  0.09360  Biso   1.000  O
  O135     1.0000 0.37387  0.25583  0.12093  Biso   1.000  O
  C667     1.0000 0.40997  0.27133  0.18653  Biso   1.000  C
  C668     1.0000 0.48967  0.28673  0.13213  Biso   1.000  C
  C669     1.0000 0.40177  0.27863  0.22184  Biso   1.000  C
  C670     1.0000 0.52727  0.29723  0.13633  Biso   1.000  C
  C671     1.0000 0.40037  0.30723  0.23113  Biso   1.000  C
  C672     1.0000 0.39462  0.25322  0.24463  Biso   1.000  C
  C673     1.0000 0.53707  0.28153  0.15953  Biso   1.000  C
  C674     1.0000 0.55159  0.32353  0.11733  Biso   1.000  C
  C675     1.0000 0.39172  0.31041  0.26313  Biso   1.000  C
  C676     1.0000 0.38601  0.25637  0.27662  Biso   1.000  C
  C677     1.0000 0.57127  0.29213  0.16383  Biso   1.000  C
  C678     1.0000 0.58567  0.33403  0.12153  Biso   1.000  C
  C679     1.0000 0.38447  0.28493  0.28587  Biso   1.000  C
  C680     1.0000 0.59547  0.31833  0.14483  Biso   1.000  C
  C681     1.0000 0.37147  0.28643  0.31883  Biso   1.000  C
  C682     1.0000 0.63067  0.32483  0.14443  Biso   1.000  C
  C683     1.0000 0.37757  0.31673  0.33403  Biso   1.000  C
  C684     1.0000 0.35207  0.25683  0.33613  Biso   1.000  C
  C685     1.0000 0.65977  0.35963  0.14793  Biso   1.000  C
  H178     1.0000 0.39007  0.33733  0.32323  Biso   1.000  H
  C686     1.0000 0.36467  0.31563  0.36543  Biso   1.000  C
  C687     1.0000 0.34007  0.25513  0.36643  Biso   1.000  C
  H179     1.0000 0.34707  0.23663  0.32593  Biso   1.000  H
  C688     1.0000 0.34597  0.28523  0.38233  Biso   1.000  C
  C689     1.0000 0.37217  0.34863  0.38172  Biso   1.000  C
  C690     1.0000 0.31937  0.22233  0.38483  Biso   1.000  C
  H180     1.0000 0.33767  0.28473  0.40323  Biso   1.000  H
  C691     1.0000 0.40491  0.37613  0.38313  Biso   1.000  C
  C692     1.0000 0.34550  0.35106  0.39533  Biso   1.000  C
  C693     1.0000 0.32157  0.21853  0.41843  Biso   1.000  C
  C694     1.0000 0.29677  0.19233  0.36663  Biso   1.000  C
  C695     1.0000 0.41097  0.40603  0.39813  Biso   1.000  C
  C696     1.0000 0.35153  0.38093  0.41033  Biso   1.000  C
  H181     1.0000 0.33527  0.23693  0.43183  Biso   1.000  H
  C697     1.0000 0.30207  0.18543  0.43163  Biso   1.000  C
  C698     1.0000 0.27937  0.16243  0.38143  Biso   1.000  C
  H182     1.0000 0.29437  0.19393  0.34413  Biso   1.000  H
  C699     1.0000 0.38429  0.40845  0.41174  Biso   1.000  C
  H183     1.0000 0.30247  0.18243  0.45413  Biso   1.000  H
  C700     1.0000 0.28267  0.15763  0.41213  Biso   1.000  C
  H184     1.0000 0.26407  0.14403  0.36893  Biso   1.000  H
  C701     1.0000 0.39167  0.44173  0.42993  Biso   1.000  C
  C702     1.0000 0.26607  0.12443  0.42903  Biso   1.000  C
  C703     1.0000 0.38087  0.14343  0.08463  Biso   1.000  C
  C704     1.0000 0.57337  0.28603  0.14843  Biso   1.000  C
  C705     1.0000 0.53927  0.27583  0.14573  Biso   1.000  C
  C706     1.0000 0.59407  0.31203  0.12703  Biso   1.000  C
  C707     1.0000 0.58337  0.32973  0.10723  Biso   1.000  C
  C708     1.0000 0.63047  0.32303  0.12323  Biso   1.000  C
  C709     1.0000 0.65737  0.35863  0.12823  Biso   1.000  C
  C710     1.0000 0.54677  0.15523  0.79133  Biso   1.000  C
  C711     1.0000 0.55337  0.19513  0.78933  Biso   1.000  C
  C712     1.0000 0.36467  0.25593  0.26753  Biso   1.000  C
  C713     1.0000 0.37457  0.25103  0.23663  Biso   1.000  C
  C714     1.0000 0.40847  0.31343  0.26903  Biso   1.000  C
  C715     1.0000 0.41607  0.31043  0.23653  Biso   1.000  C
  C716     1.0000 0.39237  0.36143  0.40953  Biso   1.000  C
  C717     1.0000 0.39697  0.38973  0.42673  Biso   1.000  C
  C718     1.0000 0.36387  0.39763  0.38393  Biso   1.000  C
  C719     1.0000 0.36357  0.37093  0.36723  Biso   1.000  C
  O136     1.0000 0.42177  0.46003  0.43833  Biso   1.000  O
  C720     1.0000 0.29534  0.89843  0.08713  Biso   1.000  C
  In17     1.0000 0.15709  0.42601  0.12447  Biso   1.000  In
  O137     1.0000 0.14643  0.40527  0.17254  Biso   1.000  O
  O138     1.0000 0.12543  0.43597  0.16107  Biso   1.000  O
  O139     1.0000 0.21273  0.47167  0.14847  Biso   1.000  O
  O140     1.0000 0.18466  0.47990  0.11437  Biso   1.000  O
  O141     1.0000 0.12056  0.42832  0.08742  Biso   1.000  O
  O142     1.0000 0.10613  0.38006  0.10867  Biso   1.000  O
  O143     1.0000 0.18189  0.39455  0.12477  Biso   1.000  O
  O144     1.0000 0.18453  0.41937  0.07927  Biso   1.000  O
  C721     1.0000 0.13153  0.41327  0.18277  Biso   1.000  C
  C722     1.0000 0.21173  0.49317  0.13027  Biso   1.000  C
  C723     1.0000 0.11803  0.41297  0.20287  Biso   1.000  C
  C724     1.0000 0.23593  0.52527  0.13047  Biso   1.000  C
  C725     1.0000 0.11483  0.38967  0.23577  Biso   1.000  C
  C726     1.0000 0.09993  0.42277  0.22047  Biso   1.000  C
  C727     1.0000 0.26743  0.54017  0.14557  Biso   1.000  C
  C728     1.0000 0.22833  0.54527  0.11047  Biso   1.000  C
  H185     1.0000 0.12503  0.37667  0.23227  Biso   1.000  H
  C729     1.0000 0.10003  0.38437  0.26817  Biso   1.000  C
  C730     1.0000 0.08323  0.42437  0.25087  Biso   1.000  C
  H186     1.0000 0.09523  0.43537  0.20557  Biso   1.000  H
  C731     1.0000 0.28983  0.57617  0.14037  Biso   1.000  C
  C732     1.0000 0.25113  0.58087  0.10627  Biso   1.000  C
  H187     1.0000 0.10073  0.36897  0.28257  Biso   1.000  H
  C733     1.0000 0.08503  0.40297  0.27707  Biso   1.000  C
  H188     1.0000 0.07273  0.43727  0.25317  Biso   1.000  H
  H189     1.0000 0.31073  0.58657  0.15087  Biso   1.000  H
  C734     1.0000 0.28193  0.59497  0.12157  Biso   1.000  C
  H190     1.0000 0.24513  0.59397  0.09347  Biso   1.000  H
  C735     1.0000 0.07333  0.39837  0.31257  Biso   1.000  C
  C736     1.0000 0.31163  0.63327  0.12157  Biso   1.000  C
  C737     1.0000 0.07693  0.42547  0.33007  Biso   1.000  C
  C738     1.0000 0.05583  0.36607  0.32837  Biso   1.000  C
  C739     1.0000 0.29883  0.65497  0.12137  Biso   1.000  C
  H191     1.0000 0.08833  0.44667  0.32027  Biso   1.000  H
  C740     1.0000 0.06483  0.42337  0.36167  Biso   1.000  C
  C741     1.0000 0.04293  0.36307  0.36017  Biso   1.000  C
  H192     1.0000 0.05303  0.34697  0.31737  Biso   1.000  H
  H193     1.0000 0.27583  0.64707  0.12097  Biso   1.000  H
  C742     1.0000 0.04803  0.39177  0.37577  Biso   1.000  C
  C743     1.0000 0.06947  0.45227  0.38027  Biso   1.000  C
  C744     1.0000 0.02353  0.32877  0.37547  Biso   1.000  C
  H194     1.0000 0.03983  0.38987  0.39697  Biso   1.000  H
  C745     1.0000 0.09462  0.48457  0.37115  Biso   1.000  C
  C746     1.0000 0.04727  0.44821  0.40557  Biso   1.000  C
  C747     1.0000 0.99483  0.32167  0.39517  Biso   1.000  C
  C748     1.0000 0.03033  0.30347  0.37097  Biso   1.000  C
  H195     1.0000 0.10943  0.48727  0.35427  Biso   1.000  H
  C749     1.0000 0.09754  0.51278  0.38727  Biso   1.000  C
  C750     1.0000 0.05013  0.47637  0.42167  Biso   1.000  C
  H196     1.0000 0.98883  0.33827  0.39797  Biso   1.000  H
  C751     1.0000 0.97573  0.29057  0.41017  Biso   1.000  C
  C752     1.0000 0.01123  0.27307  0.38817  Biso   1.000  C
  H197     1.0000 0.04733  0.30607  0.35667  Biso   1.000  H
  H198     1.0000 0.11433  0.53437  0.38117  Biso   1.000  H
  C753     1.0000 0.07527  0.50870  0.41247  Biso   1.000  C
  H199     1.0000 0.95683  0.28617  0.42257  Biso   1.000  H
  C754     1.0000 0.98493  0.26617  0.40677  Biso   1.000  C
  H200     1.0000 0.01763  0.25667  0.38637  Biso   1.000  H
  C755     1.0000 0.08083  0.54287  0.43007  Biso   1.000  C
  C756     1.0000 0.96463  0.23337  0.42397  Biso   1.000  C
  O145     1.0000 0.09953  0.57047  0.41762  Biso   1.000  O
  O146     1.0000 0.06563  0.53682  0.45573  Biso   1.000  O
  In18     1.0000 0.09297  0.59750  0.46121  Biso   1.000  In
  O147     1.0000 0.09490  0.63207  0.50308  Biso   1.000  O
  O148     1.0000 0.06705  0.57619  0.51026  Biso   1.000  O
  O149     1.0000 0.14797  0.63632  0.44843  Biso   1.000  O
  O150     1.0000 0.13664  0.59425  0.48359  Biso   1.000  O
  O151     1.0000 0.07973  0.62944  0.42694  Biso   1.000  O
  O152     1.0000 0.04053  0.58917  0.45427  Biso   1.000  O
  C757     1.0000 0.07663  0.60467  0.51987  Biso   1.000  C
  C758     1.0000 0.15633  0.62007  0.46547  Biso   1.000  C
  C759     1.0000 0.06843  0.61197  0.55518  Biso   1.000  C
  C760     1.0000 0.19393  0.63057  0.46967  Biso   1.000  C
  C761     1.0000 0.06703  0.64057  0.56447  Biso   1.000  C
  C762     1.0000 0.06128  0.58656  0.57797  Biso   1.000  C
  C763     1.0000 0.20373  0.61487  0.49287  Biso   1.000  C
  C764     1.0000 0.21825  0.65687  0.45067  Biso   1.000  C
  C765     1.0000 0.05838  0.64375  0.59647  Biso   1.000  C
  C766     1.0000 0.05267  0.58971  0.60996  Biso   1.000  C
  C767     1.0000 0.23793  0.62547  0.49717  Biso   1.000  C
  C768     1.0000 0.25233  0.66737  0.45487  Biso   1.000  C
  C769     1.0000 0.05113  0.61827  0.61921  Biso   1.000  C
  C770     1.0000 0.26213  0.65167  0.47817  Biso   1.000  C
  C771     1.0000 0.03813  0.61977  0.65217  Biso   1.000  C
  C772     1.0000 0.29733  0.65817  0.47777  Biso   1.000  C
  C773     1.0000 0.04423  0.65007  0.66737  Biso   1.000  C
  C774     1.0000 0.01873  0.59017  0.66947  Biso   1.000  C
  C775     1.0000 0.32643  0.69297  0.48127  Biso   1.000  C
  H201     1.0000 0.05673  0.67067  0.65657  Biso   1.000  H
  C776     1.0000 0.03133  0.64897  0.69877  Biso   1.000  C
  C777     1.0000 0.00673  0.58847  0.69977  Biso   1.000  C
  H202     1.0000 0.01373  0.56997  0.65927  Biso   1.000  H
  C778     1.0000 0.01263  0.61857  0.71567  Biso   1.000  C
  C779     1.0000 0.03883  0.68197  0.71506  Biso   1.000  C
  C780     1.0000 0.98603  0.55567  0.71817  Biso   1.000  C
  H203     1.0000 0.00433  0.61807  0.73657  Biso   1.000  H
  C781     1.0000 0.07157  0.70947  0.71647  Biso   1.000  C
  C782     1.0000 0.01216  0.68440  0.72867  Biso   1.000  C
  C783     1.0000 0.98823  0.55187  0.75177  Biso   1.000  C
  C784     1.0000 0.96343  0.52567  0.69997  Biso   1.000  C
  C785     1.0000 0.07763  0.73937  0.73147  Biso   1.000  C
  C786     1.0000 0.01819  0.71427  0.74367  Biso   1.000  C
  H204     1.0000 0.00193  0.57027  0.76517  Biso   1.000  H
  C787     1.0000 0.96873  0.51877  0.76497  Biso   1.000  C
  C788     1.0000 0.94603  0.49577  0.71477  Biso   1.000  C
  H205     1.0000 0.96103  0.52727  0.67747  Biso   1.000  H
  C789     1.0000 0.05095  0.74179  0.74508  Biso   1.000  C
  H206     1.0000 0.96913  0.51577  0.78747  Biso   1.000  H
  C790     1.0000 0.94933  0.49097  0.74547  Biso   1.000  C
  H207     1.0000 0.93073  0.47737  0.70227  Biso   1.000  H
  C791     1.0000 0.05833  0.77507  0.76327  Biso   1.000  C
  C792     1.0000 0.93273  0.45777  0.76237  Biso   1.000  C
  C793     1.0000 0.04753  0.47677  0.41797  Biso   1.000  C
  C794     1.0000 0.24003  0.61937  0.48177  Biso   1.000  C
  C795     1.0000 0.20593  0.60917  0.47907  Biso   1.000  C
  C796     1.0000 0.26073  0.64537  0.46037  Biso   1.000  C
  C797     1.0000 0.25003  0.66307  0.44057  Biso   1.000  C
  C798     1.0000 0.29713  0.65637  0.45657  Biso   1.000  C
  C799     1.0000 0.32403  0.69197  0.46157  Biso   1.000  C
  C800     1.0000 0.21343  0.48857  0.12467  Biso   1.000  C
  C801     1.0000 0.22003  0.52847  0.12267  Biso   1.000  C
  C802     1.0000 0.03133  0.58927  0.60087  Biso   1.000  C
  C803     1.0000 0.04123  0.58437  0.56997  Biso   1.000  C
  C804     1.0000 0.07513  0.64677  0.60237  Biso   1.000  C
  C805     1.0000 0.08273  0.64377  0.56987  Biso   1.000  C
  C806     1.0000 0.05903  0.69477  0.74287  Biso   1.000  C
  C807     1.0000 0.06363  0.72307  0.76007  Biso   1.000  C
  C808     1.0000 0.03053  0.73097  0.71727  Biso   1.000  C
  C809     1.0000 0.03023  0.70427  0.70057  Biso   1.000  C
  O153     1.0000 0.08843  0.79337  0.77167  Biso   1.000  O
  C810     1.0000 0.96200  0.23177  0.42047  Biso   1.000  C
  In19     1.0000 0.75934  0.93559  0.54220  Biso   1.000  In
  O154     1.0000 0.73860  0.92550  0.49413  Biso   1.000  O
  O155     1.0000 0.76930  0.97720  0.50560  Biso   1.000  O
  O156     1.0000 0.80500  0.92560  0.51820  Biso   1.000  O
  O157     1.0000 0.81323  0.96190  0.55230  Biso   1.000  O
  O158     1.0000 0.76165  0.97442  0.57925  Biso   1.000  O
  O159     1.0000 0.71339  0.94059  0.55800  Biso   1.000  O
  O160     1.0000 0.72788  0.87932  0.54190  Biso   1.000  O
  O161     1.0000 0.75270  0.90150  0.58740  Biso   1.000  O
  C811     1.0000 0.74660  0.94840  0.48390  Biso   1.000  C
  C812     1.0000 0.82650  0.94810  0.53640  Biso   1.000  C
  C813     1.0000 0.74630  0.96160  0.46380  Biso   1.000  C
  C814     1.0000 0.85860  0.95600  0.53620  Biso   1.000  C
  C815     1.0000 0.72300  0.94150  0.43090  Biso   1.000  C
  C816     1.0000 0.75610  0.98950  0.44620  Biso   1.000  C
  C817     1.0000 0.87350  0.93940  0.52110  Biso   1.000  C
  C818     1.0000 0.87860  0.98360  0.55620  Biso   1.000  C
  H208     1.0000 0.71000  0.91830  0.43440  Biso   1.000  H
  C819     1.0000 0.71770  0.95100  0.39850  Biso   1.000  C
  C820     1.0000 0.75770  0.00780  0.41580  Biso   1.000  C
  H209     1.0000 0.76870  0.00680  0.46110  Biso   1.000  H
  C821     1.0000 0.90950  0.95300  0.52630  Biso   1.000  C
  C822     1.0000 0.91420  0.99640  0.56040  Biso   1.000  C
  H210     1.0000 0.70230  0.93490  0.38410  Biso   1.000  H
  C823     1.0000 0.73630  0.98460  0.38960  Biso   1.000  C
  H211     1.0000 0.77060  0.03120  0.41350  Biso   1.000  H
  H212     1.0000 0.91990  0.94250  0.51580  Biso   1.000  H
  C824     1.0000 0.92830  0.97970  0.54510  Biso   1.000  C
  H213     1.0000 0.92730  0.01550  0.57320  Biso   1.000  H
  C825     1.0000 0.73170  0.99170  0.35410  Biso   1.000  C
  C826     1.0000 0.96660  0.98830  0.54510  Biso   1.000  C
  C827     1.0000 0.75880  0.01520  0.33660  Biso   1.000  C
  C828     1.0000 0.69940  0.97690  0.33830  Biso   1.000  C
  C829     1.0000 0.98830  0.02280  0.54530  Biso   1.000  C
  H214     1.0000 0.78000  0.02500  0.34640  Biso   1.000  H
  C830     1.0000 0.75670  0.02520  0.30500  Biso   1.000  C
  C831     1.0000 0.69640  0.98680  0.30650  Biso   1.000  C
  H215     1.0000 0.68030  0.96060  0.34930  Biso   1.000  H
  H216     1.0000 0.98040  0.03790  0.54570  Biso   1.000  H
  C832     1.0000 0.72510  0.01040  0.29090  Biso   1.000  C
  C833     1.0000 0.78560  0.04946  0.28640  Biso   1.000  C
  C834     1.0000 0.66210  0.97190  0.29120  Biso   1.000  C
  H217     1.0000 0.72320  0.01670  0.26970  Biso   1.000  H
  C835     1.0000 0.81790  0.05661  0.29552  Biso   1.000  C
  C836     1.0000 0.78154  0.06760  0.26110  Biso   1.000  C
  C837     1.0000 0.65500  0.99350  0.27150  Biso   1.000  C
  C838     1.0000 0.63680  0.93980  0.29570  Biso   1.000  C
  H218     1.0000 0.82060  0.04450  0.31240  Biso   1.000  H
  C839     1.0000 0.84611  0.08190  0.27940  Biso   1.000  C
  C840     1.0000 0.80970  0.09290  0.24500  Biso   1.000  C
  H219     1.0000 0.67160  0.01610  0.26870  Biso   1.000  H
  C841     1.0000 0.62390  0.98150  0.25650  Biso   1.000  C
  C842     1.0000 0.60640  0.92850  0.27850  Biso   1.000  C
  H220     1.0000 0.63940  0.92540  0.31000  Biso   1.000  H
  H221     1.0000 0.86770  0.08670  0.28550  Biso   1.000  H
  C843     1.0000 0.84203  0.10009  0.25420  Biso   1.000  C
  H222     1.0000 0.61950  0.99600  0.24410  Biso   1.000  H
  C844     1.0000 0.59950  0.94790  0.25990  Biso   1.000  C
  H223     1.0000 0.59000  0.90570  0.28030  Biso   1.000  H
  C845     1.0000 0.87620  0.12870  0.23660  Biso   1.000  C
  C846     1.0000 0.56670  0.93540  0.24270  Biso   1.000  C
  O162     1.0000 0.90380  0.13760  0.24905  Biso   1.000  O
  O163     1.0000 0.87015  0.13785  0.21094  Biso   1.000  O
  In20     1.0000 0.93083  0.17120  0.20545  Biso   1.000  In
  O164     1.0000 0.96540  0.20383  0.16359  Biso   1.000  O
  O165     1.0000 0.90952  0.17580  0.15641  Biso   1.000  O
  O166     1.0000 0.96965  0.15501  0.21824  Biso   1.000  O
  O167     1.0000 0.92758  0.12427  0.18308  Biso   1.000  O
  O168     1.0000 0.96277  0.21637  0.23973  Biso   1.000  O
  O169     1.0000 0.92250  0.21530  0.21240  Biso   1.000  O
  C847     1.0000 0.93800  0.19470  0.14680  Biso   1.000  C
  C848     1.0000 0.95340  0.13040  0.20120  Biso   1.000  C
  C849     1.0000 0.94530  0.21020  0.11149  Biso   1.000  C
  C850     1.0000 0.96390  0.10330  0.19700  Biso   1.000  C
  C851     1.0000 0.97390  0.24020  0.10220  Biso   1.000  C
  C852     1.0000 0.91989  0.19194  0.08870  Biso   1.000  C
  C853     1.0000 0.94820  0.07780  0.17380  Biso   1.000  C
  C854     1.0000 0.99020  0.10528  0.21600  Biso   1.000  C
  C855     1.0000 0.97708  0.25203  0.07020  Biso   1.000  C
  C856     1.0000 0.92304  0.20370  0.05671  Biso   1.000  C
  C857     1.0000 0.95880  0.05420  0.16950  Biso   1.000  C
  C858     1.0000 0.00070  0.08170  0.21180  Biso   1.000  C
  C859     1.0000 0.95160  0.23380  0.04746  Biso   1.000  C
  C860     1.0000 0.98500  0.05620  0.18850  Biso   1.000  C
  C861     1.0000 0.95310  0.24830  0.01450  Biso   1.000  C
  C862     1.0000 0.99150  0.02750  0.18890  Biso   1.000  C
  C863     1.0000 0.98340  0.27250  0.99930  Biso   1.000  C
  C864     1.0000 0.92350  0.23810  0.99720  Biso   1.000  C
  C865     1.0000 0.02630  0.03320  0.18540  Biso   1.000  C
  H224     1.0000 0.00400  0.28060  0.01010  Biso   1.000  H
  C866     1.0000 0.98230  0.28430  0.96790  Biso   1.000  C
  C867     1.0000 0.92180  0.24840  0.96690  Biso   1.000  C
  H225     1.0000 0.90330  0.22290  0.00740  Biso   1.000  H
  C868     1.0000 0.95190  0.27260  0.95100  Biso   1.000  C
  C869     1.0000 0.01530  0.30980  0.95161  Biso   1.000  C
  C870     1.0000 0.88900  0.23630  0.94850  Biso   1.000  C
  H226     1.0000 0.95140  0.28040  0.93010  Biso   1.000  H
  C871     1.0000 0.04280  0.30456  0.95020  Biso   1.000  C
  C872     1.0000 0.01773  0.33890  0.93800  Biso   1.000  C
  C873     1.0000 0.88520  0.23030  0.91490  Biso   1.000  C
  C874     1.0000 0.85900  0.22890  0.96670  Biso   1.000  C
  C875     1.0000 0.07270  0.32840  0.93520  Biso   1.000  C
  C876     1.0000 0.04760  0.36274  0.92300  Biso   1.000  C
  H227     1.0000 0.90360  0.23500  0.90150  Biso   1.000  H
  C877     1.0000 0.85210  0.21670  0.90170  Biso   1.000  C
  C878     1.0000 0.82910  0.21640  0.95190  Biso   1.000  C
  H228     1.0000 0.86060  0.23290  0.98920  Biso   1.000  H
  C879     1.0000 0.07512  0.35750  0.92159  Biso   1.000  C
  H229     1.0000 0.84910  0.21330  0.87920  Biso   1.000  H
  C880     1.0000 0.82430  0.20830  0.92120  Biso   1.000  C
  H230     1.0000 0.81070  0.21330  0.96440  Biso   1.000  H
  C881     1.0000 0.10840  0.38340  0.90340  Biso   1.000  C
  C882     1.0000 0.79110  0.19170  0.90430  Biso   1.000  C
  C883     1.0000 0.81010  0.09590  0.24870  Biso   1.000  C
  C884     1.0000 0.95270  0.04600  0.18490  Biso   1.000  C
  C885     1.0000 0.94250  0.06990  0.18760  Biso   1.000  C
  C886     1.0000 0.97870  0.05130  0.20630  Biso   1.000  C
  C887     1.0000 0.99640  0.07970  0.22610  Biso   1.000  C
  C888     1.0000 0.98970  0.02590  0.21010  Biso   1.000  C
  C889     1.0000 0.02530  0.03460  0.20510  Biso   1.000  C
  C890     1.0000 0.82190  0.94180  0.54200  Biso   1.000  C
  C891     1.0000 0.86180  0.97510  0.54400  Biso   1.000  C
  C892     1.0000 0.92260  0.22460  0.06580  Biso   1.000  C
  C893     1.0000 0.91770  0.20980  0.09670  Biso   1.000  C
  C894     1.0000 0.98010  0.23830  0.06430  Biso   1.000  C
  C895     1.0000 0.97710  0.22770  0.09680  Biso   1.000  C
  C896     1.0000 0.02810  0.30240  0.92380  Biso   1.000  C
  C897     1.0000 0.05640  0.32610  0.90660  Biso   1.000  C
  C898     1.0000 0.06430  0.36710  0.94940  Biso   1.000  C
  C899     1.0000 0.03760  0.34070  0.96610  Biso   1.000  C
  O170     1.0000 0.12670  0.37160  0.89500  Biso   1.000  O
  C900     1.0000 0.56510  0.93643  0.24620  Biso   1.000  C
  In21     1.0000 0.42601  0.26892  0.87553  Biso   1.000  In
  O171     1.0000 0.40527  0.25883  0.82746  Biso   1.000  O
  O172     1.0000 0.43597  0.31053  0.83893  Biso   1.000  O
  O173     1.0000 0.47167  0.25893  0.85153  Biso   1.000  O
  O174     1.0000 0.47990  0.29523  0.88563  Biso   1.000  O
  O175     1.0000 0.42832  0.30775  0.91258  Biso   1.000  O
  O176     1.0000 0.38006  0.27392  0.89133  Biso   1.000  O
  O177     1.0000 0.39455  0.21265  0.87523  Biso   1.000  O
  O178     1.0000 0.41937  0.23483  0.92073  Biso   1.000  O
  C901     1.0000 0.41327  0.28173  0.81723  Biso   1.000  C
  C902     1.0000 0.49317  0.28143  0.86973  Biso   1.000  C
  C903     1.0000 0.41297  0.29493  0.79713  Biso   1.000  C
  C904     1.0000 0.52527  0.28933  0.86953  Biso   1.000  C
  C905     1.0000 0.38967  0.27483  0.76423  Biso   1.000  C
  C906     1.0000 0.42277  0.32283  0.77953  Biso   1.000  C
  C907     1.0000 0.54017  0.27273  0.85443  Biso   1.000  C
  C908     1.0000 0.54527  0.31693  0.88953  Biso   1.000  C
  H231     1.0000 0.37667  0.25163  0.76773  Biso   1.000  H
  C909     1.0000 0.38437  0.28433  0.73183  Biso   1.000  C
  C910     1.0000 0.42437  0.34113  0.74913  Biso   1.000  C
  H232     1.0000 0.43537  0.34013  0.79443  Biso   1.000  H
  C911     1.0000 0.57617  0.28633  0.85963  Biso   1.000  C
  C912     1.0000 0.58087  0.32973  0.89373  Biso   1.000  C
  H233     1.0000 0.36897  0.26823  0.71743  Biso   1.000  H
  C913     1.0000 0.40297  0.31793  0.72293  Biso   1.000  C
  H234     1.0000 0.43727  0.36453  0.74683  Biso   1.000  H
  H235     1.0000 0.58657  0.27583  0.84913  Biso   1.000  H
  C914     1.0000 0.59497  0.31303  0.87843  Biso   1.000  C
  H236     1.0000 0.59397  0.34883  0.90653  Biso   1.000  H
  C915     1.0000 0.39837  0.32503  0.68743  Biso   1.000  C
  C916     1.0000 0.63327  0.32163  0.87843  Biso   1.000  C
  C917     1.0000 0.42547  0.34853  0.66993  Biso   1.000  C
  C918     1.0000 0.36607  0.31023  0.67163  Biso   1.000  C
  C919     1.0000 0.65497  0.35613  0.87863  Biso   1.000  C
  H237     1.0000 0.44667  0.35833  0.67973  Biso   1.000  H
  C920     1.0000 0.42337  0.35853  0.63833  Biso   1.000  C
  C921     1.0000 0.36307  0.32013  0.63983  Biso   1.000  C
  H238     1.0000 0.34697  0.29393  0.68263  Biso   1.000  H
  H239     1.0000 0.64707  0.37123  0.87903  Biso   1.000  H
  C922     1.0000 0.39177  0.34373  0.62423  Biso   1.000  C
  C923     1.0000 0.45227  0.38279  0.61973  Biso   1.000  C
  C924     1.0000 0.32877  0.30523  0.62453  Biso   1.000  C
  H240     1.0000 0.38987  0.35003  0.60303  Biso   1.000  H
  C925     1.0000 0.48457  0.38994  0.62885  Biso   1.000  C
  C926     1.0000 0.44821  0.40093  0.59443  Biso   1.000  C
  C927     1.0000 0.32167  0.32683  0.60483  Biso   1.000  C
  C928     1.0000 0.30347  0.27313  0.62903  Biso   1.000  C
  H241     1.0000 0.48727  0.37783  0.64573  Biso   1.000  H
  C929     1.0000 0.51278  0.41523  0.61273  Biso   1.000  C
  C930     1.0000 0.47637  0.42623  0.57833  Biso   1.000  C
  H242     1.0000 0.33827  0.34943  0.60203  Biso   1.000  H
  C931     1.0000 0.29057  0.31483  0.58983  Biso   1.000  C
  C932     1.0000 0.27307  0.26183  0.61183  Biso   1.000  C
  H243     1.0000 0.30607  0.25873  0.64333  Biso   1.000  H
  H244     1.0000 0.53437  0.42003  0.61883  Biso   1.000  H
  C933     1.0000 0.50870  0.43342  0.58753  Biso   1.000  C
  H245     1.0000 0.28617  0.32933  0.57743  Biso   1.000  H
  C934     1.0000 0.26617  0.28123  0.59323  Biso   1.000  C
  H246     1.0000 0.25667  0.23903  0.61363  Biso   1.000  H
  C935     1.0000 0.54287  0.46203  0.56993  Biso   1.000  C
  C936     1.0000 0.23337  0.26873  0.57603  Biso   1.000  C
  O179     1.0000 0.57047  0.47093  0.58238  Biso   1.000  O
  O180     1.0000 0.53682  0.47118  0.54427  Biso   1.000  O
  In22     1.0000 0.59750  0.50453  0.53879  Biso   1.000  In
  O181     1.0000 0.63207  0.53716  0.49692  Biso   1.000  O
  O182     1.0000 0.57619  0.50913  0.48974  Biso   1.000  O
  O183     1.0000 0.63632  0.48834  0.55157  Biso   1.000  O
  O184     1.0000 0.59425  0.45760  0.51641  Biso   1.000  O
  O185     1.0000 0.62944  0.54970  0.57306  Biso   1.000  O
  O186     1.0000 0.58917  0.54863  0.54573  Biso   1.000  O
  C937     1.0000 0.60467  0.52803  0.48013  Biso   1.000  C
  C938     1.0000 0.62007  0.46373  0.53453  Biso   1.000  C
  C939     1.0000 0.61197  0.54353  0.44482  Biso   1.000  C
  C940     1.0000 0.63057  0.43663  0.53033  Biso   1.000  C
  C941     1.0000 0.64057  0.57353  0.43553  Biso   1.000  C
  C942     1.0000 0.58656  0.52527  0.42203  Biso   1.000  C
  C943     1.0000 0.61487  0.41113  0.50713  Biso   1.000  C
  C944     1.0000 0.65687  0.43861  0.54933  Biso   1.000  C
  C945     1.0000 0.64375  0.58536  0.40353  Biso   1.000  C
  C946     1.0000 0.58971  0.53703  0.39004  Biso   1.000  C
  C947     1.0000 0.62547  0.38753  0.50283  Biso   1.000  C
  C948     1.0000 0.66737  0.41503  0.54513  Biso   1.000  C
  C949     1.0000 0.61827  0.56713  0.38079  Biso   1.000  C
  C950     1.0000 0.65167  0.38953  0.52183  Biso   1.000  C
  C951     1.0000 0.61977  0.58163  0.34783  Biso   1.000  C
  C952     1.0000 0.65817  0.36083  0.52223  Biso   1.000  C
  C953     1.0000 0.65007  0.60583  0.33263  Biso   1.000  C
  C954     1.0000 0.59017  0.57143  0.33053  Biso   1.000  C
  C955     1.0000 0.69297  0.36653  0.51873  Biso   1.000  C
  H247     1.0000 0.67067  0.61393  0.34343  Biso   1.000  H
  C956     1.0000 0.64897  0.61763  0.30123  Biso   1.000  C
  C957     1.0000 0.58847  0.58173  0.30023  Biso   1.000  C
  H248     1.0000 0.56997  0.55623  0.34073  Biso   1.000  H
  C958     1.0000 0.61857  0.60593  0.28433  Biso   1.000  C
  C959     1.0000 0.68197  0.64313  0.28494  Biso   1.000  C
  C960     1.0000 0.55567  0.56963  0.28183  Biso   1.000  C
  H249     1.0000 0.61807  0.61373  0.26343  Biso   1.000  H
  C961     1.0000 0.70947  0.63789  0.28353  Biso   1.000  C
  C962     1.0000 0.68440  0.67223  0.27133  Biso   1.000  C
  C963     1.0000 0.55187  0.56363  0.24823  Biso   1.000  C
  C964     1.0000 0.52567  0.56223  0.30003  Biso   1.000  C
  C965     1.0000 0.73937  0.66173  0.26853  Biso   1.000  C
  C966     1.0000 0.71427  0.69607  0.25633  Biso   1.000  C
  H250     1.0000 0.57027  0.56833  0.23483  Biso   1.000  H
  C967     1.0000 0.51877  0.55003  0.23503  Biso   1.000  C
  C968     1.0000 0.49577  0.54973  0.28523  Biso   1.000  C
  H251     1.0000 0.52727  0.56623  0.32253  Biso   1.000  H
  C969     1.0000 0.74179  0.69083  0.25492  Biso   1.000  C
  H252     1.0000 0.51577  0.54663  0.21253  Biso   1.000  H
  C970     1.0000 0.49097  0.54163  0.25453  Biso   1.000  C
  H253     1.0000 0.47737  0.54663  0.29773  Biso   1.000  H
  C971     1.0000 0.77507  0.71673  0.23673  Biso   1.000  C
  C972     1.0000 0.45777  0.52503  0.23763  Biso   1.000  C
  C973     1.0000 0.47677  0.42923  0.58203  Biso   1.000  C
  C974     1.0000 0.61937  0.37933  0.51823  Biso   1.000  C
  C975     1.0000 0.60917  0.40323  0.52093  Biso   1.000  C
  C976     1.0000 0.64537  0.38463  0.53963  Biso   1.000  C
  C977     1.0000 0.66307  0.41303  0.55943  Biso   1.000  C
  C978     1.0000 0.65637  0.35923  0.54343  Biso   1.000  C
  C979     1.0000 0.69197  0.36793  0.53843  Biso   1.000  C
  C980     1.0000 0.48857  0.27513  0.87533  Biso   1.000  C
  C981     1.0000 0.52847  0.30843  0.87733  Biso   1.000  C
  C982     1.0000 0.58927  0.55793  0.39913  Biso   1.000  C
  C983     1.0000 0.58437  0.54313  0.43003  Biso   1.000  C
  C984     1.0000 0.64677  0.57163  0.39763  Biso   1.000  C
  C985     1.0000 0.64377  0.56103  0.43013  Biso   1.000  C
  C986     1.0000 0.69477  0.63573  0.25713  Biso   1.000  C
  C987     1.0000 0.72307  0.65943  0.23993  Biso   1.000  C
  C988     1.0000 0.73097  0.70043  0.28273  Biso   1.000  C
  C989     1.0000 0.70427  0.67403  0.29943  Biso   1.000  C
  O187     1.0000 0.79337  0.70493  0.22833  Biso   1.000  O
  C990     1.0000 0.23177  0.26976  0.57953  Biso   1.000  C
  In23     1.0000 0.09268  0.60226  0.20887  Biso   1.000  In
  O188     1.0000 0.07193  0.59217  0.16080  Biso   1.000  O
  O189     1.0000 0.10263  0.64387  0.17227  Biso   1.000  O
  O190     1.0000 0.13833  0.59227  0.18487  Biso   1.000  O
  O191     1.0000 0.14656  0.62857  0.21897  Biso   1.000  O
  O192     1.0000 0.09498  0.64109  0.24592  Biso   1.000  O
  O193     1.0000 0.04672  0.60726  0.22467  Biso   1.000  O
  O194     1.0000 0.06121  0.54599  0.20857  Biso   1.000  O
  O195     1.0000 0.08603  0.56817  0.25407  Biso   1.000  O
  C991     1.0000 0.07993  0.61507  0.15057  Biso   1.000  C
  C992     1.0000 0.15983  0.61477  0.20307  Biso   1.000  C
  C993     1.0000 0.07963  0.62827  0.13047  Biso   1.000  C
  C994     1.0000 0.19193  0.62267  0.20287  Biso   1.000  C
  C995     1.0000 0.05633  0.60817  0.09757  Biso   1.000  C
  C996     1.0000 0.08943  0.65617  0.11287  Biso   1.000  C
  C997     1.0000 0.20683  0.60607  0.18777  Biso   1.000  C
  C998     1.0000 0.21193  0.65027  0.22287  Biso   1.000  C
  H254     1.0000 0.04333  0.58497  0.10107  Biso   1.000  H
  C999     1.0000 0.05103  0.61767  0.06517  Biso   1.000  C
  C1000    1.0000 0.09103  0.67447  0.08247  Biso   1.000  C
  H255     1.0000 0.10203  0.67347  0.12777  Biso   1.000  H
  C1001    1.0000 0.24283  0.61967  0.19297  Biso   1.000  C
  C1002    1.0000 0.24753  0.66307  0.22707  Biso   1.000  C
  H256     1.0000 0.03563  0.60157  0.05077  Biso   1.000  H
  C1003    1.0000 0.06963  0.65127  0.05627  Biso   1.000  C
  H257     1.0000 0.10393  0.69787  0.08017  Biso   1.000  H
  H258     1.0000 0.25323  0.60917  0.18247  Biso   1.000  H
  C1004    1.0000 0.26163  0.64637  0.21177  Biso   1.000  C
  H259     1.0000 0.26063  0.68217  0.23987  Biso   1.000  H
  C1005    1.0000 0.06503  0.65837  0.02077  Biso   1.000  C
  C1006    1.0000 0.29993  0.65497  0.21177  Biso   1.000  C
  C1007    1.0000 0.09213  0.68187  0.00327  Biso   1.000  C
  C1008    1.0000 0.03273  0.64357  0.00497  Biso   1.000  C
  C1009    1.0000 0.32163  0.68947  0.21197  Biso   1.000  C
  H260     1.0000 0.11333  0.69167  0.01307  Biso   1.000  H
  C1010    1.0000 0.09003  0.69187  0.97167  Biso   1.000  C
  C1011    1.0000 0.02973  0.65347  0.97317  Biso   1.000  C
  H261     1.0000 0.01363  0.62727  0.01597  Biso   1.000  H
  H262     1.0000 0.31373  0.70457  0.21237  Biso   1.000  H
  C1012    1.0000 0.05843  0.67707  0.95757  Biso   1.000  C
  C1013    1.0000 0.11893  0.71613  0.95307  Biso   1.000  C
  C1014    1.0000 0.99543  0.63857  0.95787  Biso   1.000  C
  H263     1.0000 0.05653  0.68337  0.93637  Biso   1.000  H
  C1015    1.0000 0.15123  0.72328  0.96219  Biso   1.000  C
  C1016    1.0000 0.11487  0.73427  0.92777  Biso   1.000  C
  C1017    1.0000 0.98833  0.66017  0.93817  Biso   1.000  C
  C1018    1.0000 0.97013  0.60647  0.96237  Biso   1.000  C
  H264     1.0000 0.15393  0.71117  0.97907  Biso   1.000  H
  C1019    1.0000 0.17944  0.74857  0.94607  Biso   1.000  C
  C1020    1.0000 0.14303  0.75957  0.91167  Biso   1.000  C
  H265     1.0000 0.00493  0.68277  0.93537  Biso   1.000  H
  C1021    1.0000 0.95723  0.64817  0.92317  Biso   1.000  C
  C1022    1.0000 0.93973  0.59517  0.94517  Biso   1.000  C
  H266     1.0000 0.97273  0.59207  0.97667  Biso   1.000  H
  H267     1.0000 0.20103  0.75337  0.95217  Biso   1.000  H
  C1023    1.0000 0.17536  0.76676  0.92087  Biso   1.000  C
  H268     1.0000 0.95283  0.66267  0.91077  Biso   1.000  H
  C1024    1.0000 0.93283  0.61457  0.92657  Biso   1.000  C
  H269     1.0000 0.92333  0.57237  0.94697  Biso   1.000  H
  C1025    1.0000 0.20953  0.79537  0.90327  Biso   1.000  C
  C1026    1.0000 0.90003  0.60207  0.90937  Biso   1.000  C
  O196     1.0000 0.23713  0.80427  0.91572  Biso   1.000  O
  O197     1.0000 0.20348  0.80452  0.87761  Biso   1.000  O
  In24     1.0000 0.26417  0.83786  0.87212  Biso   1.000  In
  O198     1.0000 0.29873  0.87050  0.83026  Biso   1.000  O
  O199     1.0000 0.24285  0.84247  0.82308  Biso   1.000  O
  O200     1.0000 0.30298  0.82168  0.88491  Biso   1.000  O
  O201     1.0000 0.26091  0.79094  0.84975  Biso   1.000  O
  O202     1.0000 0.29610  0.88304  0.90640  Biso   1.000  O
  O203     1.0000 0.25583  0.88197  0.87907  Biso   1.000  O
  C1027    1.0000 0.27133  0.86137  0.81347  Biso   1.000  C
  C1028    1.0000 0.28673  0.79707  0.86787  Biso   1.000  C
  C1029    1.0000 0.27863  0.87687  0.77816  Biso   1.000  C
  C1030    1.0000 0.29723  0.76997  0.86367  Biso   1.000  C
  C1031    1.0000 0.30723  0.90687  0.76887  Biso   1.000  C
  C1032    1.0000 0.25322  0.85861  0.75537  Biso   1.000  C
  C1033    1.0000 0.28153  0.74447  0.84047  Biso   1.000  C
  C1034    1.0000 0.32353  0.77195  0.88267  Biso   1.000  C
  C1035    1.0000 0.31041  0.91870  0.73687  Biso   1.000  C
  C1036    1.0000 0.25637  0.87037  0.72338  Biso   1.000  C
  C1037    1.0000 0.29213  0.72087  0.83617  Biso   1.000  C
  C1038    1.0000 0.33403  0.74837  0.87847  Biso   1.000  C
  C1039    1.0000 0.28493  0.90047  0.71413  Biso   1.000  C
  C1040    1.0000 0.31833  0.72287  0.85517  Biso   1.000  C
  C1041    1.0000 0.28643  0.91497  0.68117  Biso   1.000  C
  C1042    1.0000 0.32483  0.69417  0.85557  Biso   1.000  C
  C1043    1.0000 0.31673  0.93917  0.66597  Biso   1.000  C
  C1044    1.0000 0.25683  0.90477  0.66387  Biso   1.000  C
  C1045    1.0000 0.35963  0.69987  0.85207  Biso   1.000  C
  H270     1.0000 0.33733  0.94727  0.67677  Biso   1.000  H
  C1046    1.0000 0.31563  0.95097  0.63457  Biso   1.000  C
  C1047    1.0000 0.25513  0.91507  0.63357  Biso   1.000  C
  H271     1.0000 0.23663  0.88957  0.67407  Biso   1.000  H
  C1048    1.0000 0.28523  0.93927  0.61767  Biso   1.000  C
  C1049    1.0000 0.34863  0.97647  0.61828  Biso   1.000  C
  C1050    1.0000 0.22233  0.90297  0.61517  Biso   1.000  C
  H272     1.0000 0.28473  0.94707  0.59677  Biso   1.000  H
  C1051    1.0000 0.37613  0.97123  0.61687  Biso   1.000  C
  C1052    1.0000 0.35106  0.00557  0.60467  Biso   1.000  C
  C1053    1.0000 0.21853  0.89697  0.58157  Biso   1.000  C
  C1054    1.0000 0.19233  0.89557  0.63337  Biso   1.000  C
  C1055    1.0000 0.40603  0.99507  0.60187  Biso   1.000  C
  C1056    1.0000 0.38093  0.02941  0.58967  Biso   1.000  C
  H273     1.0000 0.23693  0.90167  0.56817  Biso   1.000  H
  C1057    1.0000 0.18543  0.88337  0.56837  Biso   1.000  C
  C1058    1.0000 0.16243  0.88307  0.61857  Biso   1.000  C
  H274     1.0000 0.19393  0.89957  0.65587  Biso   1.000  H
  C1059    1.0000 0.40845  0.02417  0.58826  Biso   1.000  C
  H275     1.0000 0.18243  0.87997  0.54587  Biso   1.000  H
  C1060    1.0000 0.15763  0.87497  0.58787  Biso   1.000  C
  H276     1.0000 0.14403  0.87997  0.63107  Biso   1.000  H
  C1061    1.0000 0.44173  0.05007  0.57007  Biso   1.000  C
  C1062    1.0000 0.12443  0.85837  0.57097  Biso   1.000  C
  C1063    1.0000 0.14343  0.76257  0.91537  Biso   1.000  C
  C1064    1.0000 0.28603  0.71267  0.85157  Biso   1.000  C
  C1065    1.0000 0.27583  0.73657  0.85427  Biso   1.000  C
  C1066    1.0000 0.31203  0.71797  0.87297  Biso   1.000  C
  C1067    1.0000 0.32973  0.74637  0.89277  Biso   1.000  C
  C1068    1.0000 0.32303  0.69257  0.87677  Biso   1.000  C
  C1069    1.0000 0.35863  0.70127  0.87177  Biso   1.000  C
  C1070    1.0000 0.15523  0.60847  0.20867  Biso   1.000  C
  C1071    1.0000 0.19513  0.64177  0.21067  Biso   1.000  C
  C1072    1.0000 0.25593  0.89127  0.73247  Biso   1.000  C
  C1073    1.0000 0.25103  0.87647  0.76337  Biso   1.000  C
  C1074    1.0000 0.31343  0.90497  0.73097  Biso   1.000  C
  C1075    1.0000 0.31043  0.89437  0.76347  Biso   1.000  C
  C1076    1.0000 0.36143  0.96907  0.59047  Biso   1.000  C
  C1077    1.0000 0.38973  0.99277  0.57327  Biso   1.000  C
  C1078    1.0000 0.39763  0.03377  0.61607  Biso   1.000  C
  C1079    1.0000 0.37093  0.00737  0.63277  Biso   1.000  C
  O204     1.0000 0.46003  0.03827  0.56167  Biso   1.000  O
  C1080    1.0000 0.89843  0.60310  0.91287  Biso   1.000  C
  In25     1.0000 0.06441  0.82375  0.54220  Biso   1.000  In
  O205     1.0000 0.07450  0.81310  0.49413  Biso   1.000  O
  O206     1.0000 0.02280  0.79210  0.50560  Biso   1.000  O
  O207     1.0000 0.07440  0.87940  0.51820  Biso   1.000  O
  O208     1.0000 0.03810  0.85133  0.55230  Biso   1.000  O
  O209     1.0000 0.02558  0.78723  0.57925  Biso   1.000  O
  O210     1.0000 0.05941  0.77280  0.55800  Biso   1.000  O
  O211     1.0000 0.12068  0.84856  0.54190  Biso   1.000  O
  O212     1.0000 0.09850  0.85120  0.58740  Biso   1.000  O
  C1081    1.0000 0.05160  0.79820  0.48390  Biso   1.000  C
  C1082    1.0000 0.05190  0.87840  0.53640  Biso   1.000  C
  C1083    1.0000 0.03840  0.78470  0.46380  Biso   1.000  C
  C1084    1.0000 0.04400  0.90260  0.53620  Biso   1.000  C
  C1085    1.0000 0.05850  0.78150  0.43090  Biso   1.000  C
  C1086    1.0000 0.01050  0.76660  0.44620  Biso   1.000  C
  C1087    1.0000 0.06060  0.93410  0.52110  Biso   1.000  C
  C1088    1.0000 0.01640  0.89500  0.55620  Biso   1.000  C
  H277     1.0000 0.08170  0.79170  0.43440  Biso   1.000  H
  C1089    1.0000 0.04900  0.76670  0.39850  Biso   1.000  C
  C1090    1.0000 0.99220  0.74990  0.41580  Biso   1.000  C
  H278     1.0000 0.99320  0.76190  0.46110  Biso   1.000  H
  C1091    1.0000 0.04700  0.95650  0.52630  Biso   1.000  C
  C1092    1.0000 0.00360  0.91780  0.56040  Biso   1.000  C
  H279     1.0000 0.06510  0.76740  0.38410  Biso   1.000  H
  C1093    1.0000 0.01540  0.75170  0.38960  Biso   1.000  C
  H280     1.0000 0.96880  0.73940  0.41350  Biso   1.000  H
  H281     1.0000 0.05750  0.97740  0.51580  Biso   1.000  H
  C1094    1.0000 0.02030  0.94860  0.54510  Biso   1.000  C
  H282     1.0000 0.98450  0.91180  0.57320  Biso   1.000  H
  C1095    1.0000 0.00830  0.74000  0.35410  Biso   1.000  C
  C1096    1.0000 0.01170  0.97830  0.54510  Biso   1.000  C
  C1097    1.0000 0.98480  0.74360  0.33660  Biso   1.000  C
  C1098    1.0000 0.02310  0.72250  0.33830  Biso   1.000  C
  C1099    1.0000 0.97720  0.96550  0.54530  Biso   1.000  C
  H283     1.0000 0.97500  0.75500  0.34640  Biso   1.000  H
  C1100    1.0000 0.97480  0.73150  0.30500  Biso   1.000  C
  C1101    1.0000 0.01320  0.70960  0.30650  Biso   1.000  C
  H284     1.0000 0.03940  0.71970  0.34930  Biso   1.000  H
  H285     1.0000 0.96210  0.94250  0.54570  Biso   1.000  H
  C1102    1.0000 0.98960  0.71470  0.29090  Biso   1.000  C
  C1103    1.0000 0.95054  0.73614  0.28640  Biso   1.000  C
  C1104    1.0000 0.02810  0.69020  0.29120  Biso   1.000  C
  H286     1.0000 0.98330  0.70650  0.26970  Biso   1.000  H
  C1105    1.0000 0.94339  0.76129  0.29552  Biso   1.000  C
  C1106    1.0000 0.93240  0.71394  0.26110  Biso   1.000  C
  C1107    1.0000 0.00650  0.66150  0.27150  Biso   1.000  C
  C1108    1.0000 0.06020  0.69700  0.29570  Biso   1.000  C
  H287     1.0000 0.95550  0.77610  0.31240  Biso   1.000  H
  C1109    1.0000 0.91810  0.76421  0.27940  Biso   1.000  C
  C1110    1.0000 0.90710  0.71680  0.24500  Biso   1.000  C
  H288     1.0000 0.98390  0.65550  0.26870  Biso   1.000  H
  C1111    1.0000 0.01850  0.64240  0.25650  Biso   1.000  C
  C1112    1.0000 0.07150  0.67790  0.27850  Biso   1.000  C
  H289     1.0000 0.07460  0.71400  0.31000  Biso   1.000  H
  H290     1.0000 0.91330  0.78100  0.28550  Biso   1.000  H
  C1113    1.0000 0.89991  0.74194  0.25420  Biso   1.000  C
  H291     1.0000 0.00400  0.62350  0.24410  Biso   1.000  H
  C1114    1.0000 0.05210  0.65160  0.25990  Biso   1.000  C
  H292     1.0000 0.09430  0.68430  0.28030  Biso   1.000  H
  C1115    1.0000 0.87130  0.74750  0.23660  Biso   1.000  C
  C1116    1.0000 0.06460  0.63130  0.24270  Biso   1.000  C
  O213     1.0000 0.86240  0.76620  0.24905  Biso   1.000  O
  O214     1.0000 0.86215  0.73230  0.21094  Biso   1.000  O
  In26     1.0000 0.82880  0.75964  0.20545  Biso   1.000  In
  O215     1.0000 0.79617  0.76157  0.16359  Biso   1.000  O
  O216     1.0000 0.82420  0.73372  0.15641  Biso   1.000  O
  O217     1.0000 0.84499  0.81464  0.21824  Biso   1.000  O
  O218     1.0000 0.87573  0.80331  0.18308  Biso   1.000  O
  O219     1.0000 0.78363  0.74640  0.23973  Biso   1.000  O
  O220     1.0000 0.78470  0.70720  0.21240  Biso   1.000  O
  C1117    1.0000 0.80530  0.74330  0.14680  Biso   1.000  C
  C1118    1.0000 0.86960  0.82300  0.20120  Biso   1.000  C
  C1119    1.0000 0.78980  0.73510  0.11149  Biso   1.000  C
  C1120    1.0000 0.89670  0.86060  0.19700  Biso   1.000  C
  C1121    1.0000 0.75980  0.73370  0.10220  Biso   1.000  C
  C1122    1.0000 0.80806  0.72795  0.08870  Biso   1.000  C
  C1123    1.0000 0.92220  0.87040  0.17380  Biso   1.000  C
  C1124    1.0000 0.89472  0.88492  0.21600  Biso   1.000  C
  C1125    1.0000 0.74797  0.72505  0.07020  Biso   1.000  C
  C1126    1.0000 0.79630  0.71934  0.05671  Biso   1.000  C
  C1127    1.0000 0.94580  0.90460  0.16950  Biso   1.000  C
  C1128    1.0000 0.91830  0.91900  0.21180  Biso   1.000  C
  C1129    1.0000 0.76620  0.71780  0.04746  Biso   1.000  C
  C1130    1.0000 0.94380  0.92880  0.18850  Biso   1.000  C
  C1131    1.0000 0.75170  0.70480  0.01450  Biso   1.000  C
  C1132    1.0000 0.97250  0.96400  0.18890  Biso   1.000  C
  C1133    1.0000 0.72750  0.71090  0.99930  Biso   1.000  C
  C1134    1.0000 0.76190  0.68540  0.99720  Biso   1.000  C
  C1135    1.0000 0.96680  0.99310  0.18540  Biso   1.000  C
  H293     1.0000 0.71940  0.72340  0.01010  Biso   1.000  H
  C1136    1.0000 0.71570  0.69800  0.96790  Biso   1.000  C
  C1137    1.0000 0.75160  0.67340  0.96690  Biso   1.000  C
  H294     1.0000 0.77710  0.68040  0.00740  Biso   1.000  H
  C1138    1.0000 0.72740  0.67930  0.95100  Biso   1.000  C
  C1139    1.0000 0.69020  0.70550  0.95161  Biso   1.000  C
  C1140    1.0000 0.76370  0.65270  0.94850  Biso   1.000  C
  H295     1.0000 0.71960  0.67100  0.93010  Biso   1.000  H
  C1141    1.0000 0.69544  0.73824  0.95020  Biso   1.000  C
  C1142    1.0000 0.66110  0.67883  0.93800  Biso   1.000  C
  C1143    1.0000 0.76970  0.65490  0.91490  Biso   1.000  C
  C1144    1.0000 0.77110  0.63010  0.96670  Biso   1.000  C
  C1145    1.0000 0.67160  0.74430  0.93520  Biso   1.000  C
  C1146    1.0000 0.63726  0.68486  0.92300  Biso   1.000  C
  H296     1.0000 0.76500  0.66860  0.90150  Biso   1.000  H
  C1147    1.0000 0.78330  0.63540  0.90170  Biso   1.000  C
  C1148    1.0000 0.78360  0.61270  0.95190  Biso   1.000  C
  H297     1.0000 0.76710  0.62770  0.98920  Biso   1.000  H
  C1149    1.0000 0.64250  0.71762  0.92159  Biso   1.000  C
  H298     1.0000 0.78670  0.63580  0.87920  Biso   1.000  H
  C1150    1.0000 0.79170  0.61600  0.92120  Biso   1.000  C
  H299     1.0000 0.78670  0.59740  0.96440  Biso   1.000  H
  C1151    1.0000 0.61660  0.72500  0.90340  Biso   1.000  C
  C1152    1.0000 0.80830  0.59940  0.90430  Biso   1.000  C
  C1153    1.0000 0.90410  0.71420  0.24870  Biso   1.000  C
  C1154    1.0000 0.95400  0.90670  0.18490  Biso   1.000  C
  C1155    1.0000 0.93010  0.87260  0.18760  Biso   1.000  C
  C1156    1.0000 0.94870  0.92740  0.20630  Biso   1.000  C
  C1157    1.0000 0.92030  0.91670  0.22610  Biso   1.000  C
  C1158    1.0000 0.97410  0.96380  0.21010  Biso   1.000  C
  C1159    1.0000 0.96540  0.99070  0.20510  Biso   1.000  C
  C1160    1.0000 0.05820  0.88010  0.54200  Biso   1.000  C
  C1161    1.0000 0.02490  0.88670  0.54400  Biso   1.000  C
  C1162    1.0000 0.77540  0.69800  0.06580  Biso   1.000  C
  C1163    1.0000 0.79020  0.70790  0.09670  Biso   1.000  C
  C1164    1.0000 0.76170  0.74180  0.06430  Biso   1.000  C
  C1165    1.0000 0.77230  0.74940  0.09680  Biso   1.000  C
  C1166    1.0000 0.69760  0.72570  0.92380  Biso   1.000  C
  C1167    1.0000 0.67390  0.73030  0.90660  Biso   1.000  C
  C1168    1.0000 0.63290  0.69720  0.94940  Biso   1.000  C
  C1169    1.0000 0.65930  0.69690  0.96610  Biso   1.000  C
  O221     1.0000 0.62840  0.75510  0.89500  Biso   1.000  O
  C1170    1.0000 0.06357  0.62867  0.24620  Biso   1.000  C
  In27     1.0000 0.73108  0.15709  0.87553  Biso   1.000  In
  O222     1.0000 0.74117  0.14643  0.82746  Biso   1.000  O
  O223     1.0000 0.68947  0.12543  0.83893  Biso   1.000  O
  O224     1.0000 0.74107  0.21273  0.85153  Biso   1.000  O
  O225     1.0000 0.70477  0.18466  0.88563  Biso   1.000  O
  O226     1.0000 0.69225  0.12056  0.91258  Biso   1.000  O
  O227     1.0000 0.72608  0.10613  0.89133  Biso   1.000  O
  O228     1.0000 0.78735  0.18189  0.87523  Biso   1.000  O
  O229     1.0000 0.76517  0.18453  0.92073  Biso   1.000  O
  C1171    1.0000 0.71827  0.13153  0.81723  Biso   1.000  C
  C1172    1.0000 0.71857  0.21173  0.86973  Biso   1.000  C
  C1173    1.0000 0.70507  0.11803  0.79713  Biso   1.000  C
  C1174    1.0000 0.71067  0.23593  0.86953  Biso   1.000  C
  C1175    1.0000 0.72517  0.11483  0.76423  Biso   1.000  C
  C1176    1.0000 0.67717  0.09993  0.77953  Biso   1.000  C
  C1177    1.0000 0.72727  0.26743  0.85443  Biso   1.000  C
  C1178    1.0000 0.68307  0.22833  0.88953  Biso   1.000  C
  H300     1.0000 0.74837  0.12503  0.76773  Biso   1.000  H
  C1179    1.0000 0.71567  0.10003  0.73183  Biso   1.000  C
  C1180    1.0000 0.65887  0.08323  0.74913  Biso   1.000  C
  H301     1.0000 0.65987  0.09523  0.79443  Biso   1.000  H
  C1181    1.0000 0.71367  0.28983  0.85963  Biso   1.000  C
  C1182    1.0000 0.67027  0.25113  0.89373  Biso   1.000  C
  H302     1.0000 0.73177  0.10073  0.71743  Biso   1.000  H
  C1183    1.0000 0.68207  0.08503  0.72293  Biso   1.000  C
  H303     1.0000 0.63547  0.07273  0.74683  Biso   1.000  H
  H304     1.0000 0.72417  0.31073  0.84913  Biso   1.000  H
  C1184    1.0000 0.68697  0.28193  0.87843  Biso   1.000  C
  H305     1.0000 0.65117  0.24513  0.90653  Biso   1.000  H
  C1185    1.0000 0.67497  0.07333  0.68743  Biso   1.000  C
  C1186    1.0000 0.67837  0.31163  0.87843  Biso   1.000  C
  C1187    1.0000 0.65147  0.07693  0.66993  Biso   1.000  C
  C1188    1.0000 0.68977  0.05583  0.67163  Biso   1.000  C
  C1189    1.0000 0.64387  0.29883  0.87863  Biso   1.000  C
  H306     1.0000 0.64167  0.08833  0.67973  Biso   1.000  H
  C1190    1.0000 0.64147  0.06483  0.63833  Biso   1.000  C
  C1191    1.0000 0.67987  0.04293  0.63983  Biso   1.000  C
  H307     1.0000 0.70607  0.05303  0.68263  Biso   1.000  H
  H308     1.0000 0.62877  0.27583  0.87903  Biso   1.000  H
  C1192    1.0000 0.65627  0.04803  0.62423  Biso   1.000  C
  C1193    1.0000 0.61721  0.06947  0.61973  Biso   1.000  C
  C1194    1.0000 0.69477  0.02353  0.62453  Biso   1.000  C
  H309     1.0000 0.64997  0.03983  0.60303  Biso   1.000  H
  C1195    1.0000 0.61006  0.09462  0.62885  Biso   1.000  C
  C1196    1.0000 0.59907  0.04727  0.59443  Biso   1.000  C
  C1197    1.0000 0.67317  0.99483  0.60483  Biso   1.000  C
  C1198    1.0000 0.72687  0.03033  0.62903  Biso   1.000  C
  H310     1.0000 0.62217  0.10943  0.64573  Biso   1.000  H
  C1199    1.0000 0.58477  0.09754  0.61273  Biso   1.000  C
  C1200    1.0000 0.57377  0.05013  0.57833  Biso   1.000  C
  H311     1.0000 0.65057  0.98883  0.60203  Biso   1.000  H
  C1201    1.0000 0.68517  0.97573  0.58983  Biso   1.000  C
  C1202    1.0000 0.73817  0.01123  0.61183  Biso   1.000  C
  H312     1.0000 0.74127  0.04733  0.64333  Biso   1.000  H
  H313     1.0000 0.57997  0.11433  0.61883  Biso   1.000  H
  C1203    1.0000 0.56658  0.07527  0.58753  Biso   1.000  C
  H314     1.0000 0.67067  0.95683  0.57743  Biso   1.000  H
  C1204    1.0000 0.71877  0.98493  0.59323  Biso   1.000  C
  H315     1.0000 0.76097  0.01763  0.61363  Biso   1.000  H
  C1205    1.0000 0.53797  0.08083  0.56993  Biso   1.000  C
  C1206    1.0000 0.73127  0.96463  0.57603  Biso   1.000  C
  O230     1.0000 0.52907  0.09953  0.58238  Biso   1.000  O
  O231     1.0000 0.52882  0.06563  0.54427  Biso   1.000  O
  In28     1.0000 0.49547  0.09297  0.53879  Biso   1.000  In
  O232     1.0000 0.46284  0.09490  0.49692  Biso   1.000  O
  O233     1.0000 0.49087  0.06705  0.48974  Biso   1.000  O
  O234     1.0000 0.51166  0.14797  0.55157  Biso   1.000  O
  O235     1.0000 0.54240  0.13664  0.51641  Biso   1.000  O
  O236     1.0000 0.45030  0.07973  0.57306  Biso   1.000  O
  O237     1.0000 0.45137  0.04053  0.54573  Biso   1.000  O
  C1207    1.0000 0.47197  0.07663  0.48013  Biso   1.000  C
  C1208    1.0000 0.53627  0.15633  0.53453  Biso   1.000  C
  C1209    1.0000 0.45647  0.06843  0.44482  Biso   1.000  C
  C1210    1.0000 0.56337  0.19393  0.53033  Biso   1.000  C
  C1211    1.0000 0.42647  0.06703  0.43553  Biso   1.000  C
  C1212    1.0000 0.47473  0.06128  0.42203  Biso   1.000  C
  C1213    1.0000 0.58887  0.20373  0.50713  Biso   1.000  C
  C1214    1.0000 0.56139  0.21825  0.54933  Biso   1.000  C
  C1215    1.0000 0.41464  0.05838  0.40353  Biso   1.000  C
  C1216    1.0000 0.46297  0.05267  0.39004  Biso   1.000  C
  C1217    1.0000 0.61247  0.23793  0.50283  Biso   1.000  C
  C1218    1.0000 0.58497  0.25233  0.54513  Biso   1.000  C
  C1219    1.0000 0.43287  0.05113  0.38079  Biso   1.000  C
  C1220    1.0000 0.61047  0.26213  0.52183  Biso   1.000  C
  C1221    1.0000 0.41837  0.03813  0.34783  Biso   1.000  C
  C1222    1.0000 0.63917  0.29733  0.52223  Biso   1.000  C
  C1223    1.0000 0.39417  0.04423  0.33263  Biso   1.000  C
  C1224    1.0000 0.42857  0.01873  0.33053  Biso   1.000  C
  C1225    1.0000 0.63347  0.32643  0.51873  Biso   1.000  C
  H316     1.0000 0.38607  0.05673  0.34343  Biso   1.000  H
  C1226    1.0000 0.38237  0.03133  0.30123  Biso   1.000  C
  C1227    1.0000 0.41827  0.00673  0.30023  Biso   1.000  C
  H317     1.0000 0.44377  0.01373  0.34073  Biso   1.000  H
  C1228    1.0000 0.39407  0.01263  0.28433  Biso   1.000  C
  C1229    1.0000 0.35687  0.03883  0.28494  Biso   1.000  C
  C1230    1.0000 0.43037  0.98603  0.28183  Biso   1.000  C
  H318     1.0000 0.38627  0.00433  0.26343  Biso   1.000  H
  C1231    1.0000 0.36211  0.07157  0.28353  Biso   1.000  C
  C1232    1.0000 0.32777  0.01216  0.27133  Biso   1.000  C
  C1233    1.0000 0.43637  0.98823  0.24823  Biso   1.000  C
  C1234    1.0000 0.43777  0.96343  0.30003  Biso   1.000  C
  C1235    1.0000 0.33827  0.07763  0.26853  Biso   1.000  C
  C1236    1.0000 0.30393  0.01819  0.25633  Biso   1.000  C
  H319     1.0000 0.43167  0.00193  0.23483  Biso   1.000  H
  C1237    1.0000 0.44997  0.96873  0.23503  Biso   1.000  C
  C1238    1.0000 0.45027  0.94603  0.28523  Biso   1.000  C
  H320     1.0000 0.43377  0.96103  0.32253  Biso   1.000  H
  C1239    1.0000 0.30917  0.05095  0.25492  Biso   1.000  C
  H321     1.0000 0.45337  0.96913  0.21253  Biso   1.000  H
  C1240    1.0000 0.45837  0.94933  0.25453  Biso   1.000  C
  H322     1.0000 0.45337  0.93073  0.29773  Biso   1.000  H
  C1241    1.0000 0.28327  0.05833  0.23673  Biso   1.000  C
  C1242    1.0000 0.47497  0.93273  0.23763  Biso   1.000  C
  C1243    1.0000 0.57077  0.04753  0.58203  Biso   1.000  C
  C1244    1.0000 0.62067  0.24003  0.51823  Biso   1.000  C
  C1245    1.0000 0.59677  0.20593  0.52093  Biso   1.000  C
  C1246    1.0000 0.61537  0.26073  0.53963  Biso   1.000  C
  C1247    1.0000 0.58697  0.25003  0.55943  Biso   1.000  C
  C1248    1.0000 0.64077  0.29713  0.54343  Biso   1.000  C
  C1249    1.0000 0.63207  0.32403  0.53843  Biso   1.000  C
  C1250    1.0000 0.72487  0.21343  0.87533  Biso   1.000  C
  C1251    1.0000 0.69157  0.22003  0.87733  Biso   1.000  C
  C1252    1.0000 0.44207  0.03133  0.39913  Biso   1.000  C
  C1253    1.0000 0.45687  0.04123  0.43003  Biso   1.000  C
  C1254    1.0000 0.42837  0.07513  0.39763  Biso   1.000  C
  C1255    1.0000 0.43897  0.08273  0.43013  Biso   1.000  C
  C1256    1.0000 0.36427  0.05903  0.25713  Biso   1.000  C
  C1257    1.0000 0.34057  0.06363  0.23993  Biso   1.000  C
  C1258    1.0000 0.29957  0.03053  0.28273  Biso   1.000  C
  C1259    1.0000 0.32597  0.03023  0.29943  Biso   1.000  C
  O238     1.0000 0.29507  0.08843  0.22833  Biso   1.000  O
  C1260    1.0000 0.73024  0.96200  0.57953  Biso   1.000  C
  In29     1.0000 0.39774  0.49042  0.20887  Biso   1.000  In
  O239     1.0000 0.40783  0.47977  0.16080  Biso   1.000  O
  O240     1.0000 0.35613  0.45877  0.17227  Biso   1.000  O
  O241     1.0000 0.40773  0.54607  0.18487  Biso   1.000  O
  O242     1.0000 0.37143  0.51800  0.21897  Biso   1.000  O
  O243     1.0000 0.35891  0.45390  0.24592  Biso   1.000  O
  O244     1.0000 0.39274  0.43947  0.22467  Biso   1.000  O
  O245     1.0000 0.45401  0.51523  0.20857  Biso   1.000  O
  O246     1.0000 0.43183  0.51787  0.25407  Biso   1.000  O
  C1261    1.0000 0.38493  0.46487  0.15057  Biso   1.000  C
  C1262    1.0000 0.38523  0.54507  0.20307  Biso   1.000  C
  C1263    1.0000 0.37173  0.45137  0.13047  Biso   1.000  C
  C1264    1.0000 0.37733  0.56927  0.20287  Biso   1.000  C
  C1265    1.0000 0.39183  0.44817  0.09757  Biso   1.000  C
  C1266    1.0000 0.34383  0.43327  0.11287  Biso   1.000  C
  C1267    1.0000 0.39393  0.60077  0.18777  Biso   1.000  C
  C1268    1.0000 0.34973  0.56167  0.22287  Biso   1.000  C
  H323     1.0000 0.41503  0.45837  0.10107  Biso   1.000  H
  C1269    1.0000 0.38233  0.43337  0.06517  Biso   1.000  C
  C1270    1.0000 0.32553  0.41657  0.08247  Biso   1.000  C
  H324     1.0000 0.32653  0.42857  0.12777  Biso   1.000  H
  C1271    1.0000 0.38033  0.62317  0.19297  Biso   1.000  C
  C1272    1.0000 0.33693  0.58447  0.22707  Biso   1.000  C
  H325     1.0000 0.39843  0.43407  0.05077  Biso   1.000  H
  C1273    1.0000 0.34873  0.41837  0.05627  Biso   1.000  C
  H326     1.0000 0.30213  0.40607  0.08017  Biso   1.000  H
  H327     1.0000 0.39083  0.64407  0.18247  Biso   1.000  H
  C1274    1.0000 0.35363  0.61527  0.21177  Biso   1.000  C
  H328     1.0000 0.31783  0.57847  0.23987  Biso   1.000  H
  C1275    1.0000 0.34163  0.40667  0.02077  Biso   1.000  C
  C1276    1.0000 0.34503  0.64497  0.21177  Biso   1.000  C
  C1277    1.0000 0.31813  0.41027  0.00327  Biso   1.000  C
  C1278    1.0000 0.35643  0.38917  0.00497  Biso   1.000  C
  C1279    1.0000 0.31053  0.63217  0.21197  Biso   1.000  C
  H329     1.0000 0.30833  0.42167  0.01307  Biso   1.000  H
  C1280    1.0000 0.30813  0.39817  0.97167  Biso   1.000  C
  C1281    1.0000 0.34653  0.37627  0.97317  Biso   1.000  C
  H330     1.0000 0.37273  0.38637  0.01597  Biso   1.000  H
  H331     1.0000 0.29543  0.60917  0.21237  Biso   1.000  H
  C1282    1.0000 0.32293  0.38137  0.95757  Biso   1.000  C
  C1283    1.0000 0.28387  0.40281  0.95307  Biso   1.000  C
  C1284    1.0000 0.36143  0.35687  0.95787  Biso   1.000  C
  H332     1.0000 0.31663  0.37317  0.93637  Biso   1.000  H
  C1285    1.0000 0.27672  0.42796  0.96219  Biso   1.000  C
  C1286    1.0000 0.26573  0.38061  0.92777  Biso   1.000  C
  C1287    1.0000 0.33983  0.32817  0.93817  Biso   1.000  C
  C1288    1.0000 0.39353  0.36367  0.96237  Biso   1.000  C
  H333     1.0000 0.28883  0.44277  0.97907  Biso   1.000  H
  C1289    1.0000 0.25143  0.43088  0.94607  Biso   1.000  C
  C1290    1.0000 0.24043  0.38347  0.91167  Biso   1.000  C
  H334     1.0000 0.31723  0.32217  0.93537  Biso   1.000  H
  C1291    1.0000 0.35183  0.30907  0.92317  Biso   1.000  C
  C1292    1.0000 0.40483  0.34457  0.94517  Biso   1.000  C
  H335     1.0000 0.40793  0.38067  0.97667  Biso   1.000  H
  H336     1.0000 0.24663  0.44767  0.95217  Biso   1.000  H
  C1293    1.0000 0.23324  0.40861  0.92087  Biso   1.000  C
  H337     1.0000 0.33733  0.29017  0.91077  Biso   1.000  H
  C1294    1.0000 0.38543  0.31827  0.92657  Biso   1.000  C
  H338     1.0000 0.42763  0.35097  0.94697  Biso   1.000  H
  C1295    1.0000 0.20463  0.41417  0.90327  Biso   1.000  C
  C1296    1.0000 0.39793  0.29797  0.90937  Biso   1.000  C
  O247     1.0000 0.19573  0.43287  0.91572  Biso   1.000  O
  O248     1.0000 0.19548  0.39897  0.87761  Biso   1.000  O
  In30     1.0000 0.16214  0.42630  0.87212  Biso   1.000  In
  O249     1.0000 0.12950  0.42824  0.83026  Biso   1.000  O
  O250     1.0000 0.15753  0.40039  0.82308  Biso   1.000  O
  O251     1.0000 0.17832  0.48131  0.88491  Biso   1.000  O
  O252     1.0000 0.20906  0.46998  0.84975  Biso   1.000  O
  O253     1.0000 0.11696  0.41307  0.90640  Biso   1.000  O
  O254     1.0000 0.11803  0.37387  0.87907  Biso   1.000  O
  C1297    1.0000 0.13863  0.40997  0.81347  Biso   1.000  C
  C1298    1.0000 0.20293  0.48967  0.86787  Biso   1.000  C
  C1299    1.0000 0.12313  0.40177  0.77816  Biso   1.000  C
  C1300    1.0000 0.23003  0.52727  0.86367  Biso   1.000  C
  C1301    1.0000 0.09313  0.40037  0.76887  Biso   1.000  C
  C1302    1.0000 0.14139  0.39462  0.75537  Biso   1.000  C
  C1303    1.0000 0.25553  0.53707  0.84047  Biso   1.000  C
  C1304    1.0000 0.22805  0.55159  0.88267  Biso   1.000  C
  C1305    1.0000 0.08130  0.39172  0.73687  Biso   1.000  C
  C1306    1.0000 0.12963  0.38601  0.72338  Biso   1.000  C
  C1307    1.0000 0.27913  0.57127  0.83617  Biso   1.000  C
  C1308    1.0000 0.25163  0.58567  0.87847  Biso   1.000  C
  C1309    1.0000 0.09953  0.38447  0.71413  Biso   1.000  C
  C1310    1.0000 0.27713  0.59547  0.85517  Biso   1.000  C
  C1311    1.0000 0.08503  0.37147  0.68117  Biso   1.000  C
  C1312    1.0000 0.30583  0.63067  0.85557  Biso   1.000  C
  C1313    1.0000 0.06083  0.37757  0.66597  Biso   1.000  C
  C1314    1.0000 0.09523  0.35207  0.66387  Biso   1.000  C
  C1315    1.0000 0.30013  0.65977  0.85207  Biso   1.000  C
  H339     1.0000 0.05273  0.39007  0.67677  Biso   1.000  H
  C1316    1.0000 0.04903  0.36467  0.63457  Biso   1.000  C
  C1317    1.0000 0.08493  0.34007  0.63357  Biso   1.000  C
  H340     1.0000 0.11043  0.34707  0.67407  Biso   1.000  H
  C1318    1.0000 0.06073  0.34597  0.61767  Biso   1.000  C
  C1319    1.0000 0.02353  0.37217  0.61828  Biso   1.000  C
  C1320    1.0000 0.09703  0.31937  0.61517  Biso   1.000  C
  H341     1.0000 0.05293  0.33767  0.59677  Biso   1.000  H
  C1321    1.0000 0.02877  0.40491  0.61687  Biso   1.000  C
  C1322    1.0000 0.99443  0.34550  0.60467  Biso   1.000  C
  C1323    1.0000 0.10303  0.32157  0.58157  Biso   1.000  C
  C1324    1.0000 0.10443  0.29677  0.63337  Biso   1.000  C
  C1325    1.0000 0.00493  0.41097  0.60187  Biso   1.000  C
  C1326    1.0000 0.97059  0.35153  0.58967  Biso   1.000  C
  H342     1.0000 0.09833  0.33527  0.56817  Biso   1.000  H
  C1327    1.0000 0.11663  0.30207  0.56837  Biso   1.000  C
  C1328    1.0000 0.11693  0.27937  0.61857  Biso   1.000  C
  H343     1.0000 0.10043  0.29437  0.65587  Biso   1.000  H
  C1329    1.0000 0.97583  0.38429  0.58826  Biso   1.000  C
  H344     1.0000 0.12003  0.30247  0.54587  Biso   1.000  H
  C1330    1.0000 0.12503  0.28267  0.58787  Biso   1.000  C
  H345     1.0000 0.12003  0.26407  0.63107  Biso   1.000  H
  C1331    1.0000 0.94993  0.39167  0.57007  Biso   1.000  C
  C1332    1.0000 0.14163  0.26607  0.57097  Biso   1.000  C
  C1333    1.0000 0.23743  0.38087  0.91537  Biso   1.000  C
  C1334    1.0000 0.28733  0.57337  0.85157  Biso   1.000  C
  C1335    1.0000 0.26343  0.53927  0.85427  Biso   1.000  C
  C1336    1.0000 0.28203  0.59407  0.87297  Biso   1.000  C
  C1337    1.0000 0.25363  0.58337  0.89277  Biso   1.000  C
  C1338    1.0000 0.30743  0.63047  0.87677  Biso   1.000  C
  C1339    1.0000 0.29873  0.65737  0.87177  Biso   1.000  C
  C1340    1.0000 0.39153  0.54677  0.20867  Biso   1.000  C
  C1341    1.0000 0.35823  0.55337  0.21067  Biso   1.000  C
  C1342    1.0000 0.10873  0.36467  0.73247  Biso   1.000  C
  C1343    1.0000 0.12353  0.37457  0.76337  Biso   1.000  C
  C1344    1.0000 0.09503  0.40847  0.73097  Biso   1.000  C
  C1345    1.0000 0.10563  0.41607  0.76347  Biso   1.000  C
  C1346    1.0000 0.03093  0.39237  0.59047  Biso   1.000  C
  C1347    1.0000 0.00723  0.39697  0.57327  Biso   1.000  C
  C1348    1.0000 0.96623  0.36387  0.61607  Biso   1.000  C
  C1349    1.0000 0.99263  0.36357  0.63277  Biso   1.000  C
  O255     1.0000 0.96173  0.42177  0.56167  Biso   1.000  O
  C1350    1.0000 0.39690  0.29534  0.91287  Biso   1.000  C
  In31     1.0000 0.17625  0.24066  0.54220  Biso   1.000  In
  O256     1.0000 0.18690  0.26140  0.49413  Biso   1.000  O
  O257     1.0000 0.20790  0.23070  0.50560  Biso   1.000  O
  O258     1.0000 0.12060  0.19500  0.51820  Biso   1.000  O
  O259     1.0000 0.14867  0.18677  0.55230  Biso   1.000  O
  O260     1.0000 0.21277  0.23835  0.57925  Biso   1.000  O
  O261     1.0000 0.22720  0.28661  0.55800  Biso   1.000  O
  O262     1.0000 0.15144  0.27212  0.54190  Biso   1.000  O
  O263     1.0000 0.14880  0.24730  0.58740  Biso   1.000  O
  C1351    1.0000 0.20180  0.25340  0.48390  Biso   1.000  C
  C1352    1.0000 0.12160  0.17350  0.53640  Biso   1.000  C
  C1353    1.0000 0.21530  0.25370  0.46380  Biso   1.000  C
  C1354    1.0000 0.09740  0.14140  0.53620  Biso   1.000  C
  C1355    1.0000 0.21850  0.27700  0.43090  Biso   1.000  C
  C1356    1.0000 0.23340  0.24390  0.44620  Biso   1.000  C
  C1357    1.0000 0.06590  0.12650  0.52110  Biso   1.000  C
  C1358    1.0000 0.10500  0.12140  0.55620  Biso   1.000  C
  H346     1.0000 0.20830  0.29000  0.43440  Biso   1.000  H
  C1359    1.0000 0.23330  0.28230  0.39850  Biso   1.000  C
  C1360    1.0000 0.25010  0.24230  0.41580  Biso   1.000  C
  H347     1.0000 0.23810  0.23130  0.46110  Biso   1.000  H
  C1361    1.0000 0.04350  0.09050  0.52630  Biso   1.000  C
  C1362    1.0000 0.08220  0.08580  0.56040  Biso   1.000  C
  H348     1.0000 0.23260  0.29770  0.38410  Biso   1.000  H
  C1363    1.0000 0.24830  0.26370  0.38960  Biso   1.000  C
  H349     1.0000 0.26060  0.22940  0.41350  Biso   1.000  H
  H350     1.0000 0.02260  0.08010  0.51580  Biso   1.000  H
  C1364    1.0000 0.05140  0.07170  0.54510  Biso   1.000  C
  H351     1.0000 0.08820  0.07270  0.57320  Biso   1.000  H
  C1365    1.0000 0.26000  0.26830  0.35410  Biso   1.000  C
  C1366    1.0000 0.02170  0.03340  0.54510  Biso   1.000  C
  C1367    1.0000 0.25640  0.24120  0.33660  Biso   1.000  C
  C1368    1.0000 0.27750  0.30060  0.33830  Biso   1.000  C
  C1369    1.0000 0.03450  0.01170  0.54530  Biso   1.000  C
  H352     1.0000 0.24500  0.22000  0.34640  Biso   1.000  H
  C1370    1.0000 0.26850  0.24330  0.30500  Biso   1.000  C
  C1371    1.0000 0.29040  0.30360  0.30650  Biso   1.000  C
  H353     1.0000 0.28030  0.31970  0.34930  Biso   1.000  H
  H354     1.0000 0.05750  0.01960  0.54570  Biso   1.000  H
  C1372    1.0000 0.28530  0.27490  0.29090  Biso   1.000  C
  C1373    1.0000 0.26386  0.21440  0.28640  Biso   1.000  C
  C1374    1.0000 0.30980  0.33790  0.29120  Biso   1.000  C
  H355     1.0000 0.29350  0.27680  0.26970  Biso   1.000  H
  C1375    1.0000 0.23871  0.18210  0.29552  Biso   1.000  C
  C1376    1.0000 0.28606  0.21846  0.26110  Biso   1.000  C
  C1377    1.0000 0.33850  0.34500  0.27150  Biso   1.000  C
  C1378    1.0000 0.30300  0.36320  0.29570  Biso   1.000  C
  H356     1.0000 0.22390  0.17940  0.31240  Biso   1.000  H
  C1379    1.0000 0.23579  0.15389  0.27940  Biso   1.000  C
  C1380    1.0000 0.28320  0.19030  0.24500  Biso   1.000  C
  H357     1.0000 0.34450  0.32840  0.26870  Biso   1.000  H
  C1381    1.0000 0.35760  0.37610  0.25650  Biso   1.000  C
  C1382    1.0000 0.32210  0.39360  0.27850  Biso   1.000  C
  H358     1.0000 0.28600  0.36060  0.31000  Biso   1.000  H
  H359     1.0000 0.21900  0.13230  0.28550  Biso   1.000  H
  C1383    1.0000 0.25806  0.15797  0.25420  Biso   1.000  C
  H360     1.0000 0.37650  0.38050  0.24410  Biso   1.000  H
  C1384    1.0000 0.34840  0.40050  0.25990  Biso   1.000  C
  H361     1.0000 0.31570  0.41000  0.28030  Biso   1.000  H
  C1385    1.0000 0.25250  0.12380  0.23660  Biso   1.000  C
  C1386    1.0000 0.36870  0.43330  0.24270  Biso   1.000  C
  O264     1.0000 0.23380  0.09620  0.24905  Biso   1.000  O
  O265     1.0000 0.26770  0.12985  0.21094  Biso   1.000  O
  In32     1.0000 0.24036  0.06917  0.20545  Biso   1.000  In
  O266     1.0000 0.23843  0.03460  0.16359  Biso   1.000  O
  O267     1.0000 0.26628  0.09048  0.15641  Biso   1.000  O
  O268     1.0000 0.18536  0.03035  0.21824  Biso   1.000  O
  O269     1.0000 0.19669  0.07242  0.18308  Biso   1.000  O
  O270     1.0000 0.25360  0.03723  0.23973  Biso   1.000  O
  O271     1.0000 0.29280  0.07750  0.21240  Biso   1.000  O
  C1387    1.0000 0.25670  0.06200  0.14680  Biso   1.000  C
  C1388    1.0000 0.17700  0.04660  0.20120  Biso   1.000  C
  C1389    1.0000 0.26490  0.05470  0.11149  Biso   1.000  C
  C1390    1.0000 0.13940  0.03610  0.19700  Biso   1.000  C
  C1391    1.0000 0.26630  0.02610  0.10220  Biso   1.000  C
  C1392    1.0000 0.27205  0.08011  0.08870  Biso   1.000  C
  C1393    1.0000 0.12960  0.05180  0.17380  Biso   1.000  C
  C1394    1.0000 0.11508  0.00980  0.21600  Biso   1.000  C
  C1395    1.0000 0.27495  0.02292  0.07020  Biso   1.000  C
  C1396    1.0000 0.28066  0.07696  0.05671  Biso   1.000  C
  C1397    1.0000 0.09540  0.04120  0.16950  Biso   1.000  C
  C1398    1.0000 0.08100  0.99930  0.21180  Biso   1.000  C
  C1399    1.0000 0.28220  0.04840  0.04746  Biso   1.000  C
  C1400    1.0000 0.07120  0.01500  0.18850  Biso   1.000  C
  C1401    1.0000 0.29520  0.04690  0.01450  Biso   1.000  C
  C1402    1.0000 0.03600  0.00850  0.18890  Biso   1.000  C
  C1403    1.0000 0.28910  0.01660  0.99930  Biso   1.000  C
  C1404    1.0000 0.31460  0.07650  0.99720  Biso   1.000  C
  C1405    1.0000 0.00690  0.97370  0.18540  Biso   1.000  C
  H362     1.0000 0.27660  0.99600  0.01010  Biso   1.000  H
  C1406    1.0000 0.30200  0.01770  0.96790  Biso   1.000  C
  C1407    1.0000 0.32660  0.07820  0.96690  Biso   1.000  C
  H363     1.0000 0.31960  0.09670  0.00740  Biso   1.000  H
  C1408    1.0000 0.32070  0.04810  0.95100  Biso   1.000  C
  C1409    1.0000 0.29450  0.98470  0.95161  Biso   1.000  C
  C1410    1.0000 0.34730  0.11100  0.94850  Biso   1.000  C
  H364     1.0000 0.32900  0.04860  0.93010  Biso   1.000  H
  C1411    1.0000 0.26176  0.95720  0.95020  Biso   1.000  C
  C1412    1.0000 0.32117  0.98227  0.93800  Biso   1.000  C
  C1413    1.0000 0.34510  0.11480  0.91490  Biso   1.000  C
  C1414    1.0000 0.36990  0.14100  0.96670  Biso   1.000  C
  C1415    1.0000 0.25570  0.92730  0.93520  Biso   1.000  C
  C1416    1.0000 0.31514  0.95240  0.92300  Biso   1.000  C
  H365     1.0000 0.33140  0.09640  0.90150  Biso   1.000  H
  C1417    1.0000 0.36460  0.14790  0.90170  Biso   1.000  C
  C1418    1.0000 0.38730  0.17090  0.95190  Biso   1.000  C
  H366     1.0000 0.37230  0.13940  0.98920  Biso   1.000  H
  C1419    1.0000 0.28238  0.92488  0.92159  Biso   1.000  C
  H367     1.0000 0.36420  0.15090  0.87920  Biso   1.000  H
  C1420    1.0000 0.38400  0.17570  0.92120  Biso   1.000  C
  H368     1.0000 0.40260  0.18930  0.96440  Biso   1.000  H
  C1421    1.0000 0.27500  0.89160  0.90340  Biso   1.000  C
  C1422    1.0000 0.40060  0.20890  0.90430  Biso   1.000  C
  C1423    1.0000 0.28580  0.18990  0.24870  Biso   1.000  C
  C1424    1.0000 0.09330  0.04730  0.18490  Biso   1.000  C
  C1425    1.0000 0.12740  0.05750  0.18760  Biso   1.000  C
  C1426    1.0000 0.07260  0.02130  0.20630  Biso   1.000  C
  C1427    1.0000 0.08330  0.00360  0.22610  Biso   1.000  C
  C1428    1.0000 0.03620  0.01030  0.21010  Biso   1.000  C
  C1429    1.0000 0.00930  0.97470  0.20510  Biso   1.000  C
  C1430    1.0000 0.11990  0.17810  0.54200  Biso   1.000  C
  C1431    1.0000 0.11330  0.13820  0.54400  Biso   1.000  C
  C1432    1.0000 0.30200  0.07740  0.06580  Biso   1.000  C
  C1433    1.0000 0.29210  0.08230  0.09670  Biso   1.000  C
  C1434    1.0000 0.25820  0.01990  0.06430  Biso   1.000  C
  C1435    1.0000 0.25060  0.02290  0.09680  Biso   1.000  C
  C1436    1.0000 0.27430  0.97190  0.92380  Biso   1.000  C
  C1437    1.0000 0.26970  0.94360  0.90660  Biso   1.000  C
  C1438    1.0000 0.30280  0.93570  0.94940  Biso   1.000  C
  C1439    1.0000 0.30310  0.96240  0.96610  Biso   1.000  C
  O272     1.0000 0.24490  0.87330  0.89500  Biso   1.000  O
  C1440    1.0000 0.37133  0.43490  0.24620  Biso   1.000  C
  In33     1.0000 0.84291  0.57399  0.87553  Biso   1.000  In
  O273     1.0000 0.85357  0.59473  0.82746  Biso   1.000  O
  O274     1.0000 0.87457  0.56403  0.83893  Biso   1.000  O
  O275     1.0000 0.78727  0.52833  0.85153  Biso   1.000  O
  O276     1.0000 0.81534  0.52010  0.88563  Biso   1.000  O
  O277     1.0000 0.87944  0.57168  0.91258  Biso   1.000  O
  O278     1.0000 0.89387  0.61994  0.89133  Biso   1.000  O
  O279     1.0000 0.81811  0.60545  0.87523  Biso   1.000  O
  O280     1.0000 0.81547  0.58063  0.92073  Biso   1.000  O
  C1441    1.0000 0.86847  0.58673  0.81723  Biso   1.000  C
  C1442    1.0000 0.78827  0.50683  0.86973  Biso   1.000  C
  C1443    1.0000 0.88197  0.58703  0.79713  Biso   1.000  C
  C1444    1.0000 0.76407  0.47473  0.86953  Biso   1.000  C
  C1445    1.0000 0.88517  0.61033  0.76423  Biso   1.000  C
  C1446    1.0000 0.90007  0.57723  0.77953  Biso   1.000  C
  C1447    1.0000 0.73257  0.45983  0.85443  Biso   1.000  C
  C1448    1.0000 0.77167  0.45473  0.88953  Biso   1.000  C
  H369     1.0000 0.87497  0.62333  0.76773  Biso   1.000  H
  C1449    1.0000 0.89997  0.61563  0.73183  Biso   1.000  C
  C1450    1.0000 0.91677  0.57563  0.74913  Biso   1.000  C
  H370     1.0000 0.90477  0.56463  0.79443  Biso   1.000  H
  C1451    1.0000 0.71017  0.42383  0.85963  Biso   1.000  C
  C1452    1.0000 0.74887  0.41913  0.89373  Biso   1.000  C
  H371     1.0000 0.89927  0.63103  0.71743  Biso   1.000  H
  C1453    1.0000 0.91497  0.59703  0.72293  Biso   1.000  C
  H372     1.0000 0.92727  0.56273  0.74683  Biso   1.000  H
  H373     1.0000 0.68927  0.41343  0.84913  Biso   1.000  H
  C1454    1.0000 0.71807  0.40503  0.87843  Biso   1.000  C
  H374     1.0000 0.75487  0.40603  0.90653  Biso   1.000  H
  C1455    1.0000 0.92667  0.60163  0.68743  Biso   1.000  C
  C1456    1.0000 0.68837  0.36673  0.87843  Biso   1.000  C
  C1457    1.0000 0.92307  0.57453  0.66993  Biso   1.000  C
  C1458    1.0000 0.94417  0.63393  0.67163  Biso   1.000  C
  C1459    1.0000 0.70117  0.34503  0.87863  Biso   1.000  C
  H375     1.0000 0.91167  0.55333  0.67973  Biso   1.000  H
  C1460    1.0000 0.93517  0.57663  0.63833  Biso   1.000  C
  C1461    1.0000 0.95707  0.63693  0.63983  Biso   1.000  C
  H376     1.0000 0.94697  0.65303  0.68263  Biso   1.000  H
  H377     1.0000 0.72417  0.35293  0.87903  Biso   1.000  H
  C1462    1.0000 0.95197  0.60823  0.62423  Biso   1.000  C
  C1463    1.0000 0.93053  0.54773  0.61973  Biso   1.000  C
  C1464    1.0000 0.97647  0.67123  0.62453  Biso   1.000  C
  H378     1.0000 0.96017  0.61013  0.60303  Biso   1.000  H
  C1465    1.0000 0.90538  0.51543  0.62885  Biso   1.000  C
  C1466    1.0000 0.95273  0.55179  0.59443  Biso   1.000  C
  C1467    1.0000 0.00517  0.67833  0.60483  Biso   1.000  C
  C1468    1.0000 0.96967  0.69653  0.62903  Biso   1.000  C
  H379     1.0000 0.89057  0.51273  0.64573  Biso   1.000  H
  C1469    1.0000 0.90246  0.48722  0.61273  Biso   1.000  C
  C1470    1.0000 0.94987  0.52363  0.57833  Biso   1.000  C
  H380     1.0000 0.01117  0.66173  0.60203  Biso   1.000  H
  C1471    1.0000 0.02427  0.70943  0.58983  Biso   1.000  C
  C1472    1.0000 0.98877  0.72693  0.61183  Biso   1.000  C
  H381     1.0000 0.95267  0.69393  0.64333  Biso   1.000  H
  H382     1.0000 0.88567  0.46563  0.61883  Biso   1.000  H
  C1473    1.0000 0.92473  0.49130  0.58753  Biso   1.000  C
  H383     1.0000 0.04317  0.71383  0.57743  Biso   1.000  H
  C1474    1.0000 0.01507  0.73383  0.59323  Biso   1.000  C
  H384     1.0000 0.98237  0.74333  0.61363  Biso   1.000  H
  C1475    1.0000 0.91917  0.45713  0.56993  Biso   1.000  C
  C1476    1.0000 0.03537  0.76663  0.57603  Biso   1.000  C
  O281     1.0000 0.90047  0.42953  0.58238  Biso   1.000  O
  O282     1.0000 0.93437  0.46318  0.54427  Biso   1.000  O
  In34     1.0000 0.90703  0.40250  0.53879  Biso   1.000  In
  O283     1.0000 0.90510  0.36793  0.49692  Biso   1.000  O
  O284     1.0000 0.93295  0.42381  0.48974  Biso   1.000  O
  O285     1.0000 0.85203  0.36368  0.55157  Biso   1.000  O
  O286     1.0000 0.86336  0.40575  0.51641  Biso   1.000  O
  O287     1.0000 0.92027  0.37056  0.57306  Biso   1.000  O
  O288     1.0000 0.95947  0.41083  0.54573  Biso   1.000  O
  C1477    1.0000 0.92337  0.39533  0.48013  Biso   1.000  C
  C1478    1.0000 0.84367  0.37993  0.53453  Biso   1.000  C
  C1479    1.0000 0.93157  0.38803  0.44482  Biso   1.000  C
  C1480    1.0000 0.80607  0.36943  0.53033  Biso   1.000  C
  C1481    1.0000 0.93297  0.35943  0.43553  Biso   1.000  C
  C1482    1.0000 0.93872  0.41344  0.42203  Biso   1.000  C
  C1483    1.0000 0.79627  0.38513  0.50713  Biso   1.000  C
  C1484    1.0000 0.78175  0.34313  0.54933  Biso   1.000  C
  C1485    1.0000 0.94162  0.35625  0.40353  Biso   1.000  C
  C1486    1.0000 0.94733  0.41029  0.39004  Biso   1.000  C
  C1487    1.0000 0.76207  0.37453  0.50283  Biso   1.000  C
  C1488    1.0000 0.74767  0.33263  0.54513  Biso   1.000  C
  C1489    1.0000 0.94887  0.38173  0.38079  Biso   1.000  C
  C1490    1.0000 0.73787  0.34833  0.52183  Biso   1.000  C
  C1491    1.0000 0.96187  0.38023  0.34783  Biso   1.000  C
  C1492    1.0000 0.70267  0.34183  0.52223  Biso   1.000  C
  C1493    1.0000 0.95577  0.34993  0.33263  Biso   1.000  C
  C1494    1.0000 0.98127  0.40983  0.33053  Biso   1.000  C
  C1495    1.0000 0.67357  0.30703  0.51873  Biso   1.000  C
  H385     1.0000 0.94327  0.32933  0.34343  Biso   1.000  H
  C1496    1.0000 0.96867  0.35103  0.30123  Biso   1.000  C
  C1497    1.0000 0.99327  0.41153  0.30023  Biso   1.000  C
  H386     1.0000 0.98627  0.43003  0.34073  Biso   1.000  H
  C1498    1.0000 0.98737  0.38143  0.28433  Biso   1.000  C
  C1499    1.0000 0.96117  0.31803  0.28494  Biso   1.000  C
  C1500    1.0000 0.01397  0.44433  0.28183  Biso   1.000  C
  H387     1.0000 0.99567  0.38193  0.26343  Biso   1.000  H
  C1501    1.0000 0.92843  0.29053  0.28353  Biso   1.000  C
  C1502    1.0000 0.98784  0.31560  0.27133  Biso   1.000  C
  C1503    1.0000 0.01177  0.44813  0.24823  Biso   1.000  C
  C1504    1.0000 0.03657  0.47433  0.30003  Biso   1.000  C
  C1505    1.0000 0.92237  0.26063  0.26853  Biso   1.000  C
  C1506    1.0000 0.98181  0.28573  0.25633  Biso   1.000  C
  H388     1.0000 0.99807  0.42973  0.23483  Biso   1.000  H
  C1507    1.0000 0.03127  0.48123  0.23503  Biso   1.000  C
  C1508    1.0000 0.05397  0.50423  0.28523  Biso   1.000  C
  H389     1.0000 0.03897  0.47273  0.32253  Biso   1.000  H
  C1509    1.0000 0.94905  0.25821  0.25492  Biso   1.000  C
  H390     1.0000 0.03087  0.48423  0.21253  Biso   1.000  H
  C1510    1.0000 0.05067  0.50903  0.25453  Biso   1.000  C
  H391     1.0000 0.06927  0.52263  0.29773  Biso   1.000  H
  C1511    1.0000 0.94167  0.22493  0.23673  Biso   1.000  C
  C1512    1.0000 0.06727  0.54223  0.23763  Biso   1.000  C
  C1513    1.0000 0.95247  0.52323  0.58203  Biso   1.000  C
  C1514    1.0000 0.75997  0.38063  0.51823  Biso   1.000  C
  C1515    1.0000 0.79407  0.39083  0.52093  Biso   1.000  C
  C1516    1.0000 0.73927  0.35463  0.53963  Biso   1.000  C
  C1517    1.0000 0.74997  0.33693  0.55943  Biso   1.000  C
  C1518    1.0000 0.70287  0.34363  0.54343  Biso   1.000  C
  C1519    1.0000 0.67597  0.30803  0.53843  Biso   1.000  C
  C1520    1.0000 0.78657  0.51143  0.87533  Biso   1.000  C
  C1521    1.0000 0.77997  0.47153  0.87733  Biso   1.000  C
  C1522    1.0000 0.96867  0.41073  0.39913  Biso   1.000  C
  C1523    1.0000 0.95877  0.41563  0.43003  Biso   1.000  C
  C1524    1.0000 0.92487  0.35323  0.39763  Biso   1.000  C
  C1525    1.0000 0.91727  0.35623  0.43013  Biso   1.000  C
  C1526    1.0000 0.94097  0.30523  0.25713  Biso   1.000  C
  C1527    1.0000 0.93637  0.27693  0.23993  Biso   1.000  C
  C1528    1.0000 0.96947  0.26903  0.28273  Biso   1.000  C
  C1529    1.0000 0.96977  0.29573  0.29943  Biso   1.000  C
  O289     1.0000 0.91157  0.20663  0.22833  Biso   1.000  O
  C1530    1.0000 0.03800  0.76823  0.57953  Biso   1.000  C
  In35     1.0000 0.50958  0.90732  0.20887  Biso   1.000  In
  O290     1.0000 0.52023  0.92807  0.16080  Biso   1.000  O
  O291     1.0000 0.54123  0.89737  0.17227  Biso   1.000  O
  O292     1.0000 0.45393  0.86167  0.18487  Biso   1.000  O
  O293     1.0000 0.48200  0.85344  0.21897  Biso   1.000  O
  O294     1.0000 0.54610  0.90502  0.24592  Biso   1.000  O
  O295     1.0000 0.56053  0.95328  0.22467  Biso   1.000  O
  O296     1.0000 0.48477  0.93879  0.20857  Biso   1.000  O
  O297     1.0000 0.48213  0.91397  0.25407  Biso   1.000  O
  C1531    1.0000 0.53513  0.92007  0.15057  Biso   1.000  C
  C1532    1.0000 0.45493  0.84017  0.20307  Biso   1.000  C
  C1533    1.0000 0.54863  0.92037  0.13047  Biso   1.000  C
  C1534    1.0000 0.43073  0.80807  0.20287  Biso   1.000  C
  C1535    1.0000 0.55183  0.94367  0.09757  Biso   1.000  C
  C1536    1.0000 0.56673  0.91057  0.11287  Biso   1.000  C
  C1537    1.0000 0.39923  0.79317  0.18777  Biso   1.000  C
  C1538    1.0000 0.43833  0.78807  0.22287  Biso   1.000  C
  H392     1.0000 0.54163  0.95667  0.10107  Biso   1.000  H
  C1539    1.0000 0.56663  0.94897  0.06517  Biso   1.000  C
  C1540    1.0000 0.58343  0.90897  0.08247  Biso   1.000  C
  H393     1.0000 0.57143  0.89797  0.12777  Biso   1.000  H
  C1541    1.0000 0.37683  0.75717  0.19297  Biso   1.000  C
  C1542    1.0000 0.41553  0.75247  0.22707  Biso   1.000  C
  H394     1.0000 0.56593  0.96437  0.05077  Biso   1.000  H
  C1543    1.0000 0.58163  0.93037  0.05627  Biso   1.000  C
  H395     1.0000 0.59393  0.89607  0.08017  Biso   1.000  H
  H396     1.0000 0.35593  0.74677  0.18247  Biso   1.000  H
  C1544    1.0000 0.38473  0.73837  0.21177  Biso   1.000  C
  H397     1.0000 0.42153  0.73937  0.23987  Biso   1.000  H
  C1545    1.0000 0.59333  0.93497  0.02077  Biso   1.000  C
  C1546    1.0000 0.35503  0.70007  0.21177  Biso   1.000  C
  C1547    1.0000 0.58973  0.90787  0.00327  Biso   1.000  C
  C1548    1.0000 0.61083  0.96727  0.00497  Biso   1.000  C
  C1549    1.0000 0.36783  0.67837  0.21197  Biso   1.000  C
  H398     1.0000 0.57833  0.88667  0.01307  Biso   1.000  H
  C1550    1.0000 0.60183  0.90997  0.97167  Biso   1.000  C
  C1551    1.0000 0.62373  0.97027  0.97317  Biso   1.000  C
  H399     1.0000 0.61363  0.98637  0.01597  Biso   1.000  H
  H400     1.0000 0.39083  0.68627  0.21237  Biso   1.000  H
  C1552    1.0000 0.61863  0.94157  0.95757  Biso   1.000  C
  C1553    1.0000 0.59719  0.88107  0.95307  Biso   1.000  C
  C1554    1.0000 0.64313  0.00457  0.95787  Biso   1.000  C
  H401     1.0000 0.62683  0.94347  0.93637  Biso   1.000  H
  C1555    1.0000 0.57204  0.84877  0.96219  Biso   1.000  C
  C1556    1.0000 0.61939  0.88513  0.92777  Biso   1.000  C
  C1557    1.0000 0.67183  0.01167  0.93817  Biso   1.000  C
  C1558    1.0000 0.63633  0.02987  0.96237  Biso   1.000  C
  H402     1.0000 0.55723  0.84607  0.97907  Biso   1.000  H
  C1559    1.0000 0.56912  0.82056  0.94607  Biso   1.000  C
  C1560    1.0000 0.61653  0.85697  0.91167  Biso   1.000  C
  H403     1.0000 0.67783  0.99507  0.93537  Biso   1.000  H
  C1561    1.0000 0.69093  0.04277  0.92317  Biso   1.000  C
  C1562    1.0000 0.65543  0.06027  0.94517  Biso   1.000  C
  H404     1.0000 0.61933  0.02727  0.97667  Biso   1.000  H
  H405     1.0000 0.55233  0.79897  0.95217  Biso   1.000  H
  C1563    1.0000 0.59139  0.82464  0.92087  Biso   1.000  C
  H406     1.0000 0.70983  0.04717  0.91077  Biso   1.000  H
  C1564    1.0000 0.68173  0.06717  0.92657  Biso   1.000  C
  H407     1.0000 0.64903  0.07667  0.94697  Biso   1.000  H
  C1565    1.0000 0.58583  0.79047  0.90327  Biso   1.000  C
  C1566    1.0000 0.70203  0.09997  0.90937  Biso   1.000  C
  O298     1.0000 0.56713  0.76287  0.91572  Biso   1.000  O
  O299     1.0000 0.60103  0.79652  0.87761  Biso   1.000  O
  In36     1.0000 0.57370  0.73583  0.87212  Biso   1.000  In
  O300     1.0000 0.57176  0.70127  0.83026  Biso   1.000  O
  O301     1.0000 0.59961  0.75715  0.82308  Biso   1.000  O
  O302     1.0000 0.51869  0.69702  0.88491  Biso   1.000  O
  O303     1.0000 0.53002  0.73909  0.84975  Biso   1.000  O
  O304     1.0000 0.58693  0.70390  0.90640  Biso   1.000  O
  O305     1.0000 0.62613  0.74417  0.87907  Biso   1.000  O
  C1567    1.0000 0.59003  0.72867  0.81347  Biso   1.000  C
  C1568    1.0000 0.51033  0.71327  0.86787  Biso   1.000  C
  C1569    1.0000 0.59823  0.72137  0.77816  Biso   1.000  C
  C1570    1.0000 0.47273  0.70277  0.86367  Biso   1.000  C
  C1571    1.0000 0.59963  0.69277  0.76887  Biso   1.000  C
  C1572    1.0000 0.60538  0.74678  0.75537  Biso   1.000  C
  C1573    1.0000 0.46293  0.71847  0.84047  Biso   1.000  C
  C1574    1.0000 0.44841  0.67647  0.88267  Biso   1.000  C
  C1575    1.0000 0.60828  0.68959  0.73687  Biso   1.000  C
  C1576    1.0000 0.61399  0.74363  0.72338  Biso   1.000  C
  C1577    1.0000 0.42873  0.70787  0.83617  Biso   1.000  C
  C1578    1.0000 0.41433  0.66597  0.87847  Biso   1.000  C
  C1579    1.0000 0.61553  0.71507  0.71413  Biso   1.000  C
  C1580    1.0000 0.40453  0.68167  0.85517  Biso   1.000  C
  C1581    1.0000 0.62853  0.71357  0.68117  Biso   1.000  C
  C1582    1.0000 0.36933  0.67517  0.85557  Biso   1.000  C
  C1583    1.0000 0.62243  0.68327  0.66597  Biso   1.000  C
  C1584    1.0000 0.64793  0.74317  0.66387  Biso   1.000  C
  C1585    1.0000 0.34023  0.64037  0.85207  Biso   1.000  C
  H408     1.0000 0.60993  0.66267  0.67677  Biso   1.000  H
  C1586    1.0000 0.63533  0.68437  0.63457  Biso   1.000  C
  C1587    1.0000 0.65993  0.74487  0.63357  Biso   1.000  C
  H409     1.0000 0.65293  0.76337  0.67407  Biso   1.000  H
  C1588    1.0000 0.65403  0.71477  0.61767  Biso   1.000  C
  C1589    1.0000 0.62783  0.65137  0.61828  Biso   1.000  C
  C1590    1.0000 0.68063  0.77767  0.61517  Biso   1.000  C
  H410     1.0000 0.66233  0.71527  0.59677  Biso   1.000  H
  C1591    1.0000 0.59509  0.62387  0.61687  Biso   1.000  C
  C1592    1.0000 0.65450  0.64894  0.60467  Biso   1.000  C
  C1593    1.0000 0.67843  0.78147  0.58157  Biso   1.000  C
  C1594    1.0000 0.70323  0.80767  0.63337  Biso   1.000  C
  C1595    1.0000 0.58903  0.59397  0.60187  Biso   1.000  C
  C1596    1.0000 0.64847  0.61907  0.58967  Biso   1.000  C
  H411     1.0000 0.66473  0.76307  0.56817  Biso   1.000  H
  C1597    1.0000 0.69793  0.81457  0.56837  Biso   1.000  C
  C1598    1.0000 0.72063  0.83757  0.61857  Biso   1.000  C
  H412     1.0000 0.70563  0.80607  0.65587  Biso   1.000  H
  C1599    1.0000 0.61571  0.59155  0.58826  Biso   1.000  C
  H413     1.0000 0.69753  0.81757  0.54587  Biso   1.000  H
  C1600    1.0000 0.71733  0.84237  0.58787  Biso   1.000  C
  H414     1.0000 0.73593  0.85597  0.63107  Biso   1.000  H
  C1601    1.0000 0.60833  0.55827  0.57007  Biso   1.000  C
  C1602    1.0000 0.73393  0.87557  0.57097  Biso   1.000  C
  C1603    1.0000 0.61913  0.85657  0.91537  Biso   1.000  C
  C1604    1.0000 0.42663  0.71397  0.85157  Biso   1.000  C
  C1605    1.0000 0.46073  0.72417  0.85427  Biso   1.000  C
  C1606    1.0000 0.40593  0.68797  0.87297  Biso   1.000  C
  C1607    1.0000 0.41663  0.67027  0.89277  Biso   1.000  C
  C1608    1.0000 0.36953  0.67697  0.87677  Biso   1.000  C
  C1609    1.0000 0.34263  0.64137  0.87177  Biso   1.000  C
  C1610    1.0000 0.45323  0.84477  0.20867  Biso   1.000  C
  C1611    1.0000 0.44663  0.80487  0.21067  Biso   1.000  C
  C1612    1.0000 0.63533  0.74407  0.73247  Biso   1.000  C
  C1613    1.0000 0.62543  0.74897  0.76337  Biso   1.000  C
  C1614    1.0000 0.59153  0.68657  0.73097  Biso   1.000  C
  C1615    1.0000 0.58393  0.68957  0.76347  Biso   1.000  C
  C1616    1.0000 0.60763  0.63857  0.59047  Biso   1.000  C
  C1617    1.0000 0.60303  0.61027  0.57327  Biso   1.000  C
  C1618    1.0000 0.63613  0.60237  0.61607  Biso   1.000  C
  C1619    1.0000 0.63643  0.62907  0.63277  Biso   1.000  C
  O306     1.0000 0.57823  0.53997  0.56167  Biso   1.000  O
  C1620    1.0000 0.70466  0.10157  0.91287  Biso   1.000  C
