data_image0
_cell_length_a       23.068
_cell_length_b       19.934
_cell_length_c       22.714
_cell_angle_alpha    90
_cell_angle_beta     115.85
_cell_angle_gamma    90

_symmetry_space_group_name_H-M    "P 1"
_symmetry_int_tables_number       1

loop_
  _symmetry_equiv_pos_as_xyz
  'x, y, z'

loop_
  _atom_site_label
  _atom_site_occupancy
  _atom_site_fract_x
  _atom_site_fract_y
  _atom_site_fract_z
  _atom_site_thermal_displace_type
  _atom_site_B_iso_or_equiv
  _atom_site_type_symbol
  Eu1      1.0000 0.79100  0.09130  0.25077  Biso   1.000  Eu
  O1       1.0000 0.79610  0.99490  0.18910  Biso   1.000  O
  O2       1.0000 0.85130  0.13970  0.19820  Biso   1.000  O
  O3       1.0000 0.77350  0.99660  0.32210  Biso   1.000  O
  O4       1.0000 0.78540  0.09600  0.36320  Biso   1.000  O
  O5       1.0000 0.67190  0.02150  0.18610  Biso   1.000  O
  O6       1.0000 0.67550  0.10770  0.24260  Biso   1.000  O
  O7       1.0000 0.71000  0.12870  0.12970  Biso   1.000  O
  O8       1.0000 0.73720  0.20990  0.19870  Biso   1.000  O
  O9       1.0000 0.89370  0.05170  0.33530  Biso   1.000  O
  C1       1.0000 0.83160  0.96400  0.16910  Biso   1.000  C
  C2       1.0000 0.89860  0.13700  0.18820  Biso   1.000  C
  N1       1.0000 0.77800  0.03400  0.36790  Biso   1.000  N
  N2       1.0000 0.64600  0.06370  0.20710  Biso   1.000  N
  N3       1.0000 0.70880  0.19180  0.14030  Biso   1.000  N
  C3       1.0000 0.79830  0.92930  0.10340  Biso   1.000  C
  O10      1.0000 0.89030  0.95690  0.19960  Biso   1.000  O
  C4       1.0000 0.91560  0.19460  0.15510  Biso   1.000  C
  O11      1.0000 0.94820  0.09830  0.22210  Biso   1.000  O
  O12      1.0000 0.77740  0.01130  0.41810  Biso   1.000  O
  O13      1.0000 0.58510  0.06200  0.18740  Biso   1.000  O
  O14      1.0000 0.68100  0.23050  0.09390  Biso   1.000  O
  O15      1.0000 0.98610  0.00560  0.34880  Biso   1.000  O
  C5       1.0000 0.83620  0.90060  0.07650  Biso   1.000  C
  C6       1.0000 0.73260  0.92450  0.07190  Biso   1.000  C
  C7       1.0000 0.87120  0.24520  0.12800  Biso   1.000  C
  C8       1.0000 0.97360  0.19790  0.15190  Biso   1.000  C
  H1       1.0000 0.88080  0.90320  0.09860  Biso   1.000  H
  C9       1.0000 0.80750  0.86830  0.01710  Biso   1.000  C
  C10      1.0000 0.70270  0.88910  0.01300  Biso   1.000  C
  H2       1.0000 0.70760  0.94500  0.08970  Biso   1.000  H
  O16      1.0000 0.99990  0.87280  0.29790  Biso   1.000  O
  H3       1.0000 0.83180  0.24330  0.13000  Biso   1.000  H
  C11      1.0000 0.88580  0.30030  0.09720  Biso   1.000  C
  C12      1.0000 0.98840  0.25120  0.12110  Biso   1.000  C
  H4       1.0000 0.00370  0.16390  0.17070  Biso   1.000  H
  H5       1.0000 0.83250  0.85090  0.99780  Biso   1.000  H
  C13      1.0000 0.74090  0.86190  0.98640  Biso   1.000  C
  H6       1.0000 0.65820  0.88410  0.99240  Biso   1.000  H
  H7       1.0000 0.85630  0.33470  0.07840  Biso   1.000  H
  C14      1.0000 0.94420  0.30140  0.09600  Biso   1.000  C
  H8       1.0000 0.02720  0.25250  0.11790  Biso   1.000  H
  N4       1.0000 0.71190  0.82510  0.92460  Biso   1.000  N
  N5       1.0000 0.96030  0.35940  0.06760  Biso   1.000  N
  C15      1.0000 0.74400  0.77450  0.91360  Biso   1.000  C
  C16      1.0000 0.65340  0.84260  0.87840  Biso   1.000  C
  C17      1.0000 0.92090  0.38130  0.00630  Biso   1.000  C
  C18      1.0000 0.01730  0.38950  0.09920  Biso   1.000  C
  H9       1.0000 0.78330  0.76110  0.94680  Biso   1.000  H
  C19      1.0000 0.72030  0.74190  0.85440  Biso   1.000  C
  C20      1.0000 0.62650  0.80980  0.81940  Biso   1.000  C
  H10      1.0000 0.63090  0.87720  0.88660  Biso   1.000  H
  H11      1.0000 0.88280  0.35820  0.98190  Biso   1.000  H
  C21      1.0000 0.93510  0.43510  0.98000  Biso   1.000  C
  C22      1.0000 0.03480  0.44400  0.07430  Biso   1.000  C
  H12      1.0000 0.04610  0.37280  0.13970  Biso   1.000  H
  H13      1.0000 0.74410  0.70790  0.84720  Biso   1.000  H
  C23      1.0000 0.66110  0.75970  0.80570  Biso   1.000  C
  H14      1.0000 0.58530  0.82100  0.78850  Biso   1.000  H
  H15      1.0000 0.90680  0.44880  0.93810  Biso   1.000  H
  C24      1.0000 0.99070  0.47050  0.01390  Biso   1.000  C
  H16      1.0000 0.07530  0.46320  0.09680  Biso   1.000  H
  C25      1.0000 0.63350  0.72560  0.73970  Biso   1.000  C
  C26      1.0000 0.65300  0.66210  0.73320  Biso   1.000  C
  C27      1.0000 0.58700  0.75660  0.68550  Biso   1.000  C
  H17      1.0000 0.68560  0.64090  0.76870  Biso   1.000  H
  C28      1.0000 0.62370  0.62980  0.67340  Biso   1.000  C
  C29      1.0000 0.56080  0.72410  0.62670  Biso   1.000  C
  H18      1.0000 0.57350  0.79980  0.68900  Biso   1.000  H
  H19      1.0000 0.63560  0.58610  0.66930  Biso   1.000  H
  N6       1.0000 0.57860  0.66050  0.62180  Biso   1.000  N
  H20      1.0000 0.53060  0.74570  0.58980  Biso   1.000  H
  C30      1.0000 0.54650  0.62680  0.55820  Biso   1.000  C
  C31      1.0000 0.58320  0.59280  0.53350  Biso   1.000  C
  C32      1.0000 0.48090  0.62940  0.52590  Biso   1.000  C
  H21      1.0000 0.62760  0.58960  0.55740  Biso   1.000  H
  C33      1.0000 0.55190  0.56350  0.47170  Biso   1.000  C
  C34      1.0000 0.45070  0.60060  0.46460  Biso   1.000  C
  H22      1.0000 0.45700  0.65010  0.54470  Biso   1.000  H
  H23      1.0000 0.57580  0.54070  0.45400  Biso   1.000  H
  C35      1.0000 0.48570  0.56810  0.43650  Biso   1.000  C
  H24      1.0000 0.40610  0.60300  0.44170  Biso   1.000  H
  C36      1.0000 0.45260  0.53990  0.36850  Biso   1.000  C
  O17      1.0000 0.92270  0.07800  0.18320  Biso   1.000  O
  Eu2      1.0000 0.29100  0.59130  0.25077  Biso   1.000  Eu
  O18      1.0000 0.29610  0.49490  0.18910  Biso   1.000  O
  O19      1.0000 0.35130  0.63970  0.19820  Biso   1.000  O
  O20      1.0000 0.27350  0.49660  0.32210  Biso   1.000  O
  O21      1.0000 0.28540  0.59600  0.36320  Biso   1.000  O
  O22      1.0000 0.17190  0.52150  0.18610  Biso   1.000  O
  O23      1.0000 0.17550  0.60770  0.24260  Biso   1.000  O
  O24      1.0000 0.21000  0.62870  0.12970  Biso   1.000  O
  O25      1.0000 0.23720  0.70990  0.19870  Biso   1.000  O
  O26      1.0000 0.39370  0.55170  0.33530  Biso   1.000  O
  C37      1.0000 0.33160  0.46400  0.16910  Biso   1.000  C
  C38      1.0000 0.39860  0.63700  0.18820  Biso   1.000  C
  N7       1.0000 0.27800  0.53400  0.36790  Biso   1.000  N
  N8       1.0000 0.14600  0.56370  0.20710  Biso   1.000  N
  N9       1.0000 0.20880  0.69180  0.14030  Biso   1.000  N
  C39      1.0000 0.29830  0.42930  0.10340  Biso   1.000  C
  O27      1.0000 0.39030  0.45690  0.19960  Biso   1.000  O
  C40      1.0000 0.41560  0.69460  0.15510  Biso   1.000  C
  O28      1.0000 0.44820  0.59830  0.22210  Biso   1.000  O
  O29      1.0000 0.27740  0.51130  0.41810  Biso   1.000  O
  O30      1.0000 0.08510  0.56200  0.18740  Biso   1.000  O
  O31      1.0000 0.18100  0.73050  0.09390  Biso   1.000  O
  O32      1.0000 0.48610  0.50560  0.34880  Biso   1.000  O
  C41      1.0000 0.33620  0.40060  0.07650  Biso   1.000  C
  C42      1.0000 0.23260  0.42450  0.07190  Biso   1.000  C
  C43      1.0000 0.37120  0.74520  0.12800  Biso   1.000  C
  C44      1.0000 0.47360  0.69790  0.15190  Biso   1.000  C
  H25      1.0000 0.38080  0.40320  0.09860  Biso   1.000  H
  C45      1.0000 0.30750  0.36830  0.01710  Biso   1.000  C
  C46      1.0000 0.20270  0.38910  0.01300  Biso   1.000  C
  H26      1.0000 0.20760  0.44500  0.08970  Biso   1.000  H
  O33      1.0000 0.49990  0.37280  0.29790  Biso   1.000  O
  H27      1.0000 0.33180  0.74330  0.13000  Biso   1.000  H
  C47      1.0000 0.38580  0.80030  0.09720  Biso   1.000  C
  C48      1.0000 0.48840  0.75120  0.12110  Biso   1.000  C
  H28      1.0000 0.50370  0.66390  0.17070  Biso   1.000  H
  H29      1.0000 0.33250  0.35090  0.99780  Biso   1.000  H
  C49      1.0000 0.24090  0.36190  0.98640  Biso   1.000  C
  H30      1.0000 0.15820  0.38410  0.99240  Biso   1.000  H
  H31      1.0000 0.35630  0.83470  0.07840  Biso   1.000  H
  C50      1.0000 0.44420  0.80140  0.09600  Biso   1.000  C
  H32      1.0000 0.52720  0.75250  0.11790  Biso   1.000  H
  N10      1.0000 0.21190  0.32510  0.92460  Biso   1.000  N
  N11      1.0000 0.46030  0.85940  0.06760  Biso   1.000  N
  C51      1.0000 0.24400  0.27450  0.91360  Biso   1.000  C
  C52      1.0000 0.15340  0.34260  0.87840  Biso   1.000  C
  C53      1.0000 0.42090  0.88130  0.00630  Biso   1.000  C
  C54      1.0000 0.51730  0.88950  0.09920  Biso   1.000  C
  H33      1.0000 0.28330  0.26110  0.94680  Biso   1.000  H
  C55      1.0000 0.22030  0.24190  0.85440  Biso   1.000  C
  C56      1.0000 0.12650  0.30980  0.81940  Biso   1.000  C
  H34      1.0000 0.13090  0.37720  0.88660  Biso   1.000  H
  H35      1.0000 0.38280  0.85820  0.98190  Biso   1.000  H
  C57      1.0000 0.43510  0.93510  0.98000  Biso   1.000  C
  C58      1.0000 0.53480  0.94400  0.07430  Biso   1.000  C
  H36      1.0000 0.54610  0.87280  0.13970  Biso   1.000  H
  H37      1.0000 0.24410  0.20790  0.84720  Biso   1.000  H
  C59      1.0000 0.16110  0.25970  0.80570  Biso   1.000  C
  H38      1.0000 0.08530  0.32100  0.78850  Biso   1.000  H
  H39      1.0000 0.40680  0.94880  0.93810  Biso   1.000  H
  C60      1.0000 0.49070  0.97050  0.01390  Biso   1.000  C
  H40      1.0000 0.57530  0.96320  0.09680  Biso   1.000  H
  C61      1.0000 0.13350  0.22560  0.73970  Biso   1.000  C
  C62      1.0000 0.15300  0.16210  0.73320  Biso   1.000  C
  C63      1.0000 0.08700  0.25660  0.68550  Biso   1.000  C
  H41      1.0000 0.18560  0.14090  0.76870  Biso   1.000  H
  C64      1.0000 0.12370  0.12980  0.67340  Biso   1.000  C
  C65      1.0000 0.06080  0.22410  0.62670  Biso   1.000  C
  H42      1.0000 0.07350  0.29980  0.68900  Biso   1.000  H
  H43      1.0000 0.13560  0.08610  0.66930  Biso   1.000  H
  N12      1.0000 0.07860  0.16050  0.62180  Biso   1.000  N
  H44      1.0000 0.03060  0.24570  0.58980  Biso   1.000  H
  C66      1.0000 0.04650  0.12680  0.55820  Biso   1.000  C
  C67      1.0000 0.08320  0.09280  0.53350  Biso   1.000  C
  C68      1.0000 0.98090  0.12940  0.52590  Biso   1.000  C
  H45      1.0000 0.12760  0.08960  0.55740  Biso   1.000  H
  C69      1.0000 0.05190  0.06350  0.47170  Biso   1.000  C
  C70      1.0000 0.95070  0.10060  0.46460  Biso   1.000  C
  H46      1.0000 0.95700  0.15010  0.54470  Biso   1.000  H
  H47      1.0000 0.07580  0.04070  0.45400  Biso   1.000  H
  C71      1.0000 0.98570  0.06810  0.43650  Biso   1.000  C
  H48      1.0000 0.90610  0.10300  0.44170  Biso   1.000  H
  C72      1.0000 0.95260  0.03990  0.36850  Biso   1.000  C
  O34      1.0000 0.42270  0.57800  0.18320  Biso   1.000  O
  Eu3      1.0000 0.20900  0.09130  0.24923  Biso   1.000  Eu
  O35      1.0000 0.20390  0.99490  0.31090  Biso   1.000  O
  O36      1.0000 0.14870  0.13970  0.30180  Biso   1.000  O
  O37      1.0000 0.22650  0.99660  0.17790  Biso   1.000  O
  O38      1.0000 0.21460  0.09600  0.13680  Biso   1.000  O
  O39      1.0000 0.32810  0.02150  0.31390  Biso   1.000  O
  O40      1.0000 0.32450  0.10770  0.25740  Biso   1.000  O
  O41      1.0000 0.29000  0.12870  0.37030  Biso   1.000  O
  O42      1.0000 0.26280  0.20990  0.30130  Biso   1.000  O
  O43      1.0000 0.10630  0.05170  0.16470  Biso   1.000  O
  C73      1.0000 0.16840  0.96400  0.33090  Biso   1.000  C
  C74      1.0000 0.10140  0.13700  0.31180  Biso   1.000  C
  N13      1.0000 0.22200  0.03400  0.13210  Biso   1.000  N
  N14      1.0000 0.35400  0.06370  0.29290  Biso   1.000  N
  N15      1.0000 0.29120  0.19180  0.35970  Biso   1.000  N
  C75      1.0000 0.20170  0.92930  0.39660  Biso   1.000  C
  O44      1.0000 0.10970  0.95690  0.30040  Biso   1.000  O
  C76      1.0000 0.08440  0.19460  0.34490  Biso   1.000  C
  O45      1.0000 0.05180  0.09830  0.27790  Biso   1.000  O
  O46      1.0000 0.22260  0.01130  0.08190  Biso   1.000  O
  O47      1.0000 0.41490  0.06200  0.31260  Biso   1.000  O
  O48      1.0000 0.31900  0.23050  0.40610  Biso   1.000  O
  O49      1.0000 0.01390  0.00560  0.15120  Biso   1.000  O
  C77      1.0000 0.16380  0.90060  0.42350  Biso   1.000  C
  C78      1.0000 0.26740  0.92450  0.42810  Biso   1.000  C
  C79      1.0000 0.12880  0.24520  0.37200  Biso   1.000  C
  C80      1.0000 0.02640  0.19790  0.34810  Biso   1.000  C
  H49      1.0000 0.11920  0.90320  0.40140  Biso   1.000  H
  C81      1.0000 0.19250  0.86830  0.48290  Biso   1.000  C
  C82      1.0000 0.29730  0.88910  0.48700  Biso   1.000  C
  H50      1.0000 0.29240  0.94500  0.41030  Biso   1.000  H
  O50      1.0000 0.00010  0.87280  0.20210  Biso   1.000  O
  H51      1.0000 0.16820  0.24330  0.37000  Biso   1.000  H
  C83      1.0000 0.11420  0.30030  0.40280  Biso   1.000  C
  C84      1.0000 0.01160  0.25120  0.37890  Biso   1.000  C
  H52      1.0000 0.99630  0.16390  0.32930  Biso   1.000  H
  H53      1.0000 0.16750  0.85090  0.50220  Biso   1.000  H
  C85      1.0000 0.25910  0.86190  0.51360  Biso   1.000  C
  H54      1.0000 0.34180  0.88410  0.50760  Biso   1.000  H
  H55      1.0000 0.14370  0.33470  0.42160  Biso   1.000  H
  C86      1.0000 0.05580  0.30140  0.40400  Biso   1.000  C
  H56      1.0000 0.97280  0.25250  0.38210  Biso   1.000  H
  N16      1.0000 0.28810  0.82510  0.57540  Biso   1.000  N
  N17      1.0000 0.03970  0.35940  0.43240  Biso   1.000  N
  C87      1.0000 0.25600  0.77450  0.58640  Biso   1.000  C
  C88      1.0000 0.34660  0.84260  0.62160  Biso   1.000  C
  C89      1.0000 0.07910  0.38130  0.49370  Biso   1.000  C
  C90      1.0000 0.98270  0.38950  0.40080  Biso   1.000  C
  H57      1.0000 0.21670  0.76110  0.55320  Biso   1.000  H
  C91      1.0000 0.27970  0.74190  0.64560  Biso   1.000  C
  C92      1.0000 0.37350  0.80980  0.68060  Biso   1.000  C
  H58      1.0000 0.36910  0.87720  0.61340  Biso   1.000  H
  H59      1.0000 0.11720  0.35820  0.51810  Biso   1.000  H
  C93      1.0000 0.06490  0.43510  0.52000  Biso   1.000  C
  C94      1.0000 0.96520  0.44400  0.42570  Biso   1.000  C
  H60      1.0000 0.95390  0.37280  0.36030  Biso   1.000  H
  H61      1.0000 0.25590  0.70790  0.65280  Biso   1.000  H
  C95      1.0000 0.33890  0.75970  0.69430  Biso   1.000  C
  H62      1.0000 0.41470  0.82100  0.71150  Biso   1.000  H
  H63      1.0000 0.09320  0.44880  0.56190  Biso   1.000  H
  C96      1.0000 0.00930  0.47050  0.48610  Biso   1.000  C
  H64      1.0000 0.92470  0.46320  0.40320  Biso   1.000  H
  C97      1.0000 0.36650  0.72560  0.76030  Biso   1.000  C
  C98      1.0000 0.34700  0.66210  0.76680  Biso   1.000  C
  C99      1.0000 0.41300  0.75660  0.81450  Biso   1.000  C
  H65      1.0000 0.31440  0.64090  0.73130  Biso   1.000  H
  C100     1.0000 0.37630  0.62980  0.82660  Biso   1.000  C
  C101     1.0000 0.43920  0.72410  0.87330  Biso   1.000  C
  H66      1.0000 0.42650  0.79980  0.81100  Biso   1.000  H
  H67      1.0000 0.36440  0.58610  0.83070  Biso   1.000  H
  N18      1.0000 0.42140  0.66050  0.87820  Biso   1.000  N
  H68      1.0000 0.46940  0.74570  0.91020  Biso   1.000  H
  C102     1.0000 0.45350  0.62680  0.94180  Biso   1.000  C
  C103     1.0000 0.41680  0.59280  0.96650  Biso   1.000  C
  C104     1.0000 0.51910  0.62940  0.97410  Biso   1.000  C
  H69      1.0000 0.37240  0.58960  0.94260  Biso   1.000  H
  C105     1.0000 0.44810  0.56350  0.02830  Biso   1.000  C
  C106     1.0000 0.54930  0.60060  0.03540  Biso   1.000  C
  H70      1.0000 0.54300  0.65010  0.95530  Biso   1.000  H
  H71      1.0000 0.42420  0.54070  0.04600  Biso   1.000  H
  C107     1.0000 0.51430  0.56810  0.06350  Biso   1.000  C
  H72      1.0000 0.59390  0.60300  0.05830  Biso   1.000  H
  C108     1.0000 0.54740  0.53990  0.13150  Biso   1.000  C
  O51      1.0000 0.07730  0.07800  0.31680  Biso   1.000  O
  Eu4      1.0000 0.70900  0.59130  0.24923  Biso   1.000  Eu
  O52      1.0000 0.70390  0.49490  0.31090  Biso   1.000  O
  O53      1.0000 0.64870  0.63970  0.30180  Biso   1.000  O
  O54      1.0000 0.72650  0.49660  0.17790  Biso   1.000  O
  O55      1.0000 0.71460  0.59600  0.13680  Biso   1.000  O
  O56      1.0000 0.82810  0.52150  0.31390  Biso   1.000  O
  O57      1.0000 0.82450  0.60770  0.25740  Biso   1.000  O
  O58      1.0000 0.79000  0.62870  0.37030  Biso   1.000  O
  O59      1.0000 0.76280  0.70990  0.30130  Biso   1.000  O
  O60      1.0000 0.60630  0.55170  0.16470  Biso   1.000  O
  C109     1.0000 0.66840  0.46400  0.33090  Biso   1.000  C
  C110     1.0000 0.60140  0.63700  0.31180  Biso   1.000  C
  N19      1.0000 0.72200  0.53400  0.13210  Biso   1.000  N
  N20      1.0000 0.85400  0.56370  0.29290  Biso   1.000  N
  N21      1.0000 0.79120  0.69180  0.35970  Biso   1.000  N
  C111     1.0000 0.70170  0.42930  0.39660  Biso   1.000  C
  O61      1.0000 0.60970  0.45690  0.30040  Biso   1.000  O
  C112     1.0000 0.58440  0.69460  0.34490  Biso   1.000  C
  O62      1.0000 0.55180  0.59830  0.27790  Biso   1.000  O
  O63      1.0000 0.72260  0.51130  0.08190  Biso   1.000  O
  O64      1.0000 0.91490  0.56200  0.31260  Biso   1.000  O
  O65      1.0000 0.81900  0.73050  0.40610  Biso   1.000  O
  O66      1.0000 0.51390  0.50560  0.15120  Biso   1.000  O
  C113     1.0000 0.66380  0.40060  0.42350  Biso   1.000  C
  C114     1.0000 0.76740  0.42450  0.42810  Biso   1.000  C
  C115     1.0000 0.62880  0.74520  0.37200  Biso   1.000  C
  C116     1.0000 0.52640  0.69790  0.34810  Biso   1.000  C
  H73      1.0000 0.61920  0.40320  0.40140  Biso   1.000  H
  C117     1.0000 0.69250  0.36830  0.48290  Biso   1.000  C
  C118     1.0000 0.79730  0.38910  0.48700  Biso   1.000  C
  H74      1.0000 0.79240  0.44500  0.41030  Biso   1.000  H
  O67      1.0000 0.50010  0.37280  0.20210  Biso   1.000  O
  H75      1.0000 0.66820  0.74330  0.37000  Biso   1.000  H
  C119     1.0000 0.61420  0.80030  0.40280  Biso   1.000  C
  C120     1.0000 0.51160  0.75120  0.37890  Biso   1.000  C
  H76      1.0000 0.49630  0.66390  0.32930  Biso   1.000  H
  H77      1.0000 0.66750  0.35090  0.50220  Biso   1.000  H
  C121     1.0000 0.75910  0.36190  0.51360  Biso   1.000  C
  H78      1.0000 0.84180  0.38410  0.50760  Biso   1.000  H
  H79      1.0000 0.64370  0.83470  0.42160  Biso   1.000  H
  C122     1.0000 0.55580  0.80140  0.40400  Biso   1.000  C
  H80      1.0000 0.47280  0.75250  0.38210  Biso   1.000  H
  N22      1.0000 0.78810  0.32510  0.57540  Biso   1.000  N
  N23      1.0000 0.53970  0.85940  0.43240  Biso   1.000  N
  C123     1.0000 0.75600  0.27450  0.58640  Biso   1.000  C
  C124     1.0000 0.84660  0.34260  0.62160  Biso   1.000  C
  C125     1.0000 0.57910  0.88130  0.49370  Biso   1.000  C
  C126     1.0000 0.48270  0.88950  0.40080  Biso   1.000  C
  H81      1.0000 0.71670  0.26110  0.55320  Biso   1.000  H
  C127     1.0000 0.77970  0.24190  0.64560  Biso   1.000  C
  C128     1.0000 0.87350  0.30980  0.68060  Biso   1.000  C
  H82      1.0000 0.86910  0.37720  0.61340  Biso   1.000  H
  H83      1.0000 0.61720  0.85820  0.51810  Biso   1.000  H
  C129     1.0000 0.56490  0.93510  0.52000  Biso   1.000  C
  C130     1.0000 0.46520  0.94400  0.42570  Biso   1.000  C
  H84      1.0000 0.45390  0.87280  0.36030  Biso   1.000  H
  H85      1.0000 0.75590  0.20790  0.65280  Biso   1.000  H
  C131     1.0000 0.83890  0.25970  0.69430  Biso   1.000  C
  H86      1.0000 0.91470  0.32100  0.71150  Biso   1.000  H
  H87      1.0000 0.59320  0.94880  0.56190  Biso   1.000  H
  C132     1.0000 0.50930  0.97050  0.48610  Biso   1.000  C
  H88      1.0000 0.42470  0.96320  0.40320  Biso   1.000  H
  C133     1.0000 0.86650  0.22560  0.76030  Biso   1.000  C
  C134     1.0000 0.84700  0.16210  0.76680  Biso   1.000  C
  C135     1.0000 0.91300  0.25660  0.81450  Biso   1.000  C
  H89      1.0000 0.81440  0.14090  0.73130  Biso   1.000  H
  C136     1.0000 0.87630  0.12980  0.82660  Biso   1.000  C
  C137     1.0000 0.93920  0.22410  0.87330  Biso   1.000  C
  H90      1.0000 0.92650  0.29980  0.81100  Biso   1.000  H
  H91      1.0000 0.86440  0.08610  0.83070  Biso   1.000  H
  N24      1.0000 0.92140  0.16050  0.87820  Biso   1.000  N
  H92      1.0000 0.96940  0.24570  0.91020  Biso   1.000  H
  C138     1.0000 0.95350  0.12680  0.94180  Biso   1.000  C
  C139     1.0000 0.91680  0.09280  0.96650  Biso   1.000  C
  C140     1.0000 0.01910  0.12940  0.97410  Biso   1.000  C
  H93      1.0000 0.87240  0.08960  0.94260  Biso   1.000  H
  C141     1.0000 0.94810  0.06350  0.02830  Biso   1.000  C
  C142     1.0000 0.04930  0.10060  0.03540  Biso   1.000  C
  H94      1.0000 0.04300  0.15010  0.95530  Biso   1.000  H
  H95      1.0000 0.92420  0.04070  0.04600  Biso   1.000  H
  C143     1.0000 0.01430  0.06810  0.06350  Biso   1.000  C
  H96      1.0000 0.09390  0.10300  0.05830  Biso   1.000  H
  C144     1.0000 0.04740  0.03990  0.13150  Biso   1.000  C
  O68      1.0000 0.57730  0.57800  0.31680  Biso   1.000  O
  Eu5      1.0000 0.20900  0.90870  0.74923  Biso   1.000  Eu
  O69      1.0000 0.20390  0.00510  0.81090  Biso   1.000  O
  O70      1.0000 0.14870  0.86030  0.80180  Biso   1.000  O
  O71      1.0000 0.22650  0.00340  0.67790  Biso   1.000  O
  O72      1.0000 0.21460  0.90400  0.63680  Biso   1.000  O
  O73      1.0000 0.32810  0.97850  0.81390  Biso   1.000  O
  O74      1.0000 0.32450  0.89230  0.75740  Biso   1.000  O
  O75      1.0000 0.29000  0.87130  0.87030  Biso   1.000  O
  O76      1.0000 0.26280  0.79010  0.80130  Biso   1.000  O
  O77      1.0000 0.10630  0.94830  0.66470  Biso   1.000  O
  C145     1.0000 0.16840  0.03600  0.83090  Biso   1.000  C
  C146     1.0000 0.10140  0.86300  0.81180  Biso   1.000  C
  N25      1.0000 0.22200  0.96600  0.63210  Biso   1.000  N
  N26      1.0000 0.35400  0.93630  0.79290  Biso   1.000  N
  N27      1.0000 0.29120  0.80820  0.85970  Biso   1.000  N
  C147     1.0000 0.20170  0.07070  0.89660  Biso   1.000  C
  O78      1.0000 0.10970  0.04310  0.80040  Biso   1.000  O
  C148     1.0000 0.08440  0.80540  0.84490  Biso   1.000  C
  O79      1.0000 0.05180  0.90170  0.77790  Biso   1.000  O
  O80      1.0000 0.22260  0.98870  0.58190  Biso   1.000  O
  O81      1.0000 0.41490  0.93800  0.81260  Biso   1.000  O
  O82      1.0000 0.31900  0.76950  0.90610  Biso   1.000  O
  O83      1.0000 0.01390  0.99440  0.65120  Biso   1.000  O
  C149     1.0000 0.16380  0.09940  0.92350  Biso   1.000  C
  C150     1.0000 0.26740  0.07550  0.92810  Biso   1.000  C
  C151     1.0000 0.12880  0.75480  0.87200  Biso   1.000  C
  C152     1.0000 0.02640  0.80210  0.84810  Biso   1.000  C
  H97      1.0000 0.11920  0.09680  0.90140  Biso   1.000  H
  C153     1.0000 0.19250  0.13170  0.98290  Biso   1.000  C
  C154     1.0000 0.29730  0.11090  0.98700  Biso   1.000  C
  H98      1.0000 0.29240  0.05500  0.91030  Biso   1.000  H
  O84      1.0000 0.00010  0.12720  0.70210  Biso   1.000  O
  H99      1.0000 0.16820  0.75670  0.87000  Biso   1.000  H
  C155     1.0000 0.11420  0.69970  0.90280  Biso   1.000  C
  C156     1.0000 0.01160  0.74880  0.87890  Biso   1.000  C
  H100     1.0000 0.99630  0.83610  0.82930  Biso   1.000  H
  H101     1.0000 0.16750  0.14910  0.00220  Biso   1.000  H
  C157     1.0000 0.25910  0.13810  0.01360  Biso   1.000  C
  H102     1.0000 0.34180  0.11590  0.00760  Biso   1.000  H
  H103     1.0000 0.14370  0.66530  0.92160  Biso   1.000  H
  C158     1.0000 0.05580  0.69860  0.90400  Biso   1.000  C
  H104     1.0000 0.97280  0.74750  0.88210  Biso   1.000  H
  N28      1.0000 0.28810  0.17490  0.07540  Biso   1.000  N
  N29      1.0000 0.03970  0.64060  0.93240  Biso   1.000  N
  C159     1.0000 0.25600  0.22550  0.08640  Biso   1.000  C
  C160     1.0000 0.34660  0.15740  0.12160  Biso   1.000  C
  C161     1.0000 0.07910  0.61870  0.99370  Biso   1.000  C
  C162     1.0000 0.98270  0.61050  0.90080  Biso   1.000  C
  H105     1.0000 0.21670  0.23890  0.05320  Biso   1.000  H
  C163     1.0000 0.27970  0.25810  0.14560  Biso   1.000  C
  C164     1.0000 0.37350  0.19020  0.18060  Biso   1.000  C
  H106     1.0000 0.36910  0.12280  0.11340  Biso   1.000  H
  H107     1.0000 0.11720  0.64180  0.01810  Biso   1.000  H
  C165     1.0000 0.06490  0.56490  0.02000  Biso   1.000  C
  C166     1.0000 0.96520  0.55600  0.92570  Biso   1.000  C
  H108     1.0000 0.95390  0.62720  0.86030  Biso   1.000  H
  H109     1.0000 0.25590  0.29210  0.15280  Biso   1.000  H
  C167     1.0000 0.33890  0.24030  0.19430  Biso   1.000  C
  H110     1.0000 0.41470  0.17900  0.21150  Biso   1.000  H
  H111     1.0000 0.09320  0.55120  0.06190  Biso   1.000  H
  C168     1.0000 0.00930  0.52950  0.98610  Biso   1.000  C
  H112     1.0000 0.92470  0.53680  0.90320  Biso   1.000  H
  C169     1.0000 0.36650  0.27440  0.26030  Biso   1.000  C
  C170     1.0000 0.34700  0.33790  0.26680  Biso   1.000  C
  C171     1.0000 0.41300  0.24340  0.31450  Biso   1.000  C
  H113     1.0000 0.31440  0.35910  0.23130  Biso   1.000  H
  C172     1.0000 0.37630  0.37020  0.32660  Biso   1.000  C
  C173     1.0000 0.43920  0.27590  0.37330  Biso   1.000  C
  H114     1.0000 0.42650  0.20020  0.31100  Biso   1.000  H
  H115     1.0000 0.36440  0.41390  0.33070  Biso   1.000  H
  N30      1.0000 0.42140  0.33950  0.37820  Biso   1.000  N
  H116     1.0000 0.46940  0.25430  0.41020  Biso   1.000  H
  C174     1.0000 0.45350  0.37320  0.44180  Biso   1.000  C
  C175     1.0000 0.41680  0.40720  0.46650  Biso   1.000  C
  C176     1.0000 0.51910  0.37060  0.47410  Biso   1.000  C
  H117     1.0000 0.37240  0.41040  0.44260  Biso   1.000  H
  C177     1.0000 0.44810  0.43650  0.52830  Biso   1.000  C
  C178     1.0000 0.54930  0.39940  0.53540  Biso   1.000  C
  H118     1.0000 0.54300  0.34990  0.45530  Biso   1.000  H
  H119     1.0000 0.42420  0.45930  0.54600  Biso   1.000  H
  C179     1.0000 0.51430  0.43190  0.56350  Biso   1.000  C
  H120     1.0000 0.59390  0.39700  0.55830  Biso   1.000  H
  C180     1.0000 0.54740  0.46010  0.63150  Biso   1.000  C
  O85      1.0000 0.07730  0.92200  0.81680  Biso   1.000  O
  Eu6      1.0000 0.70900  0.40870  0.74923  Biso   1.000  Eu
  O86      1.0000 0.70390  0.50510  0.81090  Biso   1.000  O
  O87      1.0000 0.64870  0.36030  0.80180  Biso   1.000  O
  O88      1.0000 0.72650  0.50340  0.67790  Biso   1.000  O
  O89      1.0000 0.71460  0.40400  0.63680  Biso   1.000  O
  O90      1.0000 0.82810  0.47850  0.81390  Biso   1.000  O
  O91      1.0000 0.82450  0.39230  0.75740  Biso   1.000  O
  O92      1.0000 0.79000  0.37130  0.87030  Biso   1.000  O
  O93      1.0000 0.76280  0.29010  0.80130  Biso   1.000  O
  O94      1.0000 0.60630  0.44830  0.66470  Biso   1.000  O
  C181     1.0000 0.66840  0.53600  0.83090  Biso   1.000  C
  C182     1.0000 0.60140  0.36300  0.81180  Biso   1.000  C
  N31      1.0000 0.72200  0.46600  0.63210  Biso   1.000  N
  N32      1.0000 0.85400  0.43630  0.79290  Biso   1.000  N
  N33      1.0000 0.79120  0.30820  0.85970  Biso   1.000  N
  C183     1.0000 0.70170  0.57070  0.89660  Biso   1.000  C
  O95      1.0000 0.60970  0.54310  0.80040  Biso   1.000  O
  C184     1.0000 0.58440  0.30540  0.84490  Biso   1.000  C
  O96      1.0000 0.55180  0.40170  0.77790  Biso   1.000  O
  O97      1.0000 0.72260  0.48870  0.58190  Biso   1.000  O
  O98      1.0000 0.91490  0.43800  0.81260  Biso   1.000  O
  O99      1.0000 0.81900  0.26950  0.90610  Biso   1.000  O
  O100     1.0000 0.51390  0.49440  0.65120  Biso   1.000  O
  C185     1.0000 0.66380  0.59940  0.92350  Biso   1.000  C
  C186     1.0000 0.76740  0.57550  0.92810  Biso   1.000  C
  C187     1.0000 0.62880  0.25480  0.87200  Biso   1.000  C
  C188     1.0000 0.52640  0.30210  0.84810  Biso   1.000  C
  H121     1.0000 0.61920  0.59680  0.90140  Biso   1.000  H
  C189     1.0000 0.69250  0.63170  0.98290  Biso   1.000  C
  C190     1.0000 0.79730  0.61090  0.98700  Biso   1.000  C
  H122     1.0000 0.79240  0.55500  0.91030  Biso   1.000  H
  O101     1.0000 0.50010  0.62720  0.70210  Biso   1.000  O
  H123     1.0000 0.66820  0.25670  0.87000  Biso   1.000  H
  C191     1.0000 0.61420  0.19970  0.90280  Biso   1.000  C
  C192     1.0000 0.51160  0.24880  0.87890  Biso   1.000  C
  H124     1.0000 0.49630  0.33610  0.82930  Biso   1.000  H
  H125     1.0000 0.66750  0.64910  0.00220  Biso   1.000  H
  C193     1.0000 0.75910  0.63810  0.01360  Biso   1.000  C
  H126     1.0000 0.84180  0.61590  0.00760  Biso   1.000  H
  H127     1.0000 0.64370  0.16530  0.92160  Biso   1.000  H
  C194     1.0000 0.55580  0.19860  0.90400  Biso   1.000  C
  H128     1.0000 0.47280  0.24750  0.88210  Biso   1.000  H
  N34      1.0000 0.78810  0.67490  0.07540  Biso   1.000  N
  N35      1.0000 0.53970  0.14060  0.93240  Biso   1.000  N
  C195     1.0000 0.75600  0.72550  0.08640  Biso   1.000  C
  C196     1.0000 0.84660  0.65740  0.12160  Biso   1.000  C
  C197     1.0000 0.57910  0.11870  0.99370  Biso   1.000  C
  C198     1.0000 0.48270  0.11050  0.90080  Biso   1.000  C
  H129     1.0000 0.71670  0.73890  0.05320  Biso   1.000  H
  C199     1.0000 0.77970  0.75810  0.14560  Biso   1.000  C
  C200     1.0000 0.87350  0.69020  0.18060  Biso   1.000  C
  H130     1.0000 0.86910  0.62280  0.11340  Biso   1.000  H
  H131     1.0000 0.61720  0.14180  0.01810  Biso   1.000  H
  C201     1.0000 0.56490  0.06490  0.02000  Biso   1.000  C
  C202     1.0000 0.46520  0.05600  0.92570  Biso   1.000  C
  H132     1.0000 0.45390  0.12720  0.86030  Biso   1.000  H
  H133     1.0000 0.75590  0.79210  0.15280  Biso   1.000  H
  C203     1.0000 0.83890  0.74030  0.19430  Biso   1.000  C
  H134     1.0000 0.91470  0.67900  0.21150  Biso   1.000  H
  H135     1.0000 0.59320  0.05120  0.06190  Biso   1.000  H
  C204     1.0000 0.50930  0.02950  0.98610  Biso   1.000  C
  H136     1.0000 0.42470  0.03680  0.90320  Biso   1.000  H
  C205     1.0000 0.86650  0.77440  0.26030  Biso   1.000  C
  C206     1.0000 0.84700  0.83790  0.26680  Biso   1.000  C
  C207     1.0000 0.91300  0.74340  0.31450  Biso   1.000  C
  H137     1.0000 0.81440  0.85910  0.23130  Biso   1.000  H
  C208     1.0000 0.87630  0.87020  0.32660  Biso   1.000  C
  C209     1.0000 0.93920  0.77590  0.37330  Biso   1.000  C
  H138     1.0000 0.92650  0.70020  0.31100  Biso   1.000  H
  H139     1.0000 0.86440  0.91390  0.33070  Biso   1.000  H
  N36      1.0000 0.92140  0.83950  0.37820  Biso   1.000  N
  H140     1.0000 0.96940  0.75430  0.41020  Biso   1.000  H
  C210     1.0000 0.95350  0.87320  0.44180  Biso   1.000  C
  C211     1.0000 0.91680  0.90720  0.46650  Biso   1.000  C
  C212     1.0000 0.01910  0.87060  0.47410  Biso   1.000  C
  H141     1.0000 0.87240  0.91040  0.44260  Biso   1.000  H
  C213     1.0000 0.94810  0.93650  0.52830  Biso   1.000  C
  C214     1.0000 0.04930  0.89940  0.53540  Biso   1.000  C
  H142     1.0000 0.04300  0.84990  0.45530  Biso   1.000  H
  H143     1.0000 0.92420  0.95930  0.54600  Biso   1.000  H
  C215     1.0000 0.01430  0.93190  0.56350  Biso   1.000  C
  H144     1.0000 0.09390  0.89700  0.55830  Biso   1.000  H
  C216     1.0000 0.04740  0.96010  0.63150  Biso   1.000  C
  O102     1.0000 0.57730  0.42200  0.81680  Biso   1.000  O
  Eu7      1.0000 0.79100  0.90870  0.75077  Biso   1.000  Eu
  O103     1.0000 0.79610  0.00510  0.68910  Biso   1.000  O
  O104     1.0000 0.85130  0.86030  0.69820  Biso   1.000  O
  O105     1.0000 0.77350  0.00340  0.82210  Biso   1.000  O
  O106     1.0000 0.78540  0.90400  0.86320  Biso   1.000  O
  O107     1.0000 0.67190  0.97850  0.68610  Biso   1.000  O
  O108     1.0000 0.67550  0.89230  0.74260  Biso   1.000  O
  O109     1.0000 0.71000  0.87130  0.62970  Biso   1.000  O
  O110     1.0000 0.73720  0.79010  0.69870  Biso   1.000  O
  O111     1.0000 0.89370  0.94830  0.83530  Biso   1.000  O
  C217     1.0000 0.83160  0.03600  0.66910  Biso   1.000  C
  C218     1.0000 0.89860  0.86300  0.68820  Biso   1.000  C
  N37      1.0000 0.77800  0.96600  0.86790  Biso   1.000  N
  N38      1.0000 0.64600  0.93630  0.70710  Biso   1.000  N
  N39      1.0000 0.70880  0.80820  0.64030  Biso   1.000  N
  C219     1.0000 0.79830  0.07070  0.60340  Biso   1.000  C
  O112     1.0000 0.89030  0.04310  0.69960  Biso   1.000  O
  C220     1.0000 0.91560  0.80540  0.65510  Biso   1.000  C
  O113     1.0000 0.94820  0.90170  0.72210  Biso   1.000  O
  O114     1.0000 0.77740  0.98870  0.91810  Biso   1.000  O
  O115     1.0000 0.58510  0.93800  0.68740  Biso   1.000  O
  O116     1.0000 0.68100  0.76950  0.59390  Biso   1.000  O
  O117     1.0000 0.98610  0.99440  0.84880  Biso   1.000  O
  C221     1.0000 0.83620  0.09940  0.57650  Biso   1.000  C
  C222     1.0000 0.73260  0.07550  0.57190  Biso   1.000  C
  C223     1.0000 0.87120  0.75480  0.62800  Biso   1.000  C
  C224     1.0000 0.97360  0.80210  0.65190  Biso   1.000  C
  H145     1.0000 0.88080  0.09680  0.59860  Biso   1.000  H
  C225     1.0000 0.80750  0.13170  0.51710  Biso   1.000  C
  C226     1.0000 0.70270  0.11090  0.51300  Biso   1.000  C
  H146     1.0000 0.70760  0.05500  0.58970  Biso   1.000  H
  O118     1.0000 0.99990  0.12720  0.79790  Biso   1.000  O
  H147     1.0000 0.83180  0.75670  0.63000  Biso   1.000  H
  C227     1.0000 0.88580  0.69970  0.59720  Biso   1.000  C
  C228     1.0000 0.98840  0.74880  0.62110  Biso   1.000  C
  H148     1.0000 0.00370  0.83610  0.67070  Biso   1.000  H
  H149     1.0000 0.83250  0.14910  0.49780  Biso   1.000  H
  C229     1.0000 0.74090  0.13810  0.48640  Biso   1.000  C
  H150     1.0000 0.65820  0.11590  0.49240  Biso   1.000  H
  H151     1.0000 0.85630  0.66530  0.57840  Biso   1.000  H
  C230     1.0000 0.94420  0.69860  0.59600  Biso   1.000  C
  H152     1.0000 0.02720  0.74750  0.61790  Biso   1.000  H
  N40      1.0000 0.71190  0.17490  0.42460  Biso   1.000  N
  N41      1.0000 0.96030  0.64060  0.56760  Biso   1.000  N
  C231     1.0000 0.74400  0.22550  0.41360  Biso   1.000  C
  C232     1.0000 0.65340  0.15740  0.37840  Biso   1.000  C
  C233     1.0000 0.92090  0.61870  0.50630  Biso   1.000  C
  C234     1.0000 0.01730  0.61050  0.59920  Biso   1.000  C
  H153     1.0000 0.78330  0.23890  0.44680  Biso   1.000  H
  C235     1.0000 0.72030  0.25810  0.35440  Biso   1.000  C
  C236     1.0000 0.62650  0.19020  0.31940  Biso   1.000  C
  H154     1.0000 0.63090  0.12280  0.38660  Biso   1.000  H
  H155     1.0000 0.88280  0.64180  0.48190  Biso   1.000  H
  C237     1.0000 0.93510  0.56490  0.48000  Biso   1.000  C
  C238     1.0000 0.03480  0.55600  0.57430  Biso   1.000  C
  H156     1.0000 0.04610  0.62720  0.63970  Biso   1.000  H
  H157     1.0000 0.74410  0.29210  0.34720  Biso   1.000  H
  C239     1.0000 0.66110  0.24030  0.30570  Biso   1.000  C
  H158     1.0000 0.58530  0.17900  0.28850  Biso   1.000  H
  H159     1.0000 0.90680  0.55120  0.43810  Biso   1.000  H
  C240     1.0000 0.99070  0.52950  0.51390  Biso   1.000  C
  H160     1.0000 0.07530  0.53680  0.59680  Biso   1.000  H
  C241     1.0000 0.63350  0.27440  0.23970  Biso   1.000  C
  C242     1.0000 0.65300  0.33790  0.23320  Biso   1.000  C
  C243     1.0000 0.58700  0.24340  0.18550  Biso   1.000  C
  H161     1.0000 0.68560  0.35910  0.26870  Biso   1.000  H
  C244     1.0000 0.62370  0.37020  0.17340  Biso   1.000  C
  C245     1.0000 0.56080  0.27590  0.12670  Biso   1.000  C
  H162     1.0000 0.57350  0.20020  0.18900  Biso   1.000  H
  H163     1.0000 0.63560  0.41390  0.16930  Biso   1.000  H
  N42      1.0000 0.57860  0.33950  0.12180  Biso   1.000  N
  H164     1.0000 0.53060  0.25430  0.08980  Biso   1.000  H
  C246     1.0000 0.54650  0.37320  0.05820  Biso   1.000  C
  C247     1.0000 0.58320  0.40720  0.03350  Biso   1.000  C
  C248     1.0000 0.48090  0.37060  0.02590  Biso   1.000  C
  H165     1.0000 0.62760  0.41040  0.05740  Biso   1.000  H
  C249     1.0000 0.55190  0.43650  0.97170  Biso   1.000  C
  C250     1.0000 0.45070  0.39940  0.96460  Biso   1.000  C
  H166     1.0000 0.45700  0.34990  0.04470  Biso   1.000  H
  H167     1.0000 0.57580  0.45930  0.95400  Biso   1.000  H
  C251     1.0000 0.48570  0.43190  0.93650  Biso   1.000  C
  H168     1.0000 0.40610  0.39700  0.94170  Biso   1.000  H
  C252     1.0000 0.45260  0.46010  0.86850  Biso   1.000  C
  O119     1.0000 0.92270  0.92200  0.68320  Biso   1.000  O
  Eu8      1.0000 0.29100  0.40870  0.75077  Biso   1.000  Eu
  O120     1.0000 0.29610  0.50510  0.68910  Biso   1.000  O
  O121     1.0000 0.35130  0.36030  0.69820  Biso   1.000  O
  O122     1.0000 0.27350  0.50340  0.82210  Biso   1.000  O
  O123     1.0000 0.28540  0.40400  0.86320  Biso   1.000  O
  O124     1.0000 0.17190  0.47850  0.68610  Biso   1.000  O
  O125     1.0000 0.17550  0.39230  0.74260  Biso   1.000  O
  O126     1.0000 0.21000  0.37130  0.62970  Biso   1.000  O
  O127     1.0000 0.23720  0.29010  0.69870  Biso   1.000  O
  O128     1.0000 0.39370  0.44830  0.83530  Biso   1.000  O
  C253     1.0000 0.33160  0.53600  0.66910  Biso   1.000  C
  C254     1.0000 0.39860  0.36300  0.68820  Biso   1.000  C
  N43      1.0000 0.27800  0.46600  0.86790  Biso   1.000  N
  N44      1.0000 0.14600  0.43630  0.70710  Biso   1.000  N
  N45      1.0000 0.20880  0.30820  0.64030  Biso   1.000  N
  C255     1.0000 0.29830  0.57070  0.60340  Biso   1.000  C
  O129     1.0000 0.39030  0.54310  0.69960  Biso   1.000  O
  C256     1.0000 0.41560  0.30540  0.65510  Biso   1.000  C
  O130     1.0000 0.44820  0.40170  0.72210  Biso   1.000  O
  O131     1.0000 0.27740  0.48870  0.91810  Biso   1.000  O
  O132     1.0000 0.08510  0.43800  0.68740  Biso   1.000  O
  O133     1.0000 0.18100  0.26950  0.59390  Biso   1.000  O
  O134     1.0000 0.48610  0.49440  0.84880  Biso   1.000  O
  C257     1.0000 0.33620  0.59940  0.57650  Biso   1.000  C
  C258     1.0000 0.23260  0.57550  0.57190  Biso   1.000  C
  C259     1.0000 0.37120  0.25480  0.62800  Biso   1.000  C
  C260     1.0000 0.47360  0.30210  0.65190  Biso   1.000  C
  H169     1.0000 0.38080  0.59680  0.59860  Biso   1.000  H
  C261     1.0000 0.30750  0.63170  0.51710  Biso   1.000  C
  C262     1.0000 0.20270  0.61090  0.51300  Biso   1.000  C
  H170     1.0000 0.20760  0.55500  0.58970  Biso   1.000  H
  O135     1.0000 0.49990  0.62720  0.79790  Biso   1.000  O
  H171     1.0000 0.33180  0.25670  0.63000  Biso   1.000  H
  C263     1.0000 0.38580  0.19970  0.59720  Biso   1.000  C
  C264     1.0000 0.48840  0.24880  0.62110  Biso   1.000  C
  H172     1.0000 0.50370  0.33610  0.67070  Biso   1.000  H
  H173     1.0000 0.33250  0.64910  0.49780  Biso   1.000  H
  C265     1.0000 0.24090  0.63810  0.48640  Biso   1.000  C
  H174     1.0000 0.15820  0.61590  0.49240  Biso   1.000  H
  H175     1.0000 0.35630  0.16530  0.57840  Biso   1.000  H
  C266     1.0000 0.44420  0.19860  0.59600  Biso   1.000  C
  H176     1.0000 0.52720  0.24750  0.61790  Biso   1.000  H
  N46      1.0000 0.21190  0.67490  0.42460  Biso   1.000  N
  N47      1.0000 0.46030  0.14060  0.56760  Biso   1.000  N
  C267     1.0000 0.24400  0.72550  0.41360  Biso   1.000  C
  C268     1.0000 0.15340  0.65740  0.37840  Biso   1.000  C
  C269     1.0000 0.42090  0.11870  0.50630  Biso   1.000  C
  C270     1.0000 0.51730  0.11050  0.59920  Biso   1.000  C
  H177     1.0000 0.28330  0.73890  0.44680  Biso   1.000  H
  C271     1.0000 0.22030  0.75810  0.35440  Biso   1.000  C
  C272     1.0000 0.12650  0.69020  0.31940  Biso   1.000  C
  H178     1.0000 0.13090  0.62280  0.38660  Biso   1.000  H
  H179     1.0000 0.38280  0.14180  0.48190  Biso   1.000  H
  C273     1.0000 0.43510  0.06490  0.48000  Biso   1.000  C
  C274     1.0000 0.53480  0.05600  0.57430  Biso   1.000  C
  H180     1.0000 0.54610  0.12720  0.63970  Biso   1.000  H
  H181     1.0000 0.24410  0.79210  0.34720  Biso   1.000  H
  C275     1.0000 0.16110  0.74030  0.30570  Biso   1.000  C
  H182     1.0000 0.08530  0.67900  0.28850  Biso   1.000  H
  H183     1.0000 0.40680  0.05120  0.43810  Biso   1.000  H
  C276     1.0000 0.49070  0.02950  0.51390  Biso   1.000  C
  H184     1.0000 0.57530  0.03680  0.59680  Biso   1.000  H
  C277     1.0000 0.13350  0.77440  0.23970  Biso   1.000  C
  C278     1.0000 0.15300  0.83790  0.23320  Biso   1.000  C
  C279     1.0000 0.08700  0.74340  0.18550  Biso   1.000  C
  H185     1.0000 0.18560  0.85910  0.26870  Biso   1.000  H
  C280     1.0000 0.12370  0.87020  0.17340  Biso   1.000  C
  C281     1.0000 0.06080  0.77590  0.12670  Biso   1.000  C
  H186     1.0000 0.07350  0.70020  0.18900  Biso   1.000  H
  H187     1.0000 0.13560  0.91390  0.16930  Biso   1.000  H
  N48      1.0000 0.07860  0.83950  0.12180  Biso   1.000  N
  H188     1.0000 0.03060  0.75430  0.08980  Biso   1.000  H
  C282     1.0000 0.04650  0.87320  0.05820  Biso   1.000  C
  C283     1.0000 0.08320  0.90720  0.03350  Biso   1.000  C
  C284     1.0000 0.98090  0.87060  0.02590  Biso   1.000  C
  H189     1.0000 0.12760  0.91040  0.05740  Biso   1.000  H
  C285     1.0000 0.05190  0.93650  0.97170  Biso   1.000  C
  C286     1.0000 0.95070  0.89940  0.96460  Biso   1.000  C
  H190     1.0000 0.95700  0.84990  0.04470  Biso   1.000  H
  H191     1.0000 0.07580  0.95930  0.95400  Biso   1.000  H
  C287     1.0000 0.98570  0.93190  0.93650  Biso   1.000  C
  H192     1.0000 0.90610  0.89700  0.94170  Biso   1.000  H
  C288     1.0000 0.95260  0.96010  0.86850  Biso   1.000  C
  O136     1.0000 0.42270  0.42200  0.68320  Biso   1.000  O
  Eu9      1.0000 0.00000  0.99227  0.25000  Biso   1.000  Eu
  N49      1.0000 0.00000  0.84110  0.25000  Biso   1.000  N
  O137     1.0000 0.00000  0.77760  0.25000  Biso   1.000  O
  Eu10     1.0000 0.50000  0.49227  0.25000  Biso   1.000  Eu
  N50      1.0000 0.50000  0.34110  0.25000  Biso   1.000  N
  O138     1.0000 0.50000  0.27760  0.25000  Biso   1.000  O
  Eu11     1.0000 0.00000  0.00773  0.75000  Biso   1.000  Eu
  N51      1.0000 0.00000  0.15890  0.75000  Biso   1.000  N
  O139     1.0000 0.00000  0.22240  0.75000  Biso   1.000  O
  Eu12     1.0000 0.50000  0.50773  0.75000  Biso   1.000  Eu
  N52      1.0000 0.50000  0.65890  0.75000  Biso   1.000  N
  O140     1.0000 0.50000  0.72240  0.75000  Biso   1.000  O
