data_image0
_cell_length_a       25.3688
_cell_length_b       25.3688
_cell_length_c       25.3688
_cell_angle_alpha    90
_cell_angle_beta     90
_cell_angle_gamma    90

_symmetry_space_group_name_H-M    "P 1"
_symmetry_int_tables_number       1

loop_
  _symmetry_equiv_pos_as_xyz
  'x, y, z'

loop_
  _atom_site_label
  _atom_site_occupancy
  _atom_site_fract_x
  _atom_site_fract_y
  _atom_site_fract_z
  _atom_site_thermal_displace_type
  _atom_site_B_iso_or_equiv
  _atom_site_type_symbol
  C1       1.0000 0.31150  0.53580  0.92310  Biso   1.000  C
  H1       1.0000 0.33010  0.54440  0.89170  Biso   1.000  H
  C2       1.0000 0.25740  0.54290  0.92530  Biso   1.000  C
  H2       1.0000 0.23920  0.55850  0.89660  Biso   1.000  H
  C3       1.0000 0.39730  0.51080  0.96340  Biso   1.000  C
  C4       1.0000 0.33860  0.51620  0.96660  Biso   1.000  C
  C5       1.0000 0.30910  0.49950  0.01000  Biso   1.000  C
  H3       1.0000 0.32750  0.48400  0.03870  Biso   1.000  H
  C6       1.0000 0.25410  0.50420  0.01390  Biso   1.000  C
  H4       1.0000 0.23480  0.49280  0.04390  Biso   1.000  H
  C7       1.0000 0.23020  0.52700  0.96990  Biso   1.000  C
  C8       1.0000 0.17110  0.53380  0.97130  Biso   1.000  C
  C9       1.0000 0.54800  0.42890  0.74060  Biso   1.000  C
  H5       1.0000 0.57370  0.40620  0.75570  Biso   1.000  H
  C10      1.0000 0.53950  0.42670  0.68580  Biso   1.000  C
  H6       1.0000 0.56120  0.40620  0.66320  Biso   1.000  H
  C11      1.0000 0.53010  0.46920  0.83290  Biso   1.000  C
  C12      1.0000 0.51850  0.46520  0.77600  Biso   1.000  C
  C13      1.0000 0.47880  0.49310  0.75160  Biso   1.000  C
  H7       1.0000 0.45820  0.51590  0.77300  Biso   1.000  H
  C14      1.0000 0.46650  0.49070  0.69890  Biso   1.000  C
  H8       1.0000 0.43860  0.51130  0.68470  Biso   1.000  H
  C15      1.0000 0.49680  0.45670  0.66640  Biso   1.000  C
  C16      1.0000 0.48780  0.45030  0.60820  Biso   1.000  C
  O1       1.0000 0.14940  0.56270  0.93200  Biso   1.000  O
  O2       1.0000 0.42220  0.53680  0.93040  Biso   1.000  O
  O3       1.0000 0.41750  0.48090  0.00080  Biso   1.000  O
  O4       1.0000 0.14830  0.51100  0.01000  Biso   1.000  O
  O5       1.0000 0.55840  0.43430  0.85160  Biso   1.000  O
  O6       1.0000 0.51180  0.50970  0.85490  Biso   1.000  O
  O7       1.0000 0.51670  0.42220  0.57930  Biso   1.000  O
  O8       1.0000 0.44780  0.47550  0.59010  Biso   1.000  O
  Zn1      1.0000 0.47656  0.42563  0.00148  Biso   1.000  Zn
  Zn2      1.0000 0.52292  0.42609  0.50280  Biso   1.000  Zn
  C17      1.0000 0.39150  0.48340  0.95840  Biso   1.000  C
  C18      1.0000 0.33500  0.49540  0.95410  Biso   1.000  C
  C19      1.0000 0.29850  0.45740  0.96770  Biso   1.000  C
  H9       1.0000 0.31150  0.42380  0.97800  Biso   1.000  H
  C20      1.0000 0.24500  0.46420  0.96770  Biso   1.000  C
  H10      1.0000 0.22120  0.43730  0.97830  Biso   1.000  H
  C21      1.0000 0.22820  0.51310  0.95100  Biso   1.000  C
  C22      1.0000 0.17070  0.52140  0.94920  Biso   1.000  C
  H11      1.0000 0.57150  0.40400  0.75560  Biso   1.000  H
  H12      1.0000 0.55520  0.40030  0.66430  Biso   1.000  H
  C23      1.0000 0.52420  0.46510  0.77440  Biso   1.000  C
  C24      1.0000 0.49040  0.50220  0.75170  Biso   1.000  C
  H13      1.0000 0.47270  0.52690  0.77370  Biso   1.000  H
  C25      1.0000 0.48210  0.50380  0.69740  Biso   1.000  C
  H14      1.0000 0.46030  0.53040  0.68260  Biso   1.000  H
  C26      1.0000 0.50610  0.46620  0.66450  Biso   1.000  C
  C27      1.0000 0.49130  0.47300  0.60730  Biso   1.000  C
  O9       1.0000 0.41980  0.51610  0.93630  Biso   1.000  O
  O10      1.0000 0.40420  0.44010  0.98360  Biso   1.000  O
  O11      1.0000 0.14020  0.48920  0.97080  Biso   1.000  O
  O12      1.0000 0.52120  0.44700  0.57690  Biso   1.000  O
  O13      1.0000 0.45390  0.50130  0.59310  Biso   1.000  O
  C28      1.0000 0.31570  0.54460  0.94040  Biso   1.000  C
  H15      1.0000 0.33970  0.57260  0.93380  Biso   1.000  H
  C29      1.0000 0.26210  0.55360  0.93630  Biso   1.000  C
  H16      1.0000 0.24890  0.58630  0.92390  Biso   1.000  H
  C30      1.0000 0.18850  0.46420  0.42310  Biso   1.000  C
  H17      1.0000 0.16990  0.45560  0.39170  Biso   1.000  H
  C31      1.0000 0.24260  0.45710  0.42530  Biso   1.000  C
  H18      1.0000 0.26080  0.44150  0.39660  Biso   1.000  H
  C32      1.0000 0.10270  0.48920  0.46340  Biso   1.000  C
  C33      1.0000 0.16140  0.48380  0.46660  Biso   1.000  C
  C34      1.0000 0.19090  0.50050  0.51000  Biso   1.000  C
  H19      1.0000 0.17250  0.51600  0.53870  Biso   1.000  H
  C35      1.0000 0.24590  0.49580  0.51390  Biso   1.000  C
  H20      1.0000 0.26520  0.50720  0.54390  Biso   1.000  H
  C36      1.0000 0.26980  0.47300  0.46990  Biso   1.000  C
  C37      1.0000 0.32890  0.46620  0.47130  Biso   1.000  C
  C38      1.0000 0.95200  0.57110  0.24060  Biso   1.000  C
  H21      1.0000 0.92630  0.59380  0.25570  Biso   1.000  H
  C39      1.0000 0.96050  0.57330  0.18580  Biso   1.000  C
  H22      1.0000 0.93880  0.59380  0.16320  Biso   1.000  H
  C40      1.0000 0.96990  0.53080  0.33290  Biso   1.000  C
  C41      1.0000 0.98150  0.53480  0.27600  Biso   1.000  C
  C42      1.0000 0.02120  0.50690  0.25160  Biso   1.000  C
  H23      1.0000 0.04180  0.48410  0.27300  Biso   1.000  H
  C43      1.0000 0.03350  0.50930  0.19890  Biso   1.000  C
  H24      1.0000 0.06140  0.48870  0.18470  Biso   1.000  H
  C44      1.0000 0.00320  0.54330  0.16640  Biso   1.000  C
  C45      1.0000 0.01220  0.54970  0.10820  Biso   1.000  C
  O14      1.0000 0.35060  0.43730  0.43200  Biso   1.000  O
  O15      1.0000 0.07780  0.46320  0.43040  Biso   1.000  O
  O16      1.0000 0.08250  0.51910  0.50080  Biso   1.000  O
  O17      1.0000 0.35170  0.48900  0.51000  Biso   1.000  O
  O18      1.0000 0.94160  0.56570  0.35160  Biso   1.000  O
  O19      1.0000 0.98820  0.49030  0.35490  Biso   1.000  O
  O20      1.0000 0.98330  0.57780  0.07930  Biso   1.000  O
  O21      1.0000 0.05220  0.52450  0.09010  Biso   1.000  O
  Zn3      1.0000 0.02344  0.57437  0.50148  Biso   1.000  Zn
  Zn4      1.0000 0.97708  0.57391  0.00280  Biso   1.000  Zn
  C46      1.0000 0.10850  0.51660  0.45840  Biso   1.000  C
  C47      1.0000 0.16500  0.50460  0.45410  Biso   1.000  C
  C48      1.0000 0.20150  0.54260  0.46770  Biso   1.000  C
  H25      1.0000 0.18850  0.57620  0.47800  Biso   1.000  H
  C49      1.0000 0.25500  0.53580  0.46770  Biso   1.000  C
  H26      1.0000 0.27880  0.56270  0.47830  Biso   1.000  H
  C50      1.0000 0.27180  0.48690  0.45100  Biso   1.000  C
  C51      1.0000 0.32930  0.47860  0.44920  Biso   1.000  C
  H27      1.0000 0.92850  0.59600  0.25560  Biso   1.000  H
  H28      1.0000 0.94480  0.59970  0.16430  Biso   1.000  H
  C52      1.0000 0.97580  0.53490  0.27440  Biso   1.000  C
  C53      1.0000 0.00960  0.49780  0.25170  Biso   1.000  C
  H29      1.0000 0.02730  0.47310  0.27370  Biso   1.000  H
  C54      1.0000 0.01790  0.49620  0.19740  Biso   1.000  C
  H30      1.0000 0.03970  0.46960  0.18260  Biso   1.000  H
  C55      1.0000 0.99390  0.53380  0.16450  Biso   1.000  C
  C56      1.0000 0.00870  0.52700  0.10730  Biso   1.000  C
  O22      1.0000 0.08020  0.48390  0.43630  Biso   1.000  O
  O23      1.0000 0.09580  0.55990  0.48360  Biso   1.000  O
  O24      1.0000 0.35980  0.51080  0.47080  Biso   1.000  O
  O25      1.0000 0.97880  0.55300  0.07690  Biso   1.000  O
  O26      1.0000 0.04610  0.49870  0.09310  Biso   1.000  O
  C57      1.0000 0.18430  0.45540  0.44040  Biso   1.000  C
  H31      1.0000 0.16030  0.42740  0.43380  Biso   1.000  H
  C58      1.0000 0.23790  0.44640  0.43630  Biso   1.000  C
  H32      1.0000 0.25110  0.41370  0.42390  Biso   1.000  H
  C59      1.0000 0.68850  0.03580  0.57690  Biso   1.000  C
  H33      1.0000 0.66990  0.04440  0.60830  Biso   1.000  H
  C60      1.0000 0.74260  0.04290  0.57470  Biso   1.000  C
  H34      1.0000 0.76080  0.05850  0.60340  Biso   1.000  H
  C61      1.0000 0.60270  0.01080  0.53660  Biso   1.000  C
  C62      1.0000 0.66140  0.01620  0.53340  Biso   1.000  C
  C63      1.0000 0.69090  0.99950  0.49000  Biso   1.000  C
  H35      1.0000 0.67250  0.98400  0.46130  Biso   1.000  H
  C64      1.0000 0.74590  0.00420  0.48610  Biso   1.000  C
  H36      1.0000 0.76520  0.99280  0.45610  Biso   1.000  H
  C65      1.0000 0.76980  0.02700  0.53010  Biso   1.000  C
  C66      1.0000 0.82890  0.03380  0.52870  Biso   1.000  C
  C67      1.0000 0.45200  0.92890  0.75940  Biso   1.000  C
  H37      1.0000 0.42630  0.90620  0.74430  Biso   1.000  H
  C68      1.0000 0.46050  0.92670  0.81420  Biso   1.000  C
  H38      1.0000 0.43880  0.90620  0.83680  Biso   1.000  H
  C69      1.0000 0.46990  0.96920  0.66710  Biso   1.000  C
  C70      1.0000 0.48150  0.96520  0.72400  Biso   1.000  C
  C71      1.0000 0.52120  0.99310  0.74840  Biso   1.000  C
  H39      1.0000 0.54180  0.01590  0.72700  Biso   1.000  H
  C72      1.0000 0.53350  0.99070  0.80110  Biso   1.000  C
  H40      1.0000 0.56140  0.01130  0.81530  Biso   1.000  H
  C73      1.0000 0.50320  0.95670  0.83360  Biso   1.000  C
  C74      1.0000 0.51220  0.95030  0.89180  Biso   1.000  C
  O27      1.0000 0.85060  0.06270  0.56800  Biso   1.000  O
  O28      1.0000 0.57780  0.03680  0.56960  Biso   1.000  O
  O29      1.0000 0.58250  0.98090  0.49920  Biso   1.000  O
  O30      1.0000 0.85170  0.01100  0.49000  Biso   1.000  O
  O31      1.0000 0.44160  0.93430  0.64840  Biso   1.000  O
  O32      1.0000 0.48820  0.00970  0.64510  Biso   1.000  O
  O33      1.0000 0.48330  0.92220  0.92070  Biso   1.000  O
  O34      1.0000 0.55220  0.97550  0.90990  Biso   1.000  O
  Zn5      1.0000 0.52344  0.92563  0.49852  Biso   1.000  Zn
  Zn6      1.0000 0.47708  0.92609  0.99720  Biso   1.000  Zn
  C75      1.0000 0.60850  0.98340  0.54160  Biso   1.000  C
  C76      1.0000 0.66500  0.99540  0.54590  Biso   1.000  C
  C77      1.0000 0.70150  0.95740  0.53230  Biso   1.000  C
  H41      1.0000 0.68850  0.92380  0.52200  Biso   1.000  H
  C78      1.0000 0.75500  0.96420  0.53230  Biso   1.000  C
  H42      1.0000 0.77880  0.93730  0.52170  Biso   1.000  H
  C79      1.0000 0.77180  0.01310  0.54900  Biso   1.000  C
  C80      1.0000 0.82930  0.02140  0.55080  Biso   1.000  C
  H43      1.0000 0.42850  0.90400  0.74440  Biso   1.000  H
  H44      1.0000 0.44480  0.90030  0.83570  Biso   1.000  H
  C81      1.0000 0.47580  0.96510  0.72560  Biso   1.000  C
  C82      1.0000 0.50960  0.00220  0.74830  Biso   1.000  C
  H45      1.0000 0.52730  0.02690  0.72630  Biso   1.000  H
  C83      1.0000 0.51790  0.00380  0.80260  Biso   1.000  C
  H46      1.0000 0.53970  0.03040  0.81740  Biso   1.000  H
  C84      1.0000 0.49390  0.96620  0.83550  Biso   1.000  C
  C85      1.0000 0.50870  0.97300  0.89270  Biso   1.000  C
  O35      1.0000 0.58020  0.01610  0.56370  Biso   1.000  O
  O36      1.0000 0.59580  0.94010  0.51640  Biso   1.000  O
  O37      1.0000 0.85980  0.98920  0.52920  Biso   1.000  O
  O38      1.0000 0.47880  0.94700  0.92310  Biso   1.000  O
  O39      1.0000 0.54610  0.00130  0.90690  Biso   1.000  O
  C86      1.0000 0.68430  0.04460  0.55960  Biso   1.000  C
  H47      1.0000 0.66030  0.07260  0.56620  Biso   1.000  H
  C87      1.0000 0.73790  0.05360  0.56370  Biso   1.000  C
  H48      1.0000 0.75110  0.08630  0.57610  Biso   1.000  H
  C88      1.0000 0.81150  0.96420  0.07690  Biso   1.000  C
  H49      1.0000 0.83010  0.95560  0.10830  Biso   1.000  H
  C89      1.0000 0.75740  0.95710  0.07470  Biso   1.000  C
  H50      1.0000 0.73920  0.94150  0.10340  Biso   1.000  H
  C90      1.0000 0.89730  0.98920  0.03660  Biso   1.000  C
  C91      1.0000 0.83860  0.98380  0.03340  Biso   1.000  C
  C92      1.0000 0.80910  0.00050  0.99000  Biso   1.000  C
  H51      1.0000 0.82750  0.01600  0.96130  Biso   1.000  H
  C93      1.0000 0.75410  0.99580  0.98610  Biso   1.000  C
  H52      1.0000 0.73480  0.00720  0.95610  Biso   1.000  H
  C94      1.0000 0.73020  0.97300  0.03010  Biso   1.000  C
  C95      1.0000 0.67110  0.96620  0.02870  Biso   1.000  C
  C96      1.0000 0.04800  0.07110  0.25940  Biso   1.000  C
  H53      1.0000 0.07370  0.09380  0.24430  Biso   1.000  H
  C97      1.0000 0.03950  0.07330  0.31420  Biso   1.000  C
  H54      1.0000 0.06120  0.09380  0.33680  Biso   1.000  H
  C98      1.0000 0.03010  0.03080  0.16710  Biso   1.000  C
  C99      1.0000 0.01850  0.03480  0.22400  Biso   1.000  C
  C100     1.0000 0.97880  0.00690  0.24840  Biso   1.000  C
  H55      1.0000 0.95820  0.98410  0.22700  Biso   1.000  H
  C101     1.0000 0.96650  0.00930  0.30110  Biso   1.000  C
  H56      1.0000 0.93860  0.98870  0.31530  Biso   1.000  H
  C102     1.0000 0.99680  0.04330  0.33360  Biso   1.000  C
  C103     1.0000 0.98780  0.04970  0.39180  Biso   1.000  C
  O40      1.0000 0.64940  0.93730  0.06800  Biso   1.000  O
  O41      1.0000 0.92220  0.96320  0.06960  Biso   1.000  O
  O42      1.0000 0.91750  0.01910  0.99920  Biso   1.000  O
  O43      1.0000 0.64830  0.98900  0.99000  Biso   1.000  O
  O44      1.0000 0.05840  0.06570  0.14840  Biso   1.000  O
  O45      1.0000 0.01180  0.99030  0.14510  Biso   1.000  O
  O46      1.0000 0.01670  0.07780  0.42070  Biso   1.000  O
  O47      1.0000 0.94780  0.02450  0.40990  Biso   1.000  O
  Zn7      1.0000 0.97656  0.07437  0.99852  Biso   1.000  Zn
  Zn8      1.0000 0.02292  0.07391  0.49720  Biso   1.000  Zn
  C104     1.0000 0.89150  0.01660  0.04160  Biso   1.000  C
  C105     1.0000 0.83500  0.00460  0.04590  Biso   1.000  C
  C106     1.0000 0.79850  0.04260  0.03230  Biso   1.000  C
  H57      1.0000 0.81150  0.07620  0.02200  Biso   1.000  H
  C107     1.0000 0.74500  0.03580  0.03230  Biso   1.000  C
  H58      1.0000 0.72120  0.06270  0.02170  Biso   1.000  H
  C108     1.0000 0.72820  0.98690  0.04900  Biso   1.000  C
  C109     1.0000 0.67070  0.97860  0.05080  Biso   1.000  C
  H59      1.0000 0.07150  0.09600  0.24440  Biso   1.000  H
  H60      1.0000 0.05520  0.09970  0.33570  Biso   1.000  H
  C110     1.0000 0.02420  0.03490  0.22560  Biso   1.000  C
  C111     1.0000 0.99040  0.99780  0.24830  Biso   1.000  C
  H61      1.0000 0.97270  0.97310  0.22630  Biso   1.000  H
  C112     1.0000 0.98210  0.99620  0.30260  Biso   1.000  C
  H62      1.0000 0.96030  0.96960  0.31740  Biso   1.000  H
  C113     1.0000 0.00610  0.03380  0.33550  Biso   1.000  C
  C114     1.0000 0.99130  0.02700  0.39270  Biso   1.000  C
  O48      1.0000 0.91980  0.98390  0.06370  Biso   1.000  O
  O49      1.0000 0.90420  0.05990  0.01640  Biso   1.000  O
  O50      1.0000 0.64020  0.01080  0.02920  Biso   1.000  O
  O51      1.0000 0.02120  0.05300  0.42310  Biso   1.000  O
  O52      1.0000 0.95390  0.99870  0.40690  Biso   1.000  O
  C115     1.0000 0.81570  0.95540  0.05960  Biso   1.000  C
  H63      1.0000 0.83970  0.92740  0.06620  Biso   1.000  H
  C116     1.0000 0.76210  0.94640  0.06370  Biso   1.000  C
  H64      1.0000 0.74890  0.91370  0.07610  Biso   1.000  H
  C117     1.0000 0.92310  0.31150  0.53580  Biso   1.000  C
  H65      1.0000 0.89170  0.33010  0.54440  Biso   1.000  H
  C118     1.0000 0.92530  0.25740  0.54290  Biso   1.000  C
  H66      1.0000 0.89660  0.23920  0.55850  Biso   1.000  H
  C119     1.0000 0.96340  0.39730  0.51080  Biso   1.000  C
  C120     1.0000 0.96660  0.33860  0.51620  Biso   1.000  C
  C121     1.0000 0.01000  0.30910  0.49950  Biso   1.000  C
  H67      1.0000 0.03870  0.32750  0.48400  Biso   1.000  H
  C122     1.0000 0.01390  0.25410  0.50420  Biso   1.000  C
  H68      1.0000 0.04390  0.23480  0.49280  Biso   1.000  H
  C123     1.0000 0.96990  0.23020  0.52700  Biso   1.000  C
  C124     1.0000 0.97130  0.17110  0.53380  Biso   1.000  C
  C125     1.0000 0.74060  0.54800  0.42890  Biso   1.000  C
  H69      1.0000 0.75570  0.57370  0.40620  Biso   1.000  H
  C126     1.0000 0.68580  0.53950  0.42670  Biso   1.000  C
  H70      1.0000 0.66320  0.56120  0.40620  Biso   1.000  H
  C127     1.0000 0.83290  0.53010  0.46920  Biso   1.000  C
  C128     1.0000 0.77600  0.51850  0.46520  Biso   1.000  C
  C129     1.0000 0.75160  0.47880  0.49310  Biso   1.000  C
  H71      1.0000 0.77300  0.45820  0.51590  Biso   1.000  H
  C130     1.0000 0.69890  0.46650  0.49070  Biso   1.000  C
  H72      1.0000 0.68470  0.43860  0.51130  Biso   1.000  H
  C131     1.0000 0.66640  0.49680  0.45670  Biso   1.000  C
  C132     1.0000 0.60820  0.48780  0.45030  Biso   1.000  C
  O53      1.0000 0.93200  0.14940  0.56270  Biso   1.000  O
  O54      1.0000 0.93040  0.42220  0.53680  Biso   1.000  O
  O55      1.0000 0.00080  0.41750  0.48090  Biso   1.000  O
  O56      1.0000 0.01000  0.14830  0.51100  Biso   1.000  O
  O57      1.0000 0.85160  0.55840  0.43430  Biso   1.000  O
  O58      1.0000 0.85490  0.51180  0.50970  Biso   1.000  O
  O59      1.0000 0.57930  0.51670  0.42220  Biso   1.000  O
  O60      1.0000 0.59010  0.44780  0.47550  Biso   1.000  O
  Zn9      1.0000 0.00148  0.47656  0.42563  Biso   1.000  Zn
  Zn10     1.0000 0.50280  0.52292  0.42609  Biso   1.000  Zn
  C133     1.0000 0.95840  0.39150  0.48340  Biso   1.000  C
  C134     1.0000 0.95410  0.33500  0.49540  Biso   1.000  C
  C135     1.0000 0.96770  0.29850  0.45740  Biso   1.000  C
  H73      1.0000 0.97800  0.31150  0.42380  Biso   1.000  H
  C136     1.0000 0.96770  0.24500  0.46420  Biso   1.000  C
  H74      1.0000 0.97830  0.22120  0.43730  Biso   1.000  H
  C137     1.0000 0.95100  0.22820  0.51310  Biso   1.000  C
  C138     1.0000 0.94920  0.17070  0.52140  Biso   1.000  C
  H75      1.0000 0.75560  0.57150  0.40400  Biso   1.000  H
  H76      1.0000 0.66430  0.55520  0.40030  Biso   1.000  H
  C139     1.0000 0.77440  0.52420  0.46510  Biso   1.000  C
  C140     1.0000 0.75170  0.49040  0.50220  Biso   1.000  C
  H77      1.0000 0.77370  0.47270  0.52690  Biso   1.000  H
  C141     1.0000 0.69740  0.48210  0.50380  Biso   1.000  C
  H78      1.0000 0.68260  0.46030  0.53040  Biso   1.000  H
  C142     1.0000 0.66450  0.50610  0.46620  Biso   1.000  C
  C143     1.0000 0.60730  0.49130  0.47300  Biso   1.000  C
  O61      1.0000 0.93630  0.41980  0.51610  Biso   1.000  O
  O62      1.0000 0.98360  0.40420  0.44010  Biso   1.000  O
  O63      1.0000 0.97080  0.14020  0.48920  Biso   1.000  O
  O64      1.0000 0.57690  0.52120  0.44700  Biso   1.000  O
  O65      1.0000 0.59310  0.45390  0.50130  Biso   1.000  O
  C144     1.0000 0.94040  0.31570  0.54460  Biso   1.000  C
  H79      1.0000 0.93380  0.33970  0.57260  Biso   1.000  H
  C145     1.0000 0.93630  0.26210  0.55360  Biso   1.000  C
  H80      1.0000 0.92390  0.24890  0.58630  Biso   1.000  H
  C146     1.0000 0.42310  0.18850  0.46420  Biso   1.000  C
  H81      1.0000 0.39170  0.16990  0.45560  Biso   1.000  H
  C147     1.0000 0.42530  0.24260  0.45710  Biso   1.000  C
  H82      1.0000 0.39660  0.26080  0.44150  Biso   1.000  H
  C148     1.0000 0.46340  0.10270  0.48920  Biso   1.000  C
  C149     1.0000 0.46660  0.16140  0.48380  Biso   1.000  C
  C150     1.0000 0.51000  0.19090  0.50050  Biso   1.000  C
  H83      1.0000 0.53870  0.17250  0.51600  Biso   1.000  H
  C151     1.0000 0.51390  0.24590  0.49580  Biso   1.000  C
  H84      1.0000 0.54390  0.26520  0.50720  Biso   1.000  H
  C152     1.0000 0.46990  0.26980  0.47300  Biso   1.000  C
  C153     1.0000 0.47130  0.32890  0.46620  Biso   1.000  C
  C154     1.0000 0.24060  0.95200  0.57110  Biso   1.000  C
  H85      1.0000 0.25570  0.92630  0.59380  Biso   1.000  H
  C155     1.0000 0.18580  0.96050  0.57330  Biso   1.000  C
  H86      1.0000 0.16320  0.93880  0.59380  Biso   1.000  H
  C156     1.0000 0.33290  0.96990  0.53080  Biso   1.000  C
  C157     1.0000 0.27600  0.98150  0.53480  Biso   1.000  C
  C158     1.0000 0.25160  0.02120  0.50690  Biso   1.000  C
  H87      1.0000 0.27300  0.04180  0.48410  Biso   1.000  H
  C159     1.0000 0.19890  0.03350  0.50930  Biso   1.000  C
  H88      1.0000 0.18470  0.06140  0.48870  Biso   1.000  H
  C160     1.0000 0.16640  0.00320  0.54330  Biso   1.000  C
  C161     1.0000 0.10820  0.01220  0.54970  Biso   1.000  C
  O66      1.0000 0.43200  0.35060  0.43730  Biso   1.000  O
  O67      1.0000 0.43040  0.07780  0.46320  Biso   1.000  O
  O68      1.0000 0.50080  0.08250  0.51910  Biso   1.000  O
  O69      1.0000 0.51000  0.35170  0.48900  Biso   1.000  O
  O70      1.0000 0.35160  0.94160  0.56570  Biso   1.000  O
  O71      1.0000 0.35490  0.98820  0.49030  Biso   1.000  O
  O72      1.0000 0.07930  0.98330  0.57780  Biso   1.000  O
  O73      1.0000 0.09010  0.05220  0.52450  Biso   1.000  O
  Zn11     1.0000 0.50148  0.02344  0.57437  Biso   1.000  Zn
  Zn12     1.0000 0.00280  0.97708  0.57391  Biso   1.000  Zn
  C162     1.0000 0.45840  0.10850  0.51660  Biso   1.000  C
  C163     1.0000 0.45410  0.16500  0.50460  Biso   1.000  C
  C164     1.0000 0.46770  0.20150  0.54260  Biso   1.000  C
  H89      1.0000 0.47800  0.18850  0.57620  Biso   1.000  H
  C165     1.0000 0.46770  0.25500  0.53580  Biso   1.000  C
  H90      1.0000 0.47830  0.27880  0.56270  Biso   1.000  H
  C166     1.0000 0.45100  0.27180  0.48690  Biso   1.000  C
  C167     1.0000 0.44920  0.32930  0.47860  Biso   1.000  C
  H91      1.0000 0.25560  0.92850  0.59600  Biso   1.000  H
  H92      1.0000 0.16430  0.94480  0.59970  Biso   1.000  H
  C168     1.0000 0.27440  0.97580  0.53490  Biso   1.000  C
  C169     1.0000 0.25170  0.00960  0.49780  Biso   1.000  C
  H93      1.0000 0.27370  0.02730  0.47310  Biso   1.000  H
  C170     1.0000 0.19740  0.01790  0.49620  Biso   1.000  C
  H94      1.0000 0.18260  0.03970  0.46960  Biso   1.000  H
  C171     1.0000 0.16450  0.99390  0.53380  Biso   1.000  C
  C172     1.0000 0.10730  0.00870  0.52700  Biso   1.000  C
  O74      1.0000 0.43630  0.08020  0.48390  Biso   1.000  O
  O75      1.0000 0.48360  0.09580  0.55990  Biso   1.000  O
  O76      1.0000 0.47080  0.35980  0.51080  Biso   1.000  O
  O77      1.0000 0.07690  0.97880  0.55300  Biso   1.000  O
  O78      1.0000 0.09310  0.04610  0.49870  Biso   1.000  O
  C173     1.0000 0.44040  0.18430  0.45540  Biso   1.000  C
  H95      1.0000 0.43380  0.16030  0.42740  Biso   1.000  H
  C174     1.0000 0.43630  0.23790  0.44640  Biso   1.000  C
  H96      1.0000 0.42390  0.25110  0.41370  Biso   1.000  H
  C175     1.0000 0.57690  0.68850  0.03580  Biso   1.000  C
  H97      1.0000 0.60830  0.66990  0.04440  Biso   1.000  H
  C176     1.0000 0.57470  0.74260  0.04290  Biso   1.000  C
  H98      1.0000 0.60340  0.76080  0.05850  Biso   1.000  H
  C177     1.0000 0.53660  0.60270  0.01080  Biso   1.000  C
  C178     1.0000 0.53340  0.66140  0.01620  Biso   1.000  C
  C179     1.0000 0.49000  0.69090  0.99950  Biso   1.000  C
  H99      1.0000 0.46130  0.67250  0.98400  Biso   1.000  H
  C180     1.0000 0.48610  0.74590  0.00420  Biso   1.000  C
  H100     1.0000 0.45610  0.76520  0.99280  Biso   1.000  H
  C181     1.0000 0.53010  0.76980  0.02700  Biso   1.000  C
  C182     1.0000 0.52870  0.82890  0.03380  Biso   1.000  C
  C183     1.0000 0.75940  0.45200  0.92890  Biso   1.000  C
  H101     1.0000 0.74430  0.42630  0.90620  Biso   1.000  H
  C184     1.0000 0.81420  0.46050  0.92670  Biso   1.000  C
  H102     1.0000 0.83680  0.43880  0.90620  Biso   1.000  H
  C185     1.0000 0.66710  0.46990  0.96920  Biso   1.000  C
  C186     1.0000 0.72400  0.48150  0.96520  Biso   1.000  C
  C187     1.0000 0.74840  0.52120  0.99310  Biso   1.000  C
  H103     1.0000 0.72700  0.54180  0.01590  Biso   1.000  H
  C188     1.0000 0.80110  0.53350  0.99070  Biso   1.000  C
  H104     1.0000 0.81530  0.56140  0.01130  Biso   1.000  H
  C189     1.0000 0.83360  0.50320  0.95670  Biso   1.000  C
  C190     1.0000 0.89180  0.51220  0.95030  Biso   1.000  C
  O79      1.0000 0.56800  0.85060  0.06270  Biso   1.000  O
  O80      1.0000 0.56960  0.57780  0.03680  Biso   1.000  O
  O81      1.0000 0.49920  0.58250  0.98090  Biso   1.000  O
  O82      1.0000 0.49000  0.85170  0.01100  Biso   1.000  O
  O83      1.0000 0.64840  0.44160  0.93430  Biso   1.000  O
  O84      1.0000 0.64510  0.48820  0.00970  Biso   1.000  O
  O85      1.0000 0.92070  0.48330  0.92220  Biso   1.000  O
  O86      1.0000 0.90990  0.55220  0.97550  Biso   1.000  O
  Zn13     1.0000 0.49852  0.52344  0.92563  Biso   1.000  Zn
  Zn14     1.0000 0.99720  0.47708  0.92609  Biso   1.000  Zn
  C191     1.0000 0.54160  0.60850  0.98340  Biso   1.000  C
  C192     1.0000 0.54590  0.66500  0.99540  Biso   1.000  C
  C193     1.0000 0.53230  0.70150  0.95740  Biso   1.000  C
  H105     1.0000 0.52200  0.68850  0.92380  Biso   1.000  H
  C194     1.0000 0.53230  0.75500  0.96420  Biso   1.000  C
  H106     1.0000 0.52170  0.77880  0.93730  Biso   1.000  H
  C195     1.0000 0.54900  0.77180  0.01310  Biso   1.000  C
  C196     1.0000 0.55080  0.82930  0.02140  Biso   1.000  C
  H107     1.0000 0.74440  0.42850  0.90400  Biso   1.000  H
  H108     1.0000 0.83570  0.44480  0.90030  Biso   1.000  H
  C197     1.0000 0.72560  0.47580  0.96510  Biso   1.000  C
  C198     1.0000 0.74830  0.50960  0.00220  Biso   1.000  C
  H109     1.0000 0.72630  0.52730  0.02690  Biso   1.000  H
  C199     1.0000 0.80260  0.51790  0.00380  Biso   1.000  C
  H110     1.0000 0.81740  0.53970  0.03040  Biso   1.000  H
  C200     1.0000 0.83550  0.49390  0.96620  Biso   1.000  C
  C201     1.0000 0.89270  0.50870  0.97300  Biso   1.000  C
  O87      1.0000 0.56370  0.58020  0.01610  Biso   1.000  O
  O88      1.0000 0.51640  0.59580  0.94010  Biso   1.000  O
  O89      1.0000 0.52920  0.85980  0.98920  Biso   1.000  O
  O90      1.0000 0.92310  0.47880  0.94700  Biso   1.000  O
  O91      1.0000 0.90690  0.54610  0.00130  Biso   1.000  O
  C202     1.0000 0.55960  0.68430  0.04460  Biso   1.000  C
  H111     1.0000 0.56620  0.66030  0.07260  Biso   1.000  H
  C203     1.0000 0.56370  0.73790  0.05360  Biso   1.000  C
  H112     1.0000 0.57610  0.75110  0.08630  Biso   1.000  H
  C204     1.0000 0.07690  0.81150  0.96420  Biso   1.000  C
  H113     1.0000 0.10830  0.83010  0.95560  Biso   1.000  H
  C205     1.0000 0.07470  0.75740  0.95710  Biso   1.000  C
  H114     1.0000 0.10340  0.73920  0.94150  Biso   1.000  H
  C206     1.0000 0.03660  0.89730  0.98920  Biso   1.000  C
  C207     1.0000 0.03340  0.83860  0.98380  Biso   1.000  C
  C208     1.0000 0.99000  0.80910  0.00050  Biso   1.000  C
  H115     1.0000 0.96130  0.82750  0.01600  Biso   1.000  H
  C209     1.0000 0.98610  0.75410  0.99580  Biso   1.000  C
  H116     1.0000 0.95610  0.73480  0.00720  Biso   1.000  H
  C210     1.0000 0.03010  0.73020  0.97300  Biso   1.000  C
  C211     1.0000 0.02870  0.67110  0.96620  Biso   1.000  C
  C212     1.0000 0.25940  0.04800  0.07110  Biso   1.000  C
  H117     1.0000 0.24430  0.07370  0.09380  Biso   1.000  H
  C213     1.0000 0.31420  0.03950  0.07330  Biso   1.000  C
  H118     1.0000 0.33680  0.06120  0.09380  Biso   1.000  H
  C214     1.0000 0.16710  0.03010  0.03080  Biso   1.000  C
  C215     1.0000 0.22400  0.01850  0.03480  Biso   1.000  C
  C216     1.0000 0.24840  0.97880  0.00690  Biso   1.000  C
  H119     1.0000 0.22700  0.95820  0.98410  Biso   1.000  H
  C217     1.0000 0.30110  0.96650  0.00930  Biso   1.000  C
  H120     1.0000 0.31530  0.93860  0.98870  Biso   1.000  H
  C218     1.0000 0.33360  0.99680  0.04330  Biso   1.000  C
  C219     1.0000 0.39180  0.98780  0.04970  Biso   1.000  C
  O92      1.0000 0.06800  0.64940  0.93730  Biso   1.000  O
  O93      1.0000 0.06960  0.92220  0.96320  Biso   1.000  O
  O94      1.0000 0.99920  0.91750  0.01910  Biso   1.000  O
  O95      1.0000 0.99000  0.64830  0.98900  Biso   1.000  O
  O96      1.0000 0.14840  0.05840  0.06570  Biso   1.000  O
  O97      1.0000 0.14510  0.01180  0.99030  Biso   1.000  O
  O98      1.0000 0.42070  0.01670  0.07780  Biso   1.000  O
  O99      1.0000 0.40990  0.94780  0.02450  Biso   1.000  O
  Zn15     1.0000 0.99852  0.97656  0.07437  Biso   1.000  Zn
  Zn16     1.0000 0.49720  0.02292  0.07391  Biso   1.000  Zn
  C220     1.0000 0.04160  0.89150  0.01660  Biso   1.000  C
  C221     1.0000 0.04590  0.83500  0.00460  Biso   1.000  C
  C222     1.0000 0.03230  0.79850  0.04260  Biso   1.000  C
  H121     1.0000 0.02200  0.81150  0.07620  Biso   1.000  H
  C223     1.0000 0.03230  0.74500  0.03580  Biso   1.000  C
  H122     1.0000 0.02170  0.72120  0.06270  Biso   1.000  H
  C224     1.0000 0.04900  0.72820  0.98690  Biso   1.000  C
  C225     1.0000 0.05080  0.67070  0.97860  Biso   1.000  C
  H123     1.0000 0.24440  0.07150  0.09600  Biso   1.000  H
  H124     1.0000 0.33570  0.05520  0.09970  Biso   1.000  H
  C226     1.0000 0.22560  0.02420  0.03490  Biso   1.000  C
  C227     1.0000 0.24830  0.99040  0.99780  Biso   1.000  C
  H125     1.0000 0.22630  0.97270  0.97310  Biso   1.000  H
  C228     1.0000 0.30260  0.98210  0.99620  Biso   1.000  C
  H126     1.0000 0.31740  0.96030  0.96960  Biso   1.000  H
  C229     1.0000 0.33550  0.00610  0.03380  Biso   1.000  C
  C230     1.0000 0.39270  0.99130  0.02700  Biso   1.000  C
  O100     1.0000 0.06370  0.91980  0.98390  Biso   1.000  O
  O101     1.0000 0.01640  0.90420  0.05990  Biso   1.000  O
  O102     1.0000 0.02920  0.64020  0.01080  Biso   1.000  O
  O103     1.0000 0.42310  0.02120  0.05300  Biso   1.000  O
  O104     1.0000 0.40690  0.95390  0.99870  Biso   1.000  O
  C231     1.0000 0.05960  0.81570  0.95540  Biso   1.000  C
  H127     1.0000 0.06620  0.83970  0.92740  Biso   1.000  H
  C232     1.0000 0.06370  0.76210  0.94640  Biso   1.000  C
  H128     1.0000 0.07610  0.74890  0.91370  Biso   1.000  H
  C233     1.0000 0.53580  0.92310  0.31150  Biso   1.000  C
  H129     1.0000 0.54440  0.89170  0.33010  Biso   1.000  H
  C234     1.0000 0.54290  0.92530  0.25740  Biso   1.000  C
  H130     1.0000 0.55850  0.89660  0.23920  Biso   1.000  H
  C235     1.0000 0.51080  0.96340  0.39730  Biso   1.000  C
  C236     1.0000 0.51620  0.96660  0.33860  Biso   1.000  C
  C237     1.0000 0.49950  0.01000  0.30910  Biso   1.000  C
  H131     1.0000 0.48400  0.03870  0.32750  Biso   1.000  H
  C238     1.0000 0.50420  0.01390  0.25410  Biso   1.000  C
  H132     1.0000 0.49280  0.04390  0.23480  Biso   1.000  H
  C239     1.0000 0.52700  0.96990  0.23020  Biso   1.000  C
  C240     1.0000 0.53380  0.97130  0.17110  Biso   1.000  C
  C241     1.0000 0.42890  0.74060  0.54800  Biso   1.000  C
  H133     1.0000 0.40620  0.75570  0.57370  Biso   1.000  H
  C242     1.0000 0.42670  0.68580  0.53950  Biso   1.000  C
  H134     1.0000 0.40620  0.66320  0.56120  Biso   1.000  H
  C243     1.0000 0.46920  0.83290  0.53010  Biso   1.000  C
  C244     1.0000 0.46520  0.77600  0.51850  Biso   1.000  C
  C245     1.0000 0.49310  0.75160  0.47880  Biso   1.000  C
  H135     1.0000 0.51590  0.77300  0.45820  Biso   1.000  H
  C246     1.0000 0.49070  0.69890  0.46650  Biso   1.000  C
  H136     1.0000 0.51130  0.68470  0.43860  Biso   1.000  H
  C247     1.0000 0.45670  0.66640  0.49680  Biso   1.000  C
  C248     1.0000 0.45030  0.60820  0.48780  Biso   1.000  C
  O105     1.0000 0.56270  0.93200  0.14940  Biso   1.000  O
  O106     1.0000 0.53680  0.93040  0.42220  Biso   1.000  O
  O107     1.0000 0.48090  0.00080  0.41750  Biso   1.000  O
  O108     1.0000 0.51100  0.01000  0.14830  Biso   1.000  O
  O109     1.0000 0.43430  0.85160  0.55840  Biso   1.000  O
  O110     1.0000 0.50970  0.85490  0.51180  Biso   1.000  O
  O111     1.0000 0.42220  0.57930  0.51670  Biso   1.000  O
  O112     1.0000 0.47550  0.59010  0.44780  Biso   1.000  O
  Zn17     1.0000 0.42563  0.00148  0.47656  Biso   1.000  Zn
  Zn18     1.0000 0.42609  0.50280  0.52292  Biso   1.000  Zn
  C249     1.0000 0.48340  0.95840  0.39150  Biso   1.000  C
  C250     1.0000 0.49540  0.95410  0.33500  Biso   1.000  C
  C251     1.0000 0.45740  0.96770  0.29850  Biso   1.000  C
  H137     1.0000 0.42380  0.97800  0.31150  Biso   1.000  H
  C252     1.0000 0.46420  0.96770  0.24500  Biso   1.000  C
  H138     1.0000 0.43730  0.97830  0.22120  Biso   1.000  H
  C253     1.0000 0.51310  0.95100  0.22820  Biso   1.000  C
  C254     1.0000 0.52140  0.94920  0.17070  Biso   1.000  C
  H139     1.0000 0.40400  0.75560  0.57150  Biso   1.000  H
  H140     1.0000 0.40030  0.66430  0.55520  Biso   1.000  H
  C255     1.0000 0.46510  0.77440  0.52420  Biso   1.000  C
  C256     1.0000 0.50220  0.75170  0.49040  Biso   1.000  C
  H141     1.0000 0.52690  0.77370  0.47270  Biso   1.000  H
  C257     1.0000 0.50380  0.69740  0.48210  Biso   1.000  C
  H142     1.0000 0.53040  0.68260  0.46030  Biso   1.000  H
  C258     1.0000 0.46620  0.66450  0.50610  Biso   1.000  C
  C259     1.0000 0.47300  0.60730  0.49130  Biso   1.000  C
  O113     1.0000 0.51610  0.93630  0.41980  Biso   1.000  O
  O114     1.0000 0.44010  0.98360  0.40420  Biso   1.000  O
  O115     1.0000 0.48920  0.97080  0.14020  Biso   1.000  O
  O116     1.0000 0.44700  0.57690  0.52120  Biso   1.000  O
  O117     1.0000 0.50130  0.59310  0.45390  Biso   1.000  O
  C260     1.0000 0.54460  0.94040  0.31570  Biso   1.000  C
  H143     1.0000 0.57260  0.93380  0.33970  Biso   1.000  H
  C261     1.0000 0.55360  0.93630  0.26210  Biso   1.000  C
  H144     1.0000 0.58630  0.92390  0.24890  Biso   1.000  H
  C262     1.0000 0.46420  0.42310  0.18850  Biso   1.000  C
  H145     1.0000 0.45560  0.39170  0.16990  Biso   1.000  H
  C263     1.0000 0.45710  0.42530  0.24260  Biso   1.000  C
  H146     1.0000 0.44150  0.39660  0.26080  Biso   1.000  H
  C264     1.0000 0.48920  0.46340  0.10270  Biso   1.000  C
  C265     1.0000 0.48380  0.46660  0.16140  Biso   1.000  C
  C266     1.0000 0.50050  0.51000  0.19090  Biso   1.000  C
  H147     1.0000 0.51600  0.53870  0.17250  Biso   1.000  H
  C267     1.0000 0.49580  0.51390  0.24590  Biso   1.000  C
  H148     1.0000 0.50720  0.54390  0.26520  Biso   1.000  H
  C268     1.0000 0.47300  0.46990  0.26980  Biso   1.000  C
  C269     1.0000 0.46620  0.47130  0.32890  Biso   1.000  C
  C270     1.0000 0.57110  0.24060  0.95200  Biso   1.000  C
  H149     1.0000 0.59380  0.25570  0.92630  Biso   1.000  H
  C271     1.0000 0.57330  0.18580  0.96050  Biso   1.000  C
  H150     1.0000 0.59380  0.16320  0.93880  Biso   1.000  H
  C272     1.0000 0.53080  0.33290  0.96990  Biso   1.000  C
  C273     1.0000 0.53480  0.27600  0.98150  Biso   1.000  C
  C274     1.0000 0.50690  0.25160  0.02120  Biso   1.000  C
  H151     1.0000 0.48410  0.27300  0.04180  Biso   1.000  H
  C275     1.0000 0.50930  0.19890  0.03350  Biso   1.000  C
  H152     1.0000 0.48870  0.18470  0.06140  Biso   1.000  H
  C276     1.0000 0.54330  0.16640  0.00320  Biso   1.000  C
  C277     1.0000 0.54970  0.10820  0.01220  Biso   1.000  C
  O118     1.0000 0.43730  0.43200  0.35060  Biso   1.000  O
  O119     1.0000 0.46320  0.43040  0.07780  Biso   1.000  O
  O120     1.0000 0.51910  0.50080  0.08250  Biso   1.000  O
  O121     1.0000 0.48900  0.51000  0.35170  Biso   1.000  O
  O122     1.0000 0.56570  0.35160  0.94160  Biso   1.000  O
  O123     1.0000 0.49030  0.35490  0.98820  Biso   1.000  O
  O124     1.0000 0.57780  0.07930  0.98330  Biso   1.000  O
  O125     1.0000 0.52450  0.09010  0.05220  Biso   1.000  O
  Zn19     1.0000 0.57437  0.50148  0.02344  Biso   1.000  Zn
  Zn20     1.0000 0.57391  0.00280  0.97708  Biso   1.000  Zn
  C278     1.0000 0.51660  0.45840  0.10850  Biso   1.000  C
  C279     1.0000 0.50460  0.45410  0.16500  Biso   1.000  C
  C280     1.0000 0.54260  0.46770  0.20150  Biso   1.000  C
  H153     1.0000 0.57620  0.47800  0.18850  Biso   1.000  H
  C281     1.0000 0.53580  0.46770  0.25500  Biso   1.000  C
  H154     1.0000 0.56270  0.47830  0.27880  Biso   1.000  H
  C282     1.0000 0.48690  0.45100  0.27180  Biso   1.000  C
  C283     1.0000 0.47860  0.44920  0.32930  Biso   1.000  C
  H155     1.0000 0.59600  0.25560  0.92850  Biso   1.000  H
  H156     1.0000 0.59970  0.16430  0.94480  Biso   1.000  H
  C284     1.0000 0.53490  0.27440  0.97580  Biso   1.000  C
  C285     1.0000 0.49780  0.25170  0.00960  Biso   1.000  C
  H157     1.0000 0.47310  0.27370  0.02730  Biso   1.000  H
  C286     1.0000 0.49620  0.19740  0.01790  Biso   1.000  C
  H158     1.0000 0.46960  0.18260  0.03970  Biso   1.000  H
  C287     1.0000 0.53380  0.16450  0.99390  Biso   1.000  C
  C288     1.0000 0.52700  0.10730  0.00870  Biso   1.000  C
  O126     1.0000 0.48390  0.43630  0.08020  Biso   1.000  O
  O127     1.0000 0.55990  0.48360  0.09580  Biso   1.000  O
  O128     1.0000 0.51080  0.47080  0.35980  Biso   1.000  O
  O129     1.0000 0.55300  0.07690  0.97880  Biso   1.000  O
  O130     1.0000 0.49870  0.09310  0.04610  Biso   1.000  O
  C289     1.0000 0.45540  0.44040  0.18430  Biso   1.000  C
  H159     1.0000 0.42740  0.43380  0.16030  Biso   1.000  H
  C290     1.0000 0.44640  0.43630  0.23790  Biso   1.000  C
  H160     1.0000 0.41370  0.42390  0.25110  Biso   1.000  H
  C291     1.0000 0.03580  0.57690  0.68850  Biso   1.000  C
  H161     1.0000 0.04440  0.60830  0.66990  Biso   1.000  H
  C292     1.0000 0.04290  0.57470  0.74260  Biso   1.000  C
  H162     1.0000 0.05850  0.60340  0.76080  Biso   1.000  H
  C293     1.0000 0.01080  0.53660  0.60270  Biso   1.000  C
  C294     1.0000 0.01620  0.53340  0.66140  Biso   1.000  C
  C295     1.0000 0.99950  0.49000  0.69090  Biso   1.000  C
  H163     1.0000 0.98400  0.46130  0.67250  Biso   1.000  H
  C296     1.0000 0.00420  0.48610  0.74590  Biso   1.000  C
  H164     1.0000 0.99280  0.45610  0.76520  Biso   1.000  H
  C297     1.0000 0.02700  0.53010  0.76980  Biso   1.000  C
  C298     1.0000 0.03380  0.52870  0.82890  Biso   1.000  C
  C299     1.0000 0.92890  0.75940  0.45200  Biso   1.000  C
  H165     1.0000 0.90620  0.74430  0.42630  Biso   1.000  H
  C300     1.0000 0.92670  0.81420  0.46050  Biso   1.000  C
  H166     1.0000 0.90620  0.83680  0.43880  Biso   1.000  H
  C301     1.0000 0.96920  0.66710  0.46990  Biso   1.000  C
  C302     1.0000 0.96520  0.72400  0.48150  Biso   1.000  C
  C303     1.0000 0.99310  0.74840  0.52120  Biso   1.000  C
  H167     1.0000 0.01590  0.72700  0.54180  Biso   1.000  H
  C304     1.0000 0.99070  0.80110  0.53350  Biso   1.000  C
  H168     1.0000 0.01130  0.81530  0.56140  Biso   1.000  H
  C305     1.0000 0.95670  0.83360  0.50320  Biso   1.000  C
  C306     1.0000 0.95030  0.89180  0.51220  Biso   1.000  C
  O131     1.0000 0.06270  0.56800  0.85060  Biso   1.000  O
  O132     1.0000 0.03680  0.56960  0.57780  Biso   1.000  O
  O133     1.0000 0.98090  0.49920  0.58250  Biso   1.000  O
  O134     1.0000 0.01100  0.49000  0.85170  Biso   1.000  O
  O135     1.0000 0.93430  0.64840  0.44160  Biso   1.000  O
  O136     1.0000 0.00970  0.64510  0.48820  Biso   1.000  O
  O137     1.0000 0.92220  0.92070  0.48330  Biso   1.000  O
  O138     1.0000 0.97550  0.90990  0.55220  Biso   1.000  O
  Zn21     1.0000 0.92563  0.49852  0.52344  Biso   1.000  Zn
  Zn22     1.0000 0.92609  0.99720  0.47708  Biso   1.000  Zn
  C307     1.0000 0.98340  0.54160  0.60850  Biso   1.000  C
  C308     1.0000 0.99540  0.54590  0.66500  Biso   1.000  C
  C309     1.0000 0.95740  0.53230  0.70150  Biso   1.000  C
  H169     1.0000 0.92380  0.52200  0.68850  Biso   1.000  H
  C310     1.0000 0.96420  0.53230  0.75500  Biso   1.000  C
  H170     1.0000 0.93730  0.52170  0.77880  Biso   1.000  H
  C311     1.0000 0.01310  0.54900  0.77180  Biso   1.000  C
  C312     1.0000 0.02140  0.55080  0.82930  Biso   1.000  C
  H171     1.0000 0.90400  0.74440  0.42850  Biso   1.000  H
  H172     1.0000 0.90030  0.83570  0.44480  Biso   1.000  H
  C313     1.0000 0.96510  0.72560  0.47580  Biso   1.000  C
  C314     1.0000 0.00220  0.74830  0.50960  Biso   1.000  C
  H173     1.0000 0.02690  0.72630  0.52730  Biso   1.000  H
  C315     1.0000 0.00380  0.80260  0.51790  Biso   1.000  C
  H174     1.0000 0.03040  0.81740  0.53970  Biso   1.000  H
  C316     1.0000 0.96620  0.83550  0.49390  Biso   1.000  C
  C317     1.0000 0.97300  0.89270  0.50870  Biso   1.000  C
  O139     1.0000 0.01610  0.56370  0.58020  Biso   1.000  O
  O140     1.0000 0.94010  0.51640  0.59580  Biso   1.000  O
  O141     1.0000 0.98920  0.52920  0.85980  Biso   1.000  O
  O142     1.0000 0.94700  0.92310  0.47880  Biso   1.000  O
  O143     1.0000 0.00130  0.90690  0.54610  Biso   1.000  O
  C318     1.0000 0.04460  0.55960  0.68430  Biso   1.000  C
  H175     1.0000 0.07260  0.56620  0.66030  Biso   1.000  H
  C319     1.0000 0.05360  0.56370  0.73790  Biso   1.000  C
  H176     1.0000 0.08630  0.57610  0.75110  Biso   1.000  H
  C320     1.0000 0.96420  0.07690  0.81150  Biso   1.000  C
  H177     1.0000 0.95560  0.10830  0.83010  Biso   1.000  H
  C321     1.0000 0.95710  0.07470  0.75740  Biso   1.000  C
  H178     1.0000 0.94150  0.10340  0.73920  Biso   1.000  H
  C322     1.0000 0.98920  0.03660  0.89730  Biso   1.000  C
  C323     1.0000 0.98380  0.03340  0.83860  Biso   1.000  C
  C324     1.0000 0.00050  0.99000  0.80910  Biso   1.000  C
  H179     1.0000 0.01600  0.96130  0.82750  Biso   1.000  H
  C325     1.0000 0.99580  0.98610  0.75410  Biso   1.000  C
  H180     1.0000 0.00720  0.95610  0.73480  Biso   1.000  H
  C326     1.0000 0.97300  0.03010  0.73020  Biso   1.000  C
  C327     1.0000 0.96620  0.02870  0.67110  Biso   1.000  C
  C328     1.0000 0.07110  0.25940  0.04800  Biso   1.000  C
  H181     1.0000 0.09380  0.24430  0.07370  Biso   1.000  H
  C329     1.0000 0.07330  0.31420  0.03950  Biso   1.000  C
  H182     1.0000 0.09380  0.33680  0.06120  Biso   1.000  H
  C330     1.0000 0.03080  0.16710  0.03010  Biso   1.000  C
  C331     1.0000 0.03480  0.22400  0.01850  Biso   1.000  C
  C332     1.0000 0.00690  0.24840  0.97880  Biso   1.000  C
  H183     1.0000 0.98410  0.22700  0.95820  Biso   1.000  H
  C333     1.0000 0.00930  0.30110  0.96650  Biso   1.000  C
  H184     1.0000 0.98870  0.31530  0.93860  Biso   1.000  H
  C334     1.0000 0.04330  0.33360  0.99680  Biso   1.000  C
  C335     1.0000 0.04970  0.39180  0.98780  Biso   1.000  C
  O144     1.0000 0.93730  0.06800  0.64940  Biso   1.000  O
  O145     1.0000 0.96320  0.06960  0.92220  Biso   1.000  O
  O146     1.0000 0.01910  0.99920  0.91750  Biso   1.000  O
  O147     1.0000 0.98900  0.99000  0.64830  Biso   1.000  O
  O148     1.0000 0.06570  0.14840  0.05840  Biso   1.000  O
  O149     1.0000 0.99030  0.14510  0.01180  Biso   1.000  O
  O150     1.0000 0.07780  0.42070  0.01670  Biso   1.000  O
  O151     1.0000 0.02450  0.40990  0.94780  Biso   1.000  O
  Zn23     1.0000 0.07437  0.99852  0.97656  Biso   1.000  Zn
  Zn24     1.0000 0.07391  0.49720  0.02292  Biso   1.000  Zn
  C336     1.0000 0.01660  0.04160  0.89150  Biso   1.000  C
  C337     1.0000 0.00460  0.04590  0.83500  Biso   1.000  C
  C338     1.0000 0.04260  0.03230  0.79850  Biso   1.000  C
  H185     1.0000 0.07620  0.02200  0.81150  Biso   1.000  H
  C339     1.0000 0.03580  0.03230  0.74500  Biso   1.000  C
  H186     1.0000 0.06270  0.02170  0.72120  Biso   1.000  H
  C340     1.0000 0.98690  0.04900  0.72820  Biso   1.000  C
  C341     1.0000 0.97860  0.05080  0.67070  Biso   1.000  C
  H187     1.0000 0.09600  0.24440  0.07150  Biso   1.000  H
  H188     1.0000 0.09970  0.33570  0.05520  Biso   1.000  H
  C342     1.0000 0.03490  0.22560  0.02420  Biso   1.000  C
  C343     1.0000 0.99780  0.24830  0.99040  Biso   1.000  C
  H189     1.0000 0.97310  0.22630  0.97270  Biso   1.000  H
  C344     1.0000 0.99620  0.30260  0.98210  Biso   1.000  C
  H190     1.0000 0.96960  0.31740  0.96030  Biso   1.000  H
  C345     1.0000 0.03380  0.33550  0.00610  Biso   1.000  C
  C346     1.0000 0.02700  0.39270  0.99130  Biso   1.000  C
  O152     1.0000 0.98390  0.06370  0.91980  Biso   1.000  O
  O153     1.0000 0.05990  0.01640  0.90420  Biso   1.000  O
  O154     1.0000 0.01080  0.02920  0.64020  Biso   1.000  O
  O155     1.0000 0.05300  0.42310  0.02120  Biso   1.000  O
  O156     1.0000 0.99870  0.40690  0.95390  Biso   1.000  O
  C347     1.0000 0.95540  0.05960  0.81570  Biso   1.000  C
  H191     1.0000 0.92740  0.06620  0.83970  Biso   1.000  H
  C348     1.0000 0.94640  0.06370  0.76210  Biso   1.000  C
  H192     1.0000 0.91370  0.07610  0.74890  Biso   1.000  H
  O157     1.0000 0.53110  0.46890  0.96890  Biso   1.000  O
  Zn25     1.0000 0.57460  0.42540  0.92540  Biso   1.000  Zn
  O158     1.0000 0.96890  0.53110  0.46890  Biso   1.000  O
  Zn26     1.0000 0.92540  0.57460  0.42540  Biso   1.000  Zn
  O159     1.0000 0.46890  0.96890  0.53110  Biso   1.000  O
  Zn27     1.0000 0.42540  0.92540  0.57460  Biso   1.000  Zn
  O160     1.0000 0.03110  0.03110  0.03110  Biso   1.000  O
  Zn28     1.0000 0.07460  0.07460  0.07460  Biso   1.000  Zn
  O161     1.0000 0.46930  0.46930  0.46930  Biso   1.000  O
  O162     1.0000 0.03070  0.53070  0.96930  Biso   1.000  O
  O163     1.0000 0.53070  0.96930  0.03070  Biso   1.000  O
  O164     1.0000 0.96930  0.03070  0.53070  Biso   1.000  O
  Zn29     1.0000 0.07443  0.57443  0.92557  Biso   1.000  Zn
  Zn30     1.0000 0.42557  0.42557  0.42557  Biso   1.000  Zn
  Zn31     1.0000 0.92557  0.07443  0.57443  Biso   1.000  Zn
  Zn32     1.0000 0.57443  0.92557  0.07443  Biso   1.000  Zn
