data_image0
_cell_length_a       16.7581
_cell_length_b       18.8268
_cell_length_c       38.9998
_cell_angle_alpha    90
_cell_angle_beta     90
_cell_angle_gamma    90

_symmetry_space_group_name_H-M    "P 1"
_symmetry_int_tables_number       1

loop_
  _symmetry_equiv_pos_as_xyz
  'x, y, z'

loop_
  _atom_site_label
  _atom_site_occupancy
  _atom_site_fract_x
  _atom_site_fract_y
  _atom_site_fract_z
  _atom_site_thermal_displace_type
  _atom_site_B_iso_or_equiv
  _atom_site_type_symbol
  C1       1.0000 0.61530  0.11090  0.18930  Biso   1.000  C
  C2       1.0000 0.61940  0.04010  0.17470  Biso   1.000  C
  H1       1.0000 0.62490  0.99990  0.18930  Biso   1.000  H
  C3       1.0000 0.61530  0.03130  0.14000  Biso   1.000  C
  C4       1.0000 0.61320  0.15950  0.13171  Biso   1.000  C
  C5       1.0000 0.61290  0.16740  0.16870  Biso   1.000  C
  H2       1.0000 0.61090  0.21360  0.17840  Biso   1.000  H
  C6       1.0000 0.42350  0.10670  0.15932  Biso   1.000  C
  H3       1.0000 0.42460  0.09390  0.18290  Biso   1.000  H
  S1       1.0000 0.56956  0.39589  0.20846  Biso   1.000  S
  O1       1.0000 0.60037  0.17851  0.24403  Biso   1.000  O
  O2       1.0000 0.48723  0.42304  0.20864  Biso   1.000  O
  O3       1.0000 0.40760  0.29728  0.16945  Biso   1.000  O
  O4       1.0000 0.44410  0.21393  0.20721  Biso   1.000  O
  O5       1.0000 0.57243  0.32575  0.22430  Biso   1.000  O
  C7       1.0000 0.42560  0.23450  0.17740  Biso   1.000  C
  O6       1.0000 0.59460  0.38780  0.17277  Biso   1.000  O
  C8       1.0000 0.42320  0.17850  0.15001  Biso   1.000  C
  C9       1.0000 0.42230  0.19570  0.11555  Biso   1.000  C
  H4       1.0000 0.42080  0.24420  0.10880  Biso   1.000  H
  O7       1.0000 0.62200  0.44370  0.22550  Biso   1.000  O
  C10      1.0000 0.61530  0.61090  0.68930  Biso   1.000  C
  C11      1.0000 0.61940  0.54010  0.67470  Biso   1.000  C
  H5       1.0000 0.62490  0.49990  0.68930  Biso   1.000  H
  C12      1.0000 0.61530  0.53130  0.64000  Biso   1.000  C
  C13      1.0000 0.61320  0.65950  0.63171  Biso   1.000  C
  C14      1.0000 0.61290  0.66740  0.66870  Biso   1.000  C
  H6       1.0000 0.61090  0.71360  0.67840  Biso   1.000  H
  C15      1.0000 0.42350  0.60670  0.65932  Biso   1.000  C
  H7       1.0000 0.42460  0.59390  0.68290  Biso   1.000  H
  S2       1.0000 0.56956  0.89589  0.70846  Biso   1.000  S
  O8       1.0000 0.60037  0.67851  0.74403  Biso   1.000  O
  O9       1.0000 0.48723  0.92304  0.70864  Biso   1.000  O
  O10      1.0000 0.40760  0.79728  0.66945  Biso   1.000  O
  O11      1.0000 0.44410  0.71393  0.70721  Biso   1.000  O
  O12      1.0000 0.57243  0.82575  0.72430  Biso   1.000  O
  C16      1.0000 0.42560  0.73450  0.67740  Biso   1.000  C
  O13      1.0000 0.59460  0.88780  0.67277  Biso   1.000  O
  C17      1.0000 0.42320  0.67850  0.65001  Biso   1.000  C
  C18      1.0000 0.42230  0.69570  0.61555  Biso   1.000  C
  H8       1.0000 0.42080  0.74420  0.60880  Biso   1.000  H
  O14      1.0000 0.62200  0.94370  0.72550  Biso   1.000  O
  C19      1.0000 0.11530  0.11090  0.68930  Biso   1.000  C
  C20      1.0000 0.11940  0.04010  0.67470  Biso   1.000  C
  H9       1.0000 0.12490  0.99990  0.68930  Biso   1.000  H
  C21      1.0000 0.11530  0.03130  0.64000  Biso   1.000  C
  C22      1.0000 0.11320  0.15950  0.63171  Biso   1.000  C
  C23      1.0000 0.11290  0.16740  0.66870  Biso   1.000  C
  H10      1.0000 0.11090  0.21360  0.67840  Biso   1.000  H
  C24      1.0000 0.92350  0.10670  0.65932  Biso   1.000  C
  H11      1.0000 0.92460  0.09390  0.68290  Biso   1.000  H
  S3       1.0000 0.06956  0.39589  0.70846  Biso   1.000  S
  O15      1.0000 0.10037  0.17851  0.74403  Biso   1.000  O
  O16      1.0000 0.98723  0.42304  0.70864  Biso   1.000  O
  O17      1.0000 0.90760  0.29728  0.66945  Biso   1.000  O
  O18      1.0000 0.94410  0.21393  0.70721  Biso   1.000  O
  O19      1.0000 0.07243  0.32575  0.72430  Biso   1.000  O
  C25      1.0000 0.92560  0.23450  0.67740  Biso   1.000  C
  O20      1.0000 0.09460  0.38780  0.67277  Biso   1.000  O
  C26      1.0000 0.92320  0.17850  0.65001  Biso   1.000  C
  C27      1.0000 0.92230  0.19570  0.61555  Biso   1.000  C
  H12      1.0000 0.92080  0.24420  0.60880  Biso   1.000  H
  O21      1.0000 0.12200  0.44370  0.72550  Biso   1.000  O
  C28      1.0000 0.11530  0.61090  0.18930  Biso   1.000  C
  C29      1.0000 0.11940  0.54010  0.17470  Biso   1.000  C
  H13      1.0000 0.12490  0.49990  0.18930  Biso   1.000  H
  C30      1.0000 0.11530  0.53130  0.14000  Biso   1.000  C
  C31      1.0000 0.11320  0.65950  0.13171  Biso   1.000  C
  C32      1.0000 0.11290  0.66740  0.16870  Biso   1.000  C
  H14      1.0000 0.11090  0.71360  0.17840  Biso   1.000  H
  C33      1.0000 0.92350  0.60670  0.15932  Biso   1.000  C
  H15      1.0000 0.92460  0.59390  0.18290  Biso   1.000  H
  S4       1.0000 0.06956  0.89589  0.20846  Biso   1.000  S
  O22      1.0000 0.10037  0.67851  0.24403  Biso   1.000  O
  O23      1.0000 0.98723  0.92304  0.20864  Biso   1.000  O
  O24      1.0000 0.90760  0.79728  0.16945  Biso   1.000  O
  O25      1.0000 0.94410  0.71393  0.20721  Biso   1.000  O
  O26      1.0000 0.07243  0.82575  0.22430  Biso   1.000  O
  C34      1.0000 0.92560  0.73450  0.17740  Biso   1.000  C
  O27      1.0000 0.09460  0.88780  0.17277  Biso   1.000  O
  C35      1.0000 0.92320  0.67850  0.15001  Biso   1.000  C
  C36      1.0000 0.92230  0.69570  0.11555  Biso   1.000  C
  H16      1.0000 0.92080  0.74420  0.10880  Biso   1.000  H
  O28      1.0000 0.12200  0.94370  0.22550  Biso   1.000  O
  C37      1.0000 0.13470  0.63910  0.18930  Biso   1.000  C
  C38      1.0000 0.13060  0.70990  0.17470  Biso   1.000  C
  H17      1.0000 0.12510  0.75010  0.18930  Biso   1.000  H
  C39      1.0000 0.13470  0.71870  0.14000  Biso   1.000  C
  C40      1.0000 0.13680  0.59050  0.13171  Biso   1.000  C
  C41      1.0000 0.13710  0.58260  0.16870  Biso   1.000  C
  H18      1.0000 0.13910  0.53640  0.17840  Biso   1.000  H
  C42      1.0000 0.32650  0.64330  0.15932  Biso   1.000  C
  H19      1.0000 0.32540  0.65610  0.18290  Biso   1.000  H
  S5       1.0000 0.18044  0.35411  0.20846  Biso   1.000  S
  O29      1.0000 0.14963  0.57149  0.24403  Biso   1.000  O
  O30      1.0000 0.26277  0.32696  0.20864  Biso   1.000  O
  O31      1.0000 0.34240  0.45272  0.16945  Biso   1.000  O
  O32      1.0000 0.30590  0.53607  0.20721  Biso   1.000  O
  O33      1.0000 0.17757  0.42425  0.22430  Biso   1.000  O
  C43      1.0000 0.32440  0.51550  0.17740  Biso   1.000  C
  O34      1.0000 0.15540  0.36220  0.17277  Biso   1.000  O
  C44      1.0000 0.32680  0.57150  0.15001  Biso   1.000  C
  C45      1.0000 0.32770  0.55430  0.11555  Biso   1.000  C
  H20      1.0000 0.32920  0.50580  0.10880  Biso   1.000  H
  O35      1.0000 0.12800  0.30630  0.22550  Biso   1.000  O
  C46      1.0000 0.13470  0.13910  0.68930  Biso   1.000  C
  C47      1.0000 0.13060  0.20990  0.67470  Biso   1.000  C
  H21      1.0000 0.12510  0.25010  0.68930  Biso   1.000  H
  C48      1.0000 0.13470  0.21870  0.64000  Biso   1.000  C
  C49      1.0000 0.13680  0.09050  0.63171  Biso   1.000  C
  C50      1.0000 0.13710  0.08260  0.66870  Biso   1.000  C
  H22      1.0000 0.13910  0.03640  0.67840  Biso   1.000  H
  C51      1.0000 0.32650  0.14330  0.65932  Biso   1.000  C
  H23      1.0000 0.32540  0.15610  0.68290  Biso   1.000  H
  S6       1.0000 0.18044  0.85411  0.70846  Biso   1.000  S
  O36      1.0000 0.14963  0.07149  0.74403  Biso   1.000  O
  O37      1.0000 0.26277  0.82696  0.70864  Biso   1.000  O
  O38      1.0000 0.34240  0.95272  0.66945  Biso   1.000  O
  O39      1.0000 0.30590  0.03607  0.70721  Biso   1.000  O
  O40      1.0000 0.17757  0.92425  0.72430  Biso   1.000  O
  C52      1.0000 0.32440  0.01550  0.67740  Biso   1.000  C
  O41      1.0000 0.15540  0.86220  0.67277  Biso   1.000  O
  C53      1.0000 0.32680  0.07150  0.65001  Biso   1.000  C
  C54      1.0000 0.32770  0.05430  0.61555  Biso   1.000  C
  H24      1.0000 0.32920  0.00580  0.60880  Biso   1.000  H
  O42      1.0000 0.12800  0.80630  0.72550  Biso   1.000  O
  C55      1.0000 0.63470  0.63910  0.68930  Biso   1.000  C
  C56      1.0000 0.63060  0.70990  0.67470  Biso   1.000  C
  H25      1.0000 0.62510  0.75010  0.68930  Biso   1.000  H
  C57      1.0000 0.63470  0.71870  0.64000  Biso   1.000  C
  C58      1.0000 0.63680  0.59050  0.63171  Biso   1.000  C
  C59      1.0000 0.63710  0.58260  0.66870  Biso   1.000  C
  H26      1.0000 0.63910  0.53640  0.67840  Biso   1.000  H
  C60      1.0000 0.82650  0.64330  0.65932  Biso   1.000  C
  H27      1.0000 0.82540  0.65610  0.68290  Biso   1.000  H
  S7       1.0000 0.68044  0.35411  0.70846  Biso   1.000  S
  O43      1.0000 0.64963  0.57149  0.74403  Biso   1.000  O
  O44      1.0000 0.76277  0.32696  0.70864  Biso   1.000  O
  O45      1.0000 0.84240  0.45272  0.66945  Biso   1.000  O
  O46      1.0000 0.80590  0.53607  0.70721  Biso   1.000  O
  O47      1.0000 0.67757  0.42425  0.72430  Biso   1.000  O
  C61      1.0000 0.82440  0.51550  0.67740  Biso   1.000  C
  O48      1.0000 0.65540  0.36220  0.67277  Biso   1.000  O
  C62      1.0000 0.82680  0.57150  0.65001  Biso   1.000  C
  C63      1.0000 0.82770  0.55430  0.61555  Biso   1.000  C
  H28      1.0000 0.82920  0.50580  0.60880  Biso   1.000  H
  O49      1.0000 0.62800  0.30630  0.72550  Biso   1.000  O
  C64      1.0000 0.63470  0.13910  0.18930  Biso   1.000  C
  C65      1.0000 0.63060  0.20990  0.17470  Biso   1.000  C
  H29      1.0000 0.62510  0.25010  0.18930  Biso   1.000  H
  C66      1.0000 0.63470  0.21870  0.14000  Biso   1.000  C
  C67      1.0000 0.63680  0.09050  0.13171  Biso   1.000  C
  C68      1.0000 0.63710  0.08260  0.16870  Biso   1.000  C
  H30      1.0000 0.63910  0.03640  0.17840  Biso   1.000  H
  C69      1.0000 0.82650  0.14330  0.15932  Biso   1.000  C
  H31      1.0000 0.82540  0.15610  0.18290  Biso   1.000  H
  S8       1.0000 0.68044  0.85411  0.20846  Biso   1.000  S
  O50      1.0000 0.64963  0.07149  0.24403  Biso   1.000  O
  O51      1.0000 0.76277  0.82696  0.20864  Biso   1.000  O
  O52      1.0000 0.84240  0.95272  0.16945  Biso   1.000  O
  O53      1.0000 0.80590  0.03607  0.20721  Biso   1.000  O
  O54      1.0000 0.67757  0.92425  0.22430  Biso   1.000  O
  C70      1.0000 0.82440  0.01550  0.17740  Biso   1.000  C
  O55      1.0000 0.65540  0.86220  0.17277  Biso   1.000  O
  C71      1.0000 0.82680  0.07150  0.15001  Biso   1.000  C
  C72      1.0000 0.82770  0.05430  0.11555  Biso   1.000  C
  H32      1.0000 0.82920  0.00580  0.10880  Biso   1.000  H
  O56      1.0000 0.62800  0.80630  0.22550  Biso   1.000  O
  C73      1.0000 0.13470  0.11090  0.56070  Biso   1.000  C
  C74      1.0000 0.13060  0.04010  0.57530  Biso   1.000  C
  H33      1.0000 0.12510  0.99990  0.56070  Biso   1.000  H
  C75      1.0000 0.13470  0.03130  0.61000  Biso   1.000  C
  C76      1.0000 0.13680  0.15950  0.61829  Biso   1.000  C
  C77      1.0000 0.13710  0.16740  0.58130  Biso   1.000  C
  H34      1.0000 0.13910  0.21360  0.57160  Biso   1.000  H
  C78      1.0000 0.32650  0.10670  0.59068  Biso   1.000  C
  H35      1.0000 0.32540  0.09390  0.56710  Biso   1.000  H
  S9       1.0000 0.18044  0.39589  0.54154  Biso   1.000  S
  O57      1.0000 0.14963  0.17851  0.50597  Biso   1.000  O
  O58      1.0000 0.26277  0.42304  0.54136  Biso   1.000  O
  O59      1.0000 0.34240  0.29728  0.58055  Biso   1.000  O
  O60      1.0000 0.30590  0.21393  0.54279  Biso   1.000  O
  O61      1.0000 0.17757  0.32575  0.52570  Biso   1.000  O
  C79      1.0000 0.32440  0.23450  0.57260  Biso   1.000  C
  O62      1.0000 0.15540  0.38780  0.57723  Biso   1.000  O
  C80      1.0000 0.32680  0.17850  0.59999  Biso   1.000  C
  C81      1.0000 0.32770  0.19570  0.63445  Biso   1.000  C
  H36      1.0000 0.32920  0.24420  0.64120  Biso   1.000  H
  O63      1.0000 0.12800  0.44370  0.52450  Biso   1.000  O
  C82      1.0000 0.13470  0.61090  0.06070  Biso   1.000  C
  C83      1.0000 0.13060  0.54010  0.07530  Biso   1.000  C
  H37      1.0000 0.12510  0.49990  0.06070  Biso   1.000  H
  C84      1.0000 0.13470  0.53130  0.11000  Biso   1.000  C
  C85      1.0000 0.13680  0.65950  0.11829  Biso   1.000  C
  C86      1.0000 0.13710  0.66740  0.08130  Biso   1.000  C
  H38      1.0000 0.13910  0.71360  0.07160  Biso   1.000  H
  C87      1.0000 0.32650  0.60670  0.09068  Biso   1.000  C
  H39      1.0000 0.32540  0.59390  0.06710  Biso   1.000  H
  S10      1.0000 0.18044  0.89589  0.04154  Biso   1.000  S
  O64      1.0000 0.14963  0.67851  0.00597  Biso   1.000  O
  O65      1.0000 0.26277  0.92304  0.04136  Biso   1.000  O
  O66      1.0000 0.34240  0.79728  0.08055  Biso   1.000  O
  O67      1.0000 0.30590  0.71393  0.04279  Biso   1.000  O
  O68      1.0000 0.17757  0.82575  0.02570  Biso   1.000  O
  C88      1.0000 0.32440  0.73450  0.07260  Biso   1.000  C
  O69      1.0000 0.15540  0.88780  0.07723  Biso   1.000  O
  C89      1.0000 0.32680  0.67850  0.09999  Biso   1.000  C
  C90      1.0000 0.32770  0.69570  0.13445  Biso   1.000  C
  H40      1.0000 0.32920  0.74420  0.14120  Biso   1.000  H
  O70      1.0000 0.12800  0.94370  0.02450  Biso   1.000  O
  C91      1.0000 0.63470  0.11090  0.06070  Biso   1.000  C
  C92      1.0000 0.63060  0.04010  0.07530  Biso   1.000  C
  H41      1.0000 0.62510  0.99990  0.06070  Biso   1.000  H
  C93      1.0000 0.63470  0.03130  0.11000  Biso   1.000  C
  C94      1.0000 0.63680  0.15950  0.11829  Biso   1.000  C
  C95      1.0000 0.63710  0.16740  0.08130  Biso   1.000  C
  H42      1.0000 0.63910  0.21360  0.07160  Biso   1.000  H
  C96      1.0000 0.82650  0.10670  0.09068  Biso   1.000  C
  H43      1.0000 0.82540  0.09390  0.06710  Biso   1.000  H
  S11      1.0000 0.68044  0.39589  0.04154  Biso   1.000  S
  O71      1.0000 0.64963  0.17851  0.00597  Biso   1.000  O
  O72      1.0000 0.76277  0.42304  0.04136  Biso   1.000  O
  O73      1.0000 0.84240  0.29728  0.08055  Biso   1.000  O
  O74      1.0000 0.80590  0.21393  0.04279  Biso   1.000  O
  O75      1.0000 0.67757  0.32575  0.02570  Biso   1.000  O
  C97      1.0000 0.82440  0.23450  0.07260  Biso   1.000  C
  O76      1.0000 0.65540  0.38780  0.07723  Biso   1.000  O
  C98      1.0000 0.82680  0.17850  0.09999  Biso   1.000  C
  C99      1.0000 0.82770  0.19570  0.13445  Biso   1.000  C
  H44      1.0000 0.82920  0.24420  0.14120  Biso   1.000  H
  O77      1.0000 0.62800  0.44370  0.02450  Biso   1.000  O
  C100     1.0000 0.63470  0.61090  0.56070  Biso   1.000  C
  C101     1.0000 0.63060  0.54010  0.57530  Biso   1.000  C
  H45      1.0000 0.62510  0.49990  0.56070  Biso   1.000  H
  C102     1.0000 0.63470  0.53130  0.61000  Biso   1.000  C
  C103     1.0000 0.63680  0.65950  0.61829  Biso   1.000  C
  C104     1.0000 0.63710  0.66740  0.58130  Biso   1.000  C
  H46      1.0000 0.63910  0.71360  0.57160  Biso   1.000  H
  C105     1.0000 0.82650  0.60670  0.59068  Biso   1.000  C
  H47      1.0000 0.82540  0.59390  0.56710  Biso   1.000  H
  S12      1.0000 0.68044  0.89589  0.54154  Biso   1.000  S
  O78      1.0000 0.64963  0.67851  0.50597  Biso   1.000  O
  O79      1.0000 0.76277  0.92304  0.54136  Biso   1.000  O
  O80      1.0000 0.84240  0.79728  0.58055  Biso   1.000  O
  O81      1.0000 0.80590  0.71393  0.54279  Biso   1.000  O
  O82      1.0000 0.67757  0.82575  0.52570  Biso   1.000  O
  C106     1.0000 0.82440  0.73450  0.57260  Biso   1.000  C
  O83      1.0000 0.65540  0.88780  0.57723  Biso   1.000  O
  C107     1.0000 0.82680  0.67850  0.59999  Biso   1.000  C
  C108     1.0000 0.82770  0.69570  0.63445  Biso   1.000  C
  H48      1.0000 0.82920  0.74420  0.64120  Biso   1.000  H
  O84      1.0000 0.62800  0.94370  0.52450  Biso   1.000  O
  C109     1.0000 0.61530  0.63910  0.56070  Biso   1.000  C
  C110     1.0000 0.61940  0.70990  0.57530  Biso   1.000  C
  H49      1.0000 0.62490  0.75010  0.56070  Biso   1.000  H
  C111     1.0000 0.61530  0.71870  0.61000  Biso   1.000  C
  C112     1.0000 0.61320  0.59050  0.61829  Biso   1.000  C
  C113     1.0000 0.61290  0.58260  0.58130  Biso   1.000  C
  H50      1.0000 0.61090  0.53640  0.57160  Biso   1.000  H
  C114     1.0000 0.42350  0.64330  0.59068  Biso   1.000  C
  H51      1.0000 0.42460  0.65610  0.56710  Biso   1.000  H
  S13      1.0000 0.56956  0.35411  0.54154  Biso   1.000  S
  O85      1.0000 0.60037  0.57149  0.50597  Biso   1.000  O
  O86      1.0000 0.48723  0.32696  0.54136  Biso   1.000  O
  O87      1.0000 0.40760  0.45272  0.58055  Biso   1.000  O
  O88      1.0000 0.44410  0.53607  0.54279  Biso   1.000  O
  O89      1.0000 0.57243  0.42425  0.52570  Biso   1.000  O
  C115     1.0000 0.42560  0.51550  0.57260  Biso   1.000  C
  O90      1.0000 0.59460  0.36220  0.57723  Biso   1.000  O
  C116     1.0000 0.42320  0.57150  0.59999  Biso   1.000  C
  C117     1.0000 0.42230  0.55430  0.63445  Biso   1.000  C
  H52      1.0000 0.42080  0.50580  0.64120  Biso   1.000  H
  O91      1.0000 0.62200  0.30630  0.52450  Biso   1.000  O
  C118     1.0000 0.61530  0.13910  0.06070  Biso   1.000  C
  C119     1.0000 0.61940  0.20990  0.07530  Biso   1.000  C
  H53      1.0000 0.62490  0.25010  0.06070  Biso   1.000  H
  C120     1.0000 0.61530  0.21870  0.11000  Biso   1.000  C
  C121     1.0000 0.61320  0.09050  0.11829  Biso   1.000  C
  C122     1.0000 0.61290  0.08260  0.08130  Biso   1.000  C
  H54      1.0000 0.61090  0.03640  0.07160  Biso   1.000  H
  C123     1.0000 0.42350  0.14330  0.09068  Biso   1.000  C
  H55      1.0000 0.42460  0.15610  0.06710  Biso   1.000  H
  S14      1.0000 0.56956  0.85411  0.04154  Biso   1.000  S
  O92      1.0000 0.60037  0.07149  0.00597  Biso   1.000  O
  O93      1.0000 0.48723  0.82696  0.04136  Biso   1.000  O
  O94      1.0000 0.40760  0.95272  0.08055  Biso   1.000  O
  O95      1.0000 0.44410  0.03607  0.04279  Biso   1.000  O
  O96      1.0000 0.57243  0.92425  0.02570  Biso   1.000  O
  C124     1.0000 0.42560  0.01550  0.07260  Biso   1.000  C
  O97      1.0000 0.59460  0.86220  0.07723  Biso   1.000  O
  C125     1.0000 0.42320  0.07150  0.09999  Biso   1.000  C
  C126     1.0000 0.42230  0.05430  0.13445  Biso   1.000  C
  H56      1.0000 0.42080  0.00580  0.14120  Biso   1.000  H
  O98      1.0000 0.62200  0.80630  0.02450  Biso   1.000  O
  C127     1.0000 0.11530  0.63910  0.06070  Biso   1.000  C
  C128     1.0000 0.11940  0.70990  0.07530  Biso   1.000  C
  H57      1.0000 0.12490  0.75010  0.06070  Biso   1.000  H
  C129     1.0000 0.11530  0.71870  0.11000  Biso   1.000  C
  C130     1.0000 0.11320  0.59050  0.11829  Biso   1.000  C
  C131     1.0000 0.11290  0.58260  0.08130  Biso   1.000  C
  H58      1.0000 0.11090  0.53640  0.07160  Biso   1.000  H
  C132     1.0000 0.92350  0.64330  0.09068  Biso   1.000  C
  H59      1.0000 0.92460  0.65610  0.06710  Biso   1.000  H
  S15      1.0000 0.06956  0.35411  0.04154  Biso   1.000  S
  O99      1.0000 0.10037  0.57149  0.00597  Biso   1.000  O
  O100     1.0000 0.98723  0.32696  0.04136  Biso   1.000  O
  O101     1.0000 0.90760  0.45272  0.08055  Biso   1.000  O
  O102     1.0000 0.94410  0.53607  0.04279  Biso   1.000  O
  O103     1.0000 0.07243  0.42425  0.02570  Biso   1.000  O
  C133     1.0000 0.92560  0.51550  0.07260  Biso   1.000  C
  O104     1.0000 0.09460  0.36220  0.07723  Biso   1.000  O
  C134     1.0000 0.92320  0.57150  0.09999  Biso   1.000  C
  C135     1.0000 0.92230  0.55430  0.13445  Biso   1.000  C
  H60      1.0000 0.92080  0.50580  0.14120  Biso   1.000  H
  O105     1.0000 0.12200  0.30630  0.02450  Biso   1.000  O
  C136     1.0000 0.11530  0.13910  0.56070  Biso   1.000  C
  C137     1.0000 0.11940  0.20990  0.57530  Biso   1.000  C
  H61      1.0000 0.12490  0.25010  0.56070  Biso   1.000  H
  C138     1.0000 0.11530  0.21870  0.61000  Biso   1.000  C
  C139     1.0000 0.11320  0.09050  0.61829  Biso   1.000  C
  C140     1.0000 0.11290  0.08260  0.58130  Biso   1.000  C
  H62      1.0000 0.11090  0.03640  0.57160  Biso   1.000  H
  C141     1.0000 0.92350  0.14330  0.59068  Biso   1.000  C
  H63      1.0000 0.92460  0.15610  0.56710  Biso   1.000  H
  S16      1.0000 0.06956  0.85411  0.54154  Biso   1.000  S
  O106     1.0000 0.10037  0.07149  0.50597  Biso   1.000  O
  O107     1.0000 0.98723  0.82696  0.54136  Biso   1.000  O
  O108     1.0000 0.90760  0.95272  0.58055  Biso   1.000  O
  O109     1.0000 0.94410  0.03607  0.54279  Biso   1.000  O
  O110     1.0000 0.07243  0.92425  0.52570  Biso   1.000  O
  C142     1.0000 0.92560  0.01550  0.57260  Biso   1.000  C
  O111     1.0000 0.09460  0.86220  0.57723  Biso   1.000  O
  C143     1.0000 0.92320  0.07150  0.59999  Biso   1.000  C
  C144     1.0000 0.92230  0.05430  0.63445  Biso   1.000  C
  H64      1.0000 0.92080  0.00580  0.64120  Biso   1.000  H
  O112     1.0000 0.12200  0.80630  0.52450  Biso   1.000  O
  C145     1.0000 0.38470  0.88910  0.81070  Biso   1.000  C
  C146     1.0000 0.38060  0.95990  0.82530  Biso   1.000  C
  H65      1.0000 0.37510  0.00010  0.81070  Biso   1.000  H
  C147     1.0000 0.38470  0.96870  0.86000  Biso   1.000  C
  C148     1.0000 0.38680  0.84050  0.86829  Biso   1.000  C
  C149     1.0000 0.38710  0.83260  0.83130  Biso   1.000  C
  H66      1.0000 0.38910  0.78640  0.82160  Biso   1.000  H
  C150     1.0000 0.57650  0.89330  0.84068  Biso   1.000  C
  H67      1.0000 0.57540  0.90610  0.81710  Biso   1.000  H
  S17      1.0000 0.43044  0.60411  0.79154  Biso   1.000  S
  O113     1.0000 0.39963  0.82149  0.75597  Biso   1.000  O
  O114     1.0000 0.51277  0.57696  0.79136  Biso   1.000  O
  O115     1.0000 0.59240  0.70272  0.83055  Biso   1.000  O
  O116     1.0000 0.55590  0.78607  0.79279  Biso   1.000  O
  O117     1.0000 0.42757  0.67425  0.77570  Biso   1.000  O
  C151     1.0000 0.57440  0.76550  0.82260  Biso   1.000  C
  O118     1.0000 0.40540  0.61220  0.82723  Biso   1.000  O
  C152     1.0000 0.57680  0.82150  0.84999  Biso   1.000  C
  C153     1.0000 0.57770  0.80430  0.88445  Biso   1.000  C
  H68      1.0000 0.57920  0.75580  0.89120  Biso   1.000  H
  O119     1.0000 0.37800  0.55630  0.77450  Biso   1.000  O
  C154     1.0000 0.38470  0.38910  0.31070  Biso   1.000  C
  C155     1.0000 0.38060  0.45990  0.32530  Biso   1.000  C
  H69      1.0000 0.37510  0.50010  0.31070  Biso   1.000  H
  C156     1.0000 0.38470  0.46870  0.36000  Biso   1.000  C
  C157     1.0000 0.38680  0.34050  0.36829  Biso   1.000  C
  C158     1.0000 0.38710  0.33260  0.33130  Biso   1.000  C
  H70      1.0000 0.38910  0.28640  0.32160  Biso   1.000  H
  C159     1.0000 0.57650  0.39330  0.34068  Biso   1.000  C
  H71      1.0000 0.57540  0.40610  0.31710  Biso   1.000  H
  S18      1.0000 0.43044  0.10411  0.29154  Biso   1.000  S
  O120     1.0000 0.39963  0.32149  0.25597  Biso   1.000  O
  O121     1.0000 0.51277  0.07696  0.29136  Biso   1.000  O
  O122     1.0000 0.59240  0.20272  0.33055  Biso   1.000  O
  O123     1.0000 0.55590  0.28607  0.29279  Biso   1.000  O
  O124     1.0000 0.42757  0.17425  0.27570  Biso   1.000  O
  C160     1.0000 0.57440  0.26550  0.32260  Biso   1.000  C
  O125     1.0000 0.40540  0.11220  0.32723  Biso   1.000  O
  C161     1.0000 0.57680  0.32150  0.34999  Biso   1.000  C
  C162     1.0000 0.57770  0.30430  0.38445  Biso   1.000  C
  H72      1.0000 0.57920  0.25580  0.39120  Biso   1.000  H
  O126     1.0000 0.37800  0.05630  0.27450  Biso   1.000  O
  C163     1.0000 0.88470  0.88910  0.31070  Biso   1.000  C
  C164     1.0000 0.88060  0.95990  0.32530  Biso   1.000  C
  H73      1.0000 0.87510  0.00010  0.31070  Biso   1.000  H
  C165     1.0000 0.88470  0.96870  0.36000  Biso   1.000  C
  C166     1.0000 0.88680  0.84050  0.36829  Biso   1.000  C
  C167     1.0000 0.88710  0.83260  0.33130  Biso   1.000  C
  H74      1.0000 0.88910  0.78640  0.32160  Biso   1.000  H
  C168     1.0000 0.07650  0.89330  0.34068  Biso   1.000  C
  H75      1.0000 0.07540  0.90610  0.31710  Biso   1.000  H
  S19      1.0000 0.93044  0.60411  0.29154  Biso   1.000  S
  O127     1.0000 0.89963  0.82149  0.25597  Biso   1.000  O
  O128     1.0000 0.01277  0.57696  0.29136  Biso   1.000  O
  O129     1.0000 0.09240  0.70272  0.33055  Biso   1.000  O
  O130     1.0000 0.05590  0.78607  0.29279  Biso   1.000  O
  O131     1.0000 0.92757  0.67425  0.27570  Biso   1.000  O
  C169     1.0000 0.07440  0.76550  0.32260  Biso   1.000  C
  O132     1.0000 0.90540  0.61220  0.32723  Biso   1.000  O
  C170     1.0000 0.07680  0.82150  0.34999  Biso   1.000  C
  C171     1.0000 0.07770  0.80430  0.38445  Biso   1.000  C
  H76      1.0000 0.07920  0.75580  0.39120  Biso   1.000  H
  O133     1.0000 0.87800  0.55630  0.27450  Biso   1.000  O
  C172     1.0000 0.88470  0.38910  0.81070  Biso   1.000  C
  C173     1.0000 0.88060  0.45990  0.82530  Biso   1.000  C
  H77      1.0000 0.87510  0.50010  0.81070  Biso   1.000  H
  C174     1.0000 0.88470  0.46870  0.86000  Biso   1.000  C
  C175     1.0000 0.88680  0.34050  0.86829  Biso   1.000  C
  C176     1.0000 0.88710  0.33260  0.83130  Biso   1.000  C
  H78      1.0000 0.88910  0.28640  0.82160  Biso   1.000  H
  C177     1.0000 0.07650  0.39330  0.84068  Biso   1.000  C
  H79      1.0000 0.07540  0.40610  0.81710  Biso   1.000  H
  S20      1.0000 0.93044  0.10411  0.79154  Biso   1.000  S
  O134     1.0000 0.89963  0.32149  0.75597  Biso   1.000  O
  O135     1.0000 0.01277  0.07696  0.79136  Biso   1.000  O
  O136     1.0000 0.09240  0.20272  0.83055  Biso   1.000  O
  O137     1.0000 0.05590  0.28607  0.79279  Biso   1.000  O
  O138     1.0000 0.92757  0.17425  0.77570  Biso   1.000  O
  C178     1.0000 0.07440  0.26550  0.82260  Biso   1.000  C
  O139     1.0000 0.90540  0.11220  0.82723  Biso   1.000  O
  C179     1.0000 0.07680  0.32150  0.84999  Biso   1.000  C
  C180     1.0000 0.07770  0.30430  0.88445  Biso   1.000  C
  H80      1.0000 0.07920  0.25580  0.89120  Biso   1.000  H
  O140     1.0000 0.87800  0.05630  0.77450  Biso   1.000  O
  C181     1.0000 0.86530  0.36090  0.81070  Biso   1.000  C
  C182     1.0000 0.86940  0.29010  0.82530  Biso   1.000  C
  H81      1.0000 0.87490  0.24990  0.81070  Biso   1.000  H
  C183     1.0000 0.86530  0.28130  0.86000  Biso   1.000  C
  C184     1.0000 0.86320  0.40950  0.86829  Biso   1.000  C
  C185     1.0000 0.86290  0.41740  0.83130  Biso   1.000  C
  H82      1.0000 0.86090  0.46360  0.82160  Biso   1.000  H
  C186     1.0000 0.67350  0.35670  0.84068  Biso   1.000  C
  H83      1.0000 0.67460  0.34390  0.81710  Biso   1.000  H
  S21      1.0000 0.81956  0.64589  0.79154  Biso   1.000  S
  O141     1.0000 0.85037  0.42851  0.75597  Biso   1.000  O
  O142     1.0000 0.73723  0.67304  0.79136  Biso   1.000  O
  O143     1.0000 0.65760  0.54728  0.83055  Biso   1.000  O
  O144     1.0000 0.69410  0.46393  0.79279  Biso   1.000  O
  O145     1.0000 0.82243  0.57575  0.77570  Biso   1.000  O
  C187     1.0000 0.67560  0.48450  0.82260  Biso   1.000  C
  O146     1.0000 0.84460  0.63780  0.82723  Biso   1.000  O
  C188     1.0000 0.67320  0.42850  0.84999  Biso   1.000  C
  C189     1.0000 0.67230  0.44570  0.88445  Biso   1.000  C
  H84      1.0000 0.67080  0.49420  0.89120  Biso   1.000  H
  O147     1.0000 0.87200  0.69370  0.77450  Biso   1.000  O
  C190     1.0000 0.86530  0.86090  0.31070  Biso   1.000  C
  C191     1.0000 0.86940  0.79010  0.32530  Biso   1.000  C
  H85      1.0000 0.87490  0.74990  0.31070  Biso   1.000  H
  C192     1.0000 0.86530  0.78130  0.36000  Biso   1.000  C
  C193     1.0000 0.86320  0.90950  0.36829  Biso   1.000  C
  C194     1.0000 0.86290  0.91740  0.33130  Biso   1.000  C
  H86      1.0000 0.86090  0.96360  0.32160  Biso   1.000  H
  C195     1.0000 0.67350  0.85670  0.34068  Biso   1.000  C
  H87      1.0000 0.67460  0.84390  0.31710  Biso   1.000  H
  S22      1.0000 0.81956  0.14589  0.29154  Biso   1.000  S
  O148     1.0000 0.85037  0.92851  0.25597  Biso   1.000  O
  O149     1.0000 0.73723  0.17304  0.29136  Biso   1.000  O
  O150     1.0000 0.65760  0.04728  0.33055  Biso   1.000  O
  O151     1.0000 0.69410  0.96393  0.29279  Biso   1.000  O
  O152     1.0000 0.82243  0.07575  0.27570  Biso   1.000  O
  C196     1.0000 0.67560  0.98450  0.32260  Biso   1.000  C
  O153     1.0000 0.84460  0.13780  0.32723  Biso   1.000  O
  C197     1.0000 0.67320  0.92850  0.34999  Biso   1.000  C
  C198     1.0000 0.67230  0.94570  0.38445  Biso   1.000  C
  H88      1.0000 0.67080  0.99420  0.39120  Biso   1.000  H
  O154     1.0000 0.87200  0.19370  0.27450  Biso   1.000  O
  C199     1.0000 0.36530  0.36090  0.31070  Biso   1.000  C
  C200     1.0000 0.36940  0.29010  0.32530  Biso   1.000  C
  H89      1.0000 0.37490  0.24990  0.31070  Biso   1.000  H
  C201     1.0000 0.36530  0.28130  0.36000  Biso   1.000  C
  C202     1.0000 0.36320  0.40950  0.36829  Biso   1.000  C
  C203     1.0000 0.36290  0.41740  0.33130  Biso   1.000  C
  H90      1.0000 0.36090  0.46360  0.32160  Biso   1.000  H
  C204     1.0000 0.17350  0.35670  0.34068  Biso   1.000  C
  H91      1.0000 0.17460  0.34390  0.31710  Biso   1.000  H
  S23      1.0000 0.31956  0.64589  0.29154  Biso   1.000  S
  O155     1.0000 0.35037  0.42851  0.25597  Biso   1.000  O
  O156     1.0000 0.23723  0.67304  0.29136  Biso   1.000  O
  O157     1.0000 0.15760  0.54728  0.33055  Biso   1.000  O
  O158     1.0000 0.19410  0.46393  0.29279  Biso   1.000  O
  O159     1.0000 0.32243  0.57575  0.27570  Biso   1.000  O
  C205     1.0000 0.17560  0.48450  0.32260  Biso   1.000  C
  O160     1.0000 0.34460  0.63780  0.32723  Biso   1.000  O
  C206     1.0000 0.17320  0.42850  0.34999  Biso   1.000  C
  C207     1.0000 0.17230  0.44570  0.38445  Biso   1.000  C
  H92      1.0000 0.17080  0.49420  0.39120  Biso   1.000  H
  O161     1.0000 0.37200  0.69370  0.27450  Biso   1.000  O
  C208     1.0000 0.36530  0.86090  0.81070  Biso   1.000  C
  C209     1.0000 0.36940  0.79010  0.82530  Biso   1.000  C
  H93      1.0000 0.37490  0.74990  0.81070  Biso   1.000  H
  C210     1.0000 0.36530  0.78130  0.86000  Biso   1.000  C
  C211     1.0000 0.36320  0.90950  0.86829  Biso   1.000  C
  C212     1.0000 0.36290  0.91740  0.83130  Biso   1.000  C
  H94      1.0000 0.36090  0.96360  0.82160  Biso   1.000  H
  C213     1.0000 0.17350  0.85670  0.84068  Biso   1.000  C
  H95      1.0000 0.17460  0.84390  0.81710  Biso   1.000  H
  S24      1.0000 0.31956  0.14589  0.79154  Biso   1.000  S
  O162     1.0000 0.35037  0.92851  0.75597  Biso   1.000  O
  O163     1.0000 0.23723  0.17304  0.79136  Biso   1.000  O
  O164     1.0000 0.15760  0.04728  0.83055  Biso   1.000  O
  O165     1.0000 0.19410  0.96393  0.79279  Biso   1.000  O
  O166     1.0000 0.32243  0.07575  0.77570  Biso   1.000  O
  C214     1.0000 0.17560  0.98450  0.82260  Biso   1.000  C
  O167     1.0000 0.34460  0.13780  0.82723  Biso   1.000  O
  C215     1.0000 0.17320  0.92850  0.84999  Biso   1.000  C
  C216     1.0000 0.17230  0.94570  0.88445  Biso   1.000  C
  H96      1.0000 0.17080  0.99420  0.89120  Biso   1.000  H
  O168     1.0000 0.37200  0.19370  0.77450  Biso   1.000  O
  C217     1.0000 0.86530  0.88910  0.43930  Biso   1.000  C
  C218     1.0000 0.86940  0.95990  0.42470  Biso   1.000  C
  H97      1.0000 0.87490  0.00010  0.43930  Biso   1.000  H
  C219     1.0000 0.86530  0.96870  0.39000  Biso   1.000  C
  C220     1.0000 0.86320  0.84050  0.38171  Biso   1.000  C
  C221     1.0000 0.86290  0.83260  0.41870  Biso   1.000  C
  H98      1.0000 0.86090  0.78640  0.42840  Biso   1.000  H
  C222     1.0000 0.67350  0.89330  0.40932  Biso   1.000  C
  H99      1.0000 0.67460  0.90610  0.43290  Biso   1.000  H
  S25      1.0000 0.81956  0.60411  0.45846  Biso   1.000  S
  O169     1.0000 0.85037  0.82149  0.49403  Biso   1.000  O
  O170     1.0000 0.73723  0.57696  0.45864  Biso   1.000  O
  O171     1.0000 0.65760  0.70272  0.41945  Biso   1.000  O
  O172     1.0000 0.69410  0.78607  0.45721  Biso   1.000  O
  O173     1.0000 0.82243  0.67425  0.47430  Biso   1.000  O
  C223     1.0000 0.67560  0.76550  0.42740  Biso   1.000  C
  O174     1.0000 0.84460  0.61220  0.42277  Biso   1.000  O
  C224     1.0000 0.67320  0.82150  0.40001  Biso   1.000  C
  C225     1.0000 0.67230  0.80430  0.36555  Biso   1.000  C
  H100     1.0000 0.67080  0.75580  0.35880  Biso   1.000  H
  O175     1.0000 0.87200  0.55630  0.47550  Biso   1.000  O
  C226     1.0000 0.86530  0.38910  0.93930  Biso   1.000  C
  C227     1.0000 0.86940  0.45990  0.92470  Biso   1.000  C
  H101     1.0000 0.87490  0.50010  0.93930  Biso   1.000  H
  C228     1.0000 0.86530  0.46870  0.89000  Biso   1.000  C
  C229     1.0000 0.86320  0.34050  0.88171  Biso   1.000  C
  C230     1.0000 0.86290  0.33260  0.91870  Biso   1.000  C
  H102     1.0000 0.86090  0.28640  0.92840  Biso   1.000  H
  C231     1.0000 0.67350  0.39330  0.90932  Biso   1.000  C
  H103     1.0000 0.67460  0.40610  0.93290  Biso   1.000  H
  S26      1.0000 0.81956  0.10411  0.95846  Biso   1.000  S
  O176     1.0000 0.85037  0.32149  0.99403  Biso   1.000  O
  O177     1.0000 0.73723  0.07696  0.95864  Biso   1.000  O
  O178     1.0000 0.65760  0.20272  0.91945  Biso   1.000  O
  O179     1.0000 0.69410  0.28607  0.95721  Biso   1.000  O
  O180     1.0000 0.82243  0.17425  0.97430  Biso   1.000  O
  C232     1.0000 0.67560  0.26550  0.92740  Biso   1.000  C
  O181     1.0000 0.84460  0.11220  0.92277  Biso   1.000  O
  C233     1.0000 0.67320  0.32150  0.90001  Biso   1.000  C
  C234     1.0000 0.67230  0.30430  0.86555  Biso   1.000  C
  H104     1.0000 0.67080  0.25580  0.85880  Biso   1.000  H
  O182     1.0000 0.87200  0.05630  0.97550  Biso   1.000  O
  C235     1.0000 0.36530  0.88910  0.93930  Biso   1.000  C
  C236     1.0000 0.36940  0.95990  0.92470  Biso   1.000  C
  H105     1.0000 0.37490  0.00010  0.93930  Biso   1.000  H
  C237     1.0000 0.36530  0.96870  0.89000  Biso   1.000  C
  C238     1.0000 0.36320  0.84050  0.88171  Biso   1.000  C
  C239     1.0000 0.36290  0.83260  0.91870  Biso   1.000  C
  H106     1.0000 0.36090  0.78640  0.92840  Biso   1.000  H
  C240     1.0000 0.17350  0.89330  0.90932  Biso   1.000  C
  H107     1.0000 0.17460  0.90610  0.93290  Biso   1.000  H
  S27      1.0000 0.31956  0.60411  0.95846  Biso   1.000  S
  O183     1.0000 0.35037  0.82149  0.99403  Biso   1.000  O
  O184     1.0000 0.23723  0.57696  0.95864  Biso   1.000  O
  O185     1.0000 0.15760  0.70272  0.91945  Biso   1.000  O
  O186     1.0000 0.19410  0.78607  0.95721  Biso   1.000  O
  O187     1.0000 0.32243  0.67425  0.97430  Biso   1.000  O
  C241     1.0000 0.17560  0.76550  0.92740  Biso   1.000  C
  O188     1.0000 0.34460  0.61220  0.92277  Biso   1.000  O
  C242     1.0000 0.17320  0.82150  0.90001  Biso   1.000  C
  C243     1.0000 0.17230  0.80430  0.86555  Biso   1.000  C
  H108     1.0000 0.17080  0.75580  0.85880  Biso   1.000  H
  O189     1.0000 0.37200  0.55630  0.97550  Biso   1.000  O
  C244     1.0000 0.36530  0.38910  0.43930  Biso   1.000  C
  C245     1.0000 0.36940  0.45990  0.42470  Biso   1.000  C
  H109     1.0000 0.37490  0.50010  0.43930  Biso   1.000  H
  C246     1.0000 0.36530  0.46870  0.39000  Biso   1.000  C
  C247     1.0000 0.36320  0.34050  0.38171  Biso   1.000  C
  C248     1.0000 0.36290  0.33260  0.41870  Biso   1.000  C
  H110     1.0000 0.36090  0.28640  0.42840  Biso   1.000  H
  C249     1.0000 0.17350  0.39330  0.40932  Biso   1.000  C
  H111     1.0000 0.17460  0.40610  0.43290  Biso   1.000  H
  S28      1.0000 0.31956  0.10411  0.45846  Biso   1.000  S
  O190     1.0000 0.35037  0.32149  0.49403  Biso   1.000  O
  O191     1.0000 0.23723  0.07696  0.45864  Biso   1.000  O
  O192     1.0000 0.15760  0.20272  0.41945  Biso   1.000  O
  O193     1.0000 0.19410  0.28607  0.45721  Biso   1.000  O
  O194     1.0000 0.32243  0.17425  0.47430  Biso   1.000  O
  C250     1.0000 0.17560  0.26550  0.42740  Biso   1.000  C
  O195     1.0000 0.34460  0.11220  0.42277  Biso   1.000  O
  C251     1.0000 0.17320  0.32150  0.40001  Biso   1.000  C
  C252     1.0000 0.17230  0.30430  0.36555  Biso   1.000  C
  H112     1.0000 0.17080  0.25580  0.35880  Biso   1.000  H
  O196     1.0000 0.37200  0.05630  0.47550  Biso   1.000  O
  C253     1.0000 0.38470  0.36090  0.43930  Biso   1.000  C
  C254     1.0000 0.38060  0.29010  0.42470  Biso   1.000  C
  H113     1.0000 0.37510  0.24990  0.43930  Biso   1.000  H
  C255     1.0000 0.38470  0.28130  0.39000  Biso   1.000  C
  C256     1.0000 0.38680  0.40950  0.38171  Biso   1.000  C
  C257     1.0000 0.38710  0.41740  0.41870  Biso   1.000  C
  H114     1.0000 0.38910  0.46360  0.42840  Biso   1.000  H
  C258     1.0000 0.57650  0.35670  0.40932  Biso   1.000  C
  H115     1.0000 0.57540  0.34390  0.43290  Biso   1.000  H
  S29      1.0000 0.43044  0.64589  0.45846  Biso   1.000  S
  O197     1.0000 0.39963  0.42851  0.49403  Biso   1.000  O
  O198     1.0000 0.51277  0.67304  0.45864  Biso   1.000  O
  O199     1.0000 0.59240  0.54728  0.41945  Biso   1.000  O
  O200     1.0000 0.55590  0.46393  0.45721  Biso   1.000  O
  O201     1.0000 0.42757  0.57575  0.47430  Biso   1.000  O
  C259     1.0000 0.57440  0.48450  0.42740  Biso   1.000  C
  O202     1.0000 0.40540  0.63780  0.42277  Biso   1.000  O
  C260     1.0000 0.57680  0.42850  0.40001  Biso   1.000  C
  C261     1.0000 0.57770  0.44570  0.36555  Biso   1.000  C
  H116     1.0000 0.57920  0.49420  0.35880  Biso   1.000  H
  O203     1.0000 0.37800  0.69370  0.47550  Biso   1.000  O
  C262     1.0000 0.38470  0.86090  0.93930  Biso   1.000  C
  C263     1.0000 0.38060  0.79010  0.92470  Biso   1.000  C
  H117     1.0000 0.37510  0.74990  0.93930  Biso   1.000  H
  C264     1.0000 0.38470  0.78130  0.89000  Biso   1.000  C
  C265     1.0000 0.38680  0.90950  0.88171  Biso   1.000  C
  C266     1.0000 0.38710  0.91740  0.91870  Biso   1.000  C
  H118     1.0000 0.38910  0.96360  0.92840  Biso   1.000  H
  C267     1.0000 0.57650  0.85670  0.90932  Biso   1.000  C
  H119     1.0000 0.57540  0.84390  0.93290  Biso   1.000  H
  S30      1.0000 0.43044  0.14589  0.95846  Biso   1.000  S
  O204     1.0000 0.39963  0.92851  0.99403  Biso   1.000  O
  O205     1.0000 0.51277  0.17304  0.95864  Biso   1.000  O
  O206     1.0000 0.59240  0.04728  0.91945  Biso   1.000  O
  O207     1.0000 0.55590  0.96393  0.95721  Biso   1.000  O
  O208     1.0000 0.42757  0.07575  0.97430  Biso   1.000  O
  C268     1.0000 0.57440  0.98450  0.92740  Biso   1.000  C
  O209     1.0000 0.40540  0.13780  0.92277  Biso   1.000  O
  C269     1.0000 0.57680  0.92850  0.90001  Biso   1.000  C
  C270     1.0000 0.57770  0.94570  0.86555  Biso   1.000  C
  H120     1.0000 0.57920  0.99420  0.85880  Biso   1.000  H
  O210     1.0000 0.37800  0.19370  0.97550  Biso   1.000  O
  C271     1.0000 0.88470  0.36090  0.93930  Biso   1.000  C
  C272     1.0000 0.88060  0.29010  0.92470  Biso   1.000  C
  H121     1.0000 0.87510  0.24990  0.93930  Biso   1.000  H
  C273     1.0000 0.88470  0.28130  0.89000  Biso   1.000  C
  C274     1.0000 0.88680  0.40950  0.88171  Biso   1.000  C
  C275     1.0000 0.88710  0.41740  0.91870  Biso   1.000  C
  H122     1.0000 0.88910  0.46360  0.92840  Biso   1.000  H
  C276     1.0000 0.07650  0.35670  0.90932  Biso   1.000  C
  H123     1.0000 0.07540  0.34390  0.93290  Biso   1.000  H
  S31      1.0000 0.93044  0.64589  0.95846  Biso   1.000  S
  O211     1.0000 0.89963  0.42851  0.99403  Biso   1.000  O
  O212     1.0000 0.01277  0.67304  0.95864  Biso   1.000  O
  O213     1.0000 0.09240  0.54728  0.91945  Biso   1.000  O
  O214     1.0000 0.05590  0.46393  0.95721  Biso   1.000  O
  O215     1.0000 0.92757  0.57575  0.97430  Biso   1.000  O
  C277     1.0000 0.07440  0.48450  0.92740  Biso   1.000  C
  O216     1.0000 0.90540  0.63780  0.92277  Biso   1.000  O
  C278     1.0000 0.07680  0.42850  0.90001  Biso   1.000  C
  C279     1.0000 0.07770  0.44570  0.86555  Biso   1.000  C
  H124     1.0000 0.07920  0.49420  0.85880  Biso   1.000  H
  O217     1.0000 0.87800  0.69370  0.97550  Biso   1.000  O
  C280     1.0000 0.88470  0.86090  0.43930  Biso   1.000  C
  C281     1.0000 0.88060  0.79010  0.42470  Biso   1.000  C
  H125     1.0000 0.87510  0.74990  0.43930  Biso   1.000  H
  C282     1.0000 0.88470  0.78130  0.39000  Biso   1.000  C
  C283     1.0000 0.88680  0.90950  0.38171  Biso   1.000  C
  C284     1.0000 0.88710  0.91740  0.41870  Biso   1.000  C
  H126     1.0000 0.88910  0.96360  0.42840  Biso   1.000  H
  C285     1.0000 0.07650  0.85670  0.40932  Biso   1.000  C
  H127     1.0000 0.07540  0.84390  0.43290  Biso   1.000  H
  S32      1.0000 0.93044  0.14589  0.45846  Biso   1.000  S
  O218     1.0000 0.89963  0.92851  0.49403  Biso   1.000  O
  O219     1.0000 0.01277  0.17304  0.45864  Biso   1.000  O
  O220     1.0000 0.09240  0.04728  0.41945  Biso   1.000  O
  O221     1.0000 0.05590  0.96393  0.45721  Biso   1.000  O
  O222     1.0000 0.92757  0.07575  0.47430  Biso   1.000  O
  C286     1.0000 0.07440  0.98450  0.42740  Biso   1.000  C
  O223     1.0000 0.90540  0.13780  0.42277  Biso   1.000  O
  C287     1.0000 0.07680  0.92850  0.40001  Biso   1.000  C
  C288     1.0000 0.07770  0.94570  0.36555  Biso   1.000  C
  H128     1.0000 0.07920  0.99420  0.35880  Biso   1.000  H
  O224     1.0000 0.87800  0.19370  0.47550  Biso   1.000  O
  Fe1      1.0000 0.37500  0.37500  0.20508  Biso   1.000  Fe
  Fe2      1.0000 0.37500  0.87500  0.70508  Biso   1.000  Fe
  Fe3      1.0000 0.87500  0.37500  0.70508  Biso   1.000  Fe
  Fe4      1.0000 0.87500  0.87500  0.20508  Biso   1.000  Fe
  Fe5      1.0000 0.37500  0.37500  0.54492  Biso   1.000  Fe
  Fe6      1.0000 0.37500  0.87500  0.04492  Biso   1.000  Fe
  Fe7      1.0000 0.87500  0.37500  0.04492  Biso   1.000  Fe
  Fe8      1.0000 0.87500  0.87500  0.54492  Biso   1.000  Fe
  Fe9      1.0000 0.62500  0.62500  0.79492  Biso   1.000  Fe
  Fe10     1.0000 0.62500  0.12500  0.29492  Biso   1.000  Fe
  Fe11     1.0000 0.12500  0.62500  0.29492  Biso   1.000  Fe
  Fe12     1.0000 0.12500  0.12500  0.79492  Biso   1.000  Fe
  Fe13     1.0000 0.62500  0.62500  0.45508  Biso   1.000  Fe
  Fe14     1.0000 0.62500  0.12500  0.95508  Biso   1.000  Fe
  Fe15     1.0000 0.12500  0.62500  0.95508  Biso   1.000  Fe
  Fe16     1.0000 0.12500  0.12500  0.45508  Biso   1.000  Fe
  Fe17     1.0000 0.50000  0.25000  0.25000  Biso   1.000  Fe
  Fe18     1.0000 0.00000  0.25000  0.75000  Biso   1.000  Fe
  Fe19     1.0000 0.25000  0.50000  0.25000  Biso   1.000  Fe
  Fe20     1.0000 0.25000  0.00000  0.75000  Biso   1.000  Fe
  Fe21     1.0000 0.75000  0.00000  0.25000  Biso   1.000  Fe
  Fe22     1.0000 0.25000  0.25000  0.50000  Biso   1.000  Fe
  Fe23     1.0000 0.25000  0.75000  0.00000  Biso   1.000  Fe
  Fe24     1.0000 0.75000  0.25000  0.00000  Biso   1.000  Fe
  Fe25     1.0000 0.50000  0.50000  0.50000  Biso   1.000  Fe
  Fe26     1.0000 0.50000  0.00000  0.00000  Biso   1.000  Fe
  Fe27     1.0000 0.00000  0.50000  0.00000  Biso   1.000  Fe
  Fe28     1.0000 0.00000  0.00000  0.50000  Biso   1.000  Fe
  Fe29     1.0000 0.50000  0.75000  0.75000  Biso   1.000  Fe
  Fe30     1.0000 0.00000  0.75000  0.25000  Biso   1.000  Fe
  Fe31     1.0000 0.75000  0.50000  0.75000  Biso   1.000  Fe
  Fe32     1.0000 0.75000  0.75000  0.50000  Biso   1.000  Fe
  C289     1.0000 0.62500  0.12500  0.22704  Biso   1.000  C
  C290     1.0000 0.62500  0.62500  0.72704  Biso   1.000  C
  C291     1.0000 0.12500  0.62500  0.22704  Biso   1.000  C
  C292     1.0000 0.12500  0.12500  0.72704  Biso   1.000  C
  C293     1.0000 0.12500  0.12500  0.52296  Biso   1.000  C
  C294     1.0000 0.12500  0.62500  0.02296  Biso   1.000  C
  C295     1.0000 0.62500  0.62500  0.52296  Biso   1.000  C
  C296     1.0000 0.62500  0.12500  0.02296  Biso   1.000  C
  C297     1.0000 0.37500  0.87500  0.77296  Biso   1.000  C
  C298     1.0000 0.37500  0.37500  0.27296  Biso   1.000  C
  C299     1.0000 0.87500  0.37500  0.77296  Biso   1.000  C
  C300     1.0000 0.87500  0.87500  0.27296  Biso   1.000  C
  C301     1.0000 0.87500  0.87500  0.47704  Biso   1.000  C
  C302     1.0000 0.87500  0.37500  0.97704  Biso   1.000  C
  C303     1.0000 0.37500  0.37500  0.47704  Biso   1.000  C
  C304     1.0000 0.37500  0.87500  0.97704  Biso   1.000  C
  H129     1.0000 0.62500  0.98500  0.12500  Biso   1.000  H
  H130     1.0000 0.62500  0.48500  0.62500  Biso   1.000  H
  H131     1.0000 0.12500  0.76500  0.12500  Biso   1.000  H
  H132     1.0000 0.12500  0.26500  0.62500  Biso   1.000  H
  H133     1.0000 0.62500  0.76500  0.62500  Biso   1.000  H
  H134     1.0000 0.12500  0.98500  0.62500  Biso   1.000  H
  H135     1.0000 0.12500  0.48500  0.12500  Biso   1.000  H
  H136     1.0000 0.62500  0.26500  0.12500  Biso   1.000  H
  H137     1.0000 0.37500  0.01500  0.87500  Biso   1.000  H
  H138     1.0000 0.37500  0.51500  0.37500  Biso   1.000  H
  H139     1.0000 0.87500  0.23500  0.87500  Biso   1.000  H
  H140     1.0000 0.87500  0.73500  0.37500  Biso   1.000  H
  H141     1.0000 0.87500  0.01500  0.37500  Biso   1.000  H
  H142     1.0000 0.87500  0.51500  0.87500  Biso   1.000  H
  H143     1.0000 0.37500  0.23500  0.37500  Biso   1.000  H
  H144     1.0000 0.37500  0.73500  0.87500  Biso   1.000  H
