data_image0
_cell_length_a       38.8511
_cell_length_b       38.8511
_cell_length_c       18.7521
_cell_angle_alpha    90
_cell_angle_beta     90
_cell_angle_gamma    90

_symmetry_space_group_name_H-M    "P 1"
_symmetry_int_tables_number       1

loop_
  _symmetry_equiv_pos_as_xyz
  'x, y, z'

loop_
  _atom_site_label
  _atom_site_occupancy
  _atom_site_fract_x
  _atom_site_fract_y
  _atom_site_fract_z
  _atom_site_thermal_displace_type
  _atom_site_B_iso_or_equiv
  _atom_site_type_symbol
  Zr1      1.0000 0.99006  0.81077  0.08577  Biso   1.000  Zr
  Zr2      1.0000 0.94490  0.73612  0.03495  Biso   1.000  Zr
  Zr3      1.0000 0.03524  0.73631  0.03584  Biso   1.000  Zr
  C1       1.0000 0.04710  0.84360  0.19020  Biso   1.000  C
  C2       1.0000 0.06340  0.87610  0.22140  Biso   1.000  C
  C3       1.0000 0.08540  0.87560  0.27870  Biso   1.000  C
  H1       1.0000 0.09126  0.85465  0.29942  Biso   1.000  H
  C4       1.0000 0.09880  0.90500  0.30570  Biso   1.000  C
  H2       1.0000 0.11185  0.90398  0.34721  Biso   1.000  H
  C5       1.0000 0.09360  0.93560  0.27380  Biso   1.000  C
  C6       1.0000 0.07270  0.93740  0.21150  Biso   1.000  C
  H3       1.0000 0.06986  0.95804  0.18698  Biso   1.000  H
  C7       1.0000 0.05640  0.90710  0.18840  Biso   1.000  C
  H4       1.0000 0.04092  0.90793  0.15068  Biso   1.000  H
  C8       1.0000 0.06470  0.15380  0.19120  Biso   1.000  C
  C9       1.0000 0.07750  0.12220  0.21710  Biso   1.000  C
  C10      1.0000 0.06860  0.09090  0.18810  Biso   1.000  C
  H5       1.0000 0.05552  0.09028  0.14659  Biso   1.000  H
  C11      1.0000 0.07890  0.06020  0.22030  Biso   1.000  C
  H6       1.0000 0.06850  0.03968  0.20618  Biso   1.000  H
  C12      1.0000 0.10190  0.05930  0.26830  Biso   1.000  C
  C13      1.0000 0.11230  0.09000  0.29800  Biso   1.000  C
  H7       1.0000 0.12794  0.08977  0.33544  Biso   1.000  H
  C14      1.0000 0.10030  0.12020  0.27410  Biso   1.000  C
  H8       1.0000 0.10747  0.14039  0.29618  Biso   1.000  H
  C15      1.0000 0.21190  0.99030  0.65240  Biso   1.000  C
  C16      1.0000 0.19550  0.99150  0.58060  Biso   1.000  C
  C17      1.0000 0.18510  0.96040  0.54570  Biso   1.000  C
  H9       1.0000 0.19008  0.93914  0.56622  Biso   1.000  H
  C18      1.0000 0.16850  0.96190  0.48450  Biso   1.000  C
  H10      1.0000 0.16189  0.94146  0.46283  Biso   1.000  H
  C19      1.0000 0.16030  0.99380  0.44990  Biso   1.000  C
  C20      1.0000 0.16970  0.02310  0.47710  Biso   1.000  C
  H11      1.0000 0.16578  0.04380  0.45372  Biso   1.000  H
  C21      1.0000 0.18710  0.02170  0.54730  Biso   1.000  C
  H12      1.0000 0.19268  0.04231  0.56971  Biso   1.000  H
  C22      1.0000 0.13940  0.99470  0.38350  Biso   1.000  C
  C23      1.0000 0.11170  0.02590  0.30670  Biso   1.000  C
  C24      1.0000 0.10800  0.96720  0.29720  Biso   1.000  C
  C25      1.0000 0.82412  0.74210  0.06295  Biso   1.000  C
  H13      1.0000 0.83606  0.73734  0.02113  Biso   1.000  H
  C26      1.0000 0.78827  0.74210  0.06295  Biso   1.000  C
  H14      1.0000 0.77632  0.73736  0.02113  Biso   1.000  H
  N1       1.0000 0.12720  0.96450  0.35950  Biso   1.000  N
  N2       1.0000 0.09890  0.99680  0.27260  Biso   1.000  N
  N3       1.0000 0.13180  0.02610  0.36000  Biso   1.000  N
  O1       1.0000 0.02610  0.84750  0.13980  Biso   1.000  O
  O2       1.0000 0.05480  0.81698  0.22460  Biso   1.000  O
  O3       1.0000 0.04461  0.15271  0.13910  Biso   1.000  O
  O4       1.0000 0.07355  0.18210  0.22320  Biso   1.000  O
  O5       1.0000 0.21910  0.01902  0.67720  Biso   1.000  O
  O6       1.0000 0.21870  0.96137  0.67910  Biso   1.000  O
  O7       1.0000 0.99038  0.76754  0.01590  Biso   1.000  O
  O8       1.0000 0.99039  0.70730  0.05500  Biso   1.000  O
  O9       1.0000 0.03540  0.78130  0.10110  Biso   1.000  O
  O10      1.0000 0.94530  0.77968  0.10400  Biso   1.000  O
  O11      1.0000 0.09000  0.73900  0.06070  Biso   1.000  O
  O12      1.0000 0.88896  0.73800  0.05360  Biso   1.000  O
  H15      1.0000 0.15195  0.75782  0.17047  Biso   1.000  H
  H16      1.0000 0.15195  0.72709  0.11629  Biso   1.000  H
  H17      1.0000 0.15195  0.76510  0.08824  Biso   1.000  H
  Zr4      1.0000 0.49006  0.31077  0.58577  Biso   1.000  Zr
  Zr5      1.0000 0.44490  0.23612  0.53495  Biso   1.000  Zr
  Zr6      1.0000 0.53524  0.23631  0.53584  Biso   1.000  Zr
  C27      1.0000 0.54710  0.34360  0.69020  Biso   1.000  C
  C28      1.0000 0.56340  0.37610  0.72140  Biso   1.000  C
  C29      1.0000 0.58540  0.37560  0.77870  Biso   1.000  C
  H18      1.0000 0.59126  0.35465  0.79942  Biso   1.000  H
  C30      1.0000 0.59880  0.40500  0.80570  Biso   1.000  C
  H19      1.0000 0.61185  0.40398  0.84721  Biso   1.000  H
  C31      1.0000 0.59360  0.43560  0.77380  Biso   1.000  C
  C32      1.0000 0.57270  0.43740  0.71150  Biso   1.000  C
  H20      1.0000 0.56986  0.45804  0.68698  Biso   1.000  H
  C33      1.0000 0.55640  0.40710  0.68840  Biso   1.000  C
  H21      1.0000 0.54092  0.40793  0.65068  Biso   1.000  H
  C34      1.0000 0.56470  0.65380  0.69120  Biso   1.000  C
  C35      1.0000 0.57750  0.62220  0.71710  Biso   1.000  C
  C36      1.0000 0.56860  0.59090  0.68810  Biso   1.000  C
  H22      1.0000 0.55552  0.59028  0.64659  Biso   1.000  H
  C37      1.0000 0.57890  0.56020  0.72030  Biso   1.000  C
  H23      1.0000 0.56850  0.53968  0.70618  Biso   1.000  H
  C38      1.0000 0.60190  0.55930  0.76830  Biso   1.000  C
  C39      1.0000 0.61230  0.59000  0.79800  Biso   1.000  C
  H24      1.0000 0.62794  0.58977  0.83544  Biso   1.000  H
  C40      1.0000 0.60030  0.62020  0.77410  Biso   1.000  C
  H25      1.0000 0.60747  0.64039  0.79618  Biso   1.000  H
  C41      1.0000 0.71190  0.49030  0.15240  Biso   1.000  C
  C42      1.0000 0.69550  0.49150  0.08060  Biso   1.000  C
  C43      1.0000 0.68510  0.46040  0.04570  Biso   1.000  C
  H26      1.0000 0.69008  0.43914  0.06622  Biso   1.000  H
  C44      1.0000 0.66850  0.46190  0.98450  Biso   1.000  C
  H27      1.0000 0.66189  0.44146  0.96283  Biso   1.000  H
  C45      1.0000 0.66030  0.49380  0.94990  Biso   1.000  C
  C46      1.0000 0.66970  0.52310  0.97710  Biso   1.000  C
  H28      1.0000 0.66578  0.54380  0.95372  Biso   1.000  H
  C47      1.0000 0.68710  0.52170  0.04730  Biso   1.000  C
  H29      1.0000 0.69268  0.54231  0.06971  Biso   1.000  H
  C48      1.0000 0.63940  0.49470  0.88350  Biso   1.000  C
  C49      1.0000 0.61170  0.52590  0.80670  Biso   1.000  C
  C50      1.0000 0.60800  0.46720  0.79720  Biso   1.000  C
  C51      1.0000 0.32412  0.24210  0.56295  Biso   1.000  C
  H30      1.0000 0.33606  0.23734  0.52113  Biso   1.000  H
  C52      1.0000 0.28827  0.24210  0.56295  Biso   1.000  C
  H31      1.0000 0.27632  0.23736  0.52113  Biso   1.000  H
  N4       1.0000 0.62720  0.46450  0.85950  Biso   1.000  N
  N5       1.0000 0.59890  0.49680  0.77260  Biso   1.000  N
  N6       1.0000 0.63180  0.52610  0.86000  Biso   1.000  N
  O13      1.0000 0.52610  0.34750  0.63980  Biso   1.000  O
  O14      1.0000 0.55480  0.31698  0.72460  Biso   1.000  O
  O15      1.0000 0.54461  0.65271  0.63910  Biso   1.000  O
  O16      1.0000 0.57355  0.68210  0.72320  Biso   1.000  O
  O17      1.0000 0.71910  0.51902  0.17720  Biso   1.000  O
  O18      1.0000 0.71870  0.46137  0.17910  Biso   1.000  O
  O19      1.0000 0.49038  0.26754  0.51590  Biso   1.000  O
  O20      1.0000 0.49039  0.20730  0.55500  Biso   1.000  O
  O21      1.0000 0.53540  0.28130  0.60110  Biso   1.000  O
  O22      1.0000 0.44530  0.27968  0.60400  Biso   1.000  O
  O23      1.0000 0.59000  0.23900  0.56070  Biso   1.000  O
  O24      1.0000 0.38896  0.23800  0.55360  Biso   1.000  O
  H32      1.0000 0.65195  0.25782  0.67047  Biso   1.000  H
  H33      1.0000 0.65195  0.22709  0.61629  Biso   1.000  H
  H34      1.0000 0.65195  0.26510  0.58824  Biso   1.000  H
  Zr7      1.0000 0.00994  0.18923  0.08577  Biso   1.000  Zr
  Zr8      1.0000 0.05510  0.26388  0.03495  Biso   1.000  Zr
  Zr9      1.0000 0.96476  0.26369  0.03584  Biso   1.000  Zr
  C53      1.0000 0.95290  0.15640  0.19020  Biso   1.000  C
  C54      1.0000 0.93660  0.12390  0.22140  Biso   1.000  C
  C55      1.0000 0.91460  0.12440  0.27870  Biso   1.000  C
  H35      1.0000 0.90874  0.14535  0.29942  Biso   1.000  H
  C56      1.0000 0.90120  0.09500  0.30570  Biso   1.000  C
  H36      1.0000 0.88815  0.09602  0.34721  Biso   1.000  H
  C57      1.0000 0.90640  0.06440  0.27380  Biso   1.000  C
  C58      1.0000 0.92730  0.06260  0.21150  Biso   1.000  C
  H37      1.0000 0.93014  0.04196  0.18698  Biso   1.000  H
  C59      1.0000 0.94360  0.09290  0.18840  Biso   1.000  C
  H38      1.0000 0.95908  0.09207  0.15068  Biso   1.000  H
  C60      1.0000 0.93530  0.84620  0.19120  Biso   1.000  C
  C61      1.0000 0.92250  0.87780  0.21710  Biso   1.000  C
  C62      1.0000 0.93140  0.90910  0.18810  Biso   1.000  C
  H39      1.0000 0.94448  0.90972  0.14659  Biso   1.000  H
  C63      1.0000 0.92110  0.93980  0.22030  Biso   1.000  C
  H40      1.0000 0.93150  0.96032  0.20618  Biso   1.000  H
  C64      1.0000 0.89810  0.94070  0.26830  Biso   1.000  C
  C65      1.0000 0.88770  0.91000  0.29800  Biso   1.000  C
  H41      1.0000 0.87206  0.91023  0.33544  Biso   1.000  H
  C66      1.0000 0.89970  0.87980  0.27410  Biso   1.000  C
  H42      1.0000 0.89253  0.85961  0.29618  Biso   1.000  H
  C67      1.0000 0.78810  0.00970  0.65240  Biso   1.000  C
  C68      1.0000 0.80450  0.00850  0.58060  Biso   1.000  C
  C69      1.0000 0.81490  0.03960  0.54570  Biso   1.000  C
  H43      1.0000 0.80992  0.06086  0.56622  Biso   1.000  H
  C70      1.0000 0.83150  0.03810  0.48450  Biso   1.000  C
  H44      1.0000 0.83811  0.05854  0.46283  Biso   1.000  H
  C71      1.0000 0.83970  0.00620  0.44990  Biso   1.000  C
  C72      1.0000 0.83030  0.97690  0.47710  Biso   1.000  C
  H45      1.0000 0.83422  0.95620  0.45372  Biso   1.000  H
  C73      1.0000 0.81290  0.97830  0.54730  Biso   1.000  C
  H46      1.0000 0.80732  0.95769  0.56971  Biso   1.000  H
  C74      1.0000 0.86060  0.00530  0.38350  Biso   1.000  C
  C75      1.0000 0.88830  0.97410  0.30670  Biso   1.000  C
  C76      1.0000 0.89200  0.03280  0.29720  Biso   1.000  C
  C77      1.0000 0.17588  0.25790  0.06295  Biso   1.000  C
  H47      1.0000 0.16394  0.26266  0.02113  Biso   1.000  H
  C78      1.0000 0.21173  0.25790  0.06295  Biso   1.000  C
  H48      1.0000 0.22368  0.26264  0.02113  Biso   1.000  H
  N7       1.0000 0.87280  0.03550  0.35950  Biso   1.000  N
  N8       1.0000 0.90110  0.00320  0.27260  Biso   1.000  N
  N9       1.0000 0.86820  0.97390  0.36000  Biso   1.000  N
  O25      1.0000 0.97390  0.15250  0.13980  Biso   1.000  O
  O26      1.0000 0.94520  0.18302  0.22460  Biso   1.000  O
  O27      1.0000 0.95539  0.84729  0.13910  Biso   1.000  O
  O28      1.0000 0.92645  0.81790  0.22320  Biso   1.000  O
  O29      1.0000 0.78090  0.98098  0.67720  Biso   1.000  O
  O30      1.0000 0.78130  0.03863  0.67910  Biso   1.000  O
  O31      1.0000 0.00962  0.23246  0.01590  Biso   1.000  O
  O32      1.0000 0.00961  0.29270  0.05500  Biso   1.000  O
  O33      1.0000 0.96460  0.21870  0.10110  Biso   1.000  O
  O34      1.0000 0.05470  0.22032  0.10400  Biso   1.000  O
  O35      1.0000 0.91000  0.26100  0.06070  Biso   1.000  O
  O36      1.0000 0.11104  0.26200  0.05360  Biso   1.000  O
  H49      1.0000 0.84805  0.24218  0.17047  Biso   1.000  H
  H50      1.0000 0.84805  0.27291  0.11629  Biso   1.000  H
  H51      1.0000 0.84805  0.23490  0.08824  Biso   1.000  H
  Zr10     1.0000 0.50994  0.68923  0.58577  Biso   1.000  Zr
  Zr11     1.0000 0.55510  0.76388  0.53495  Biso   1.000  Zr
  Zr12     1.0000 0.46476  0.76369  0.53584  Biso   1.000  Zr
  C79      1.0000 0.45290  0.65640  0.69020  Biso   1.000  C
  C80      1.0000 0.43660  0.62390  0.72140  Biso   1.000  C
  C81      1.0000 0.41460  0.62440  0.77870  Biso   1.000  C
  H52      1.0000 0.40874  0.64535  0.79942  Biso   1.000  H
  C82      1.0000 0.40120  0.59500  0.80570  Biso   1.000  C
  H53      1.0000 0.38815  0.59602  0.84721  Biso   1.000  H
  C83      1.0000 0.40640  0.56440  0.77380  Biso   1.000  C
  C84      1.0000 0.42730  0.56260  0.71150  Biso   1.000  C
  H54      1.0000 0.43014  0.54196  0.68698  Biso   1.000  H
  C85      1.0000 0.44360  0.59290  0.68840  Biso   1.000  C
  H55      1.0000 0.45908  0.59207  0.65068  Biso   1.000  H
  C86      1.0000 0.43530  0.34620  0.69120  Biso   1.000  C
  C87      1.0000 0.42250  0.37780  0.71710  Biso   1.000  C
  C88      1.0000 0.43140  0.40910  0.68810  Biso   1.000  C
  H56      1.0000 0.44448  0.40972  0.64659  Biso   1.000  H
  C89      1.0000 0.42110  0.43980  0.72030  Biso   1.000  C
  H57      1.0000 0.43150  0.46032  0.70618  Biso   1.000  H
  C90      1.0000 0.39810  0.44070  0.76830  Biso   1.000  C
  C91      1.0000 0.38770  0.41000  0.79800  Biso   1.000  C
  H58      1.0000 0.37206  0.41023  0.83544  Biso   1.000  H
  C92      1.0000 0.39970  0.37980  0.77410  Biso   1.000  C
  H59      1.0000 0.39253  0.35961  0.79618  Biso   1.000  H
  C93      1.0000 0.28810  0.50970  0.15240  Biso   1.000  C
  C94      1.0000 0.30450  0.50850  0.08060  Biso   1.000  C
  C95      1.0000 0.31490  0.53960  0.04570  Biso   1.000  C
  H60      1.0000 0.30992  0.56086  0.06622  Biso   1.000  H
  C96      1.0000 0.33150  0.53810  0.98450  Biso   1.000  C
  H61      1.0000 0.33811  0.55854  0.96283  Biso   1.000  H
  C97      1.0000 0.33970  0.50620  0.94990  Biso   1.000  C
  C98      1.0000 0.33030  0.47690  0.97710  Biso   1.000  C
  H62      1.0000 0.33422  0.45620  0.95372  Biso   1.000  H
  C99      1.0000 0.31290  0.47830  0.04730  Biso   1.000  C
  H63      1.0000 0.30732  0.45769  0.06971  Biso   1.000  H
  C100     1.0000 0.36060  0.50530  0.88350  Biso   1.000  C
  C101     1.0000 0.38830  0.47410  0.80670  Biso   1.000  C
  C102     1.0000 0.39200  0.53280  0.79720  Biso   1.000  C
  C103     1.0000 0.67588  0.75790  0.56295  Biso   1.000  C
  H64      1.0000 0.66394  0.76266  0.52113  Biso   1.000  H
  C104     1.0000 0.71173  0.75790  0.56295  Biso   1.000  C
  H65      1.0000 0.72368  0.76264  0.52113  Biso   1.000  H
  N10      1.0000 0.37280  0.53550  0.85950  Biso   1.000  N
  N11      1.0000 0.40110  0.50320  0.77260  Biso   1.000  N
  N12      1.0000 0.36820  0.47390  0.86000  Biso   1.000  N
  O37      1.0000 0.47390  0.65250  0.63980  Biso   1.000  O
  O38      1.0000 0.44520  0.68302  0.72460  Biso   1.000  O
  O39      1.0000 0.45539  0.34729  0.63910  Biso   1.000  O
  O40      1.0000 0.42645  0.31790  0.72320  Biso   1.000  O
  O41      1.0000 0.28090  0.48098  0.17720  Biso   1.000  O
  O42      1.0000 0.28130  0.53863  0.17910  Biso   1.000  O
  O43      1.0000 0.50962  0.73246  0.51590  Biso   1.000  O
  O44      1.0000 0.50961  0.79270  0.55500  Biso   1.000  O
  O45      1.0000 0.46460  0.71870  0.60110  Biso   1.000  O
  O46      1.0000 0.55470  0.72032  0.60400  Biso   1.000  O
  O47      1.0000 0.41000  0.76100  0.56070  Biso   1.000  O
  O48      1.0000 0.61104  0.76200  0.55360  Biso   1.000  O
  H66      1.0000 0.34805  0.74218  0.67047  Biso   1.000  H
  H67      1.0000 0.34805  0.77291  0.61629  Biso   1.000  H
  H68      1.0000 0.34805  0.73490  0.58824  Biso   1.000  H
  Zr13     1.0000 0.81077  0.00994  0.91423  Biso   1.000  Zr
  Zr14     1.0000 0.73612  0.05510  0.96505  Biso   1.000  Zr
  Zr15     1.0000 0.73631  0.96476  0.96416  Biso   1.000  Zr
  C105     1.0000 0.84360  0.95290  0.80980  Biso   1.000  C
  C106     1.0000 0.87610  0.93660  0.77860  Biso   1.000  C
  C107     1.0000 0.87560  0.91460  0.72130  Biso   1.000  C
  H69      1.0000 0.85465  0.90874  0.70058  Biso   1.000  H
  C108     1.0000 0.90500  0.90120  0.69430  Biso   1.000  C
  H70      1.0000 0.90398  0.88815  0.65279  Biso   1.000  H
  C109     1.0000 0.93560  0.90640  0.72620  Biso   1.000  C
  C110     1.0000 0.93740  0.92730  0.78850  Biso   1.000  C
  H71      1.0000 0.95804  0.93014  0.81302  Biso   1.000  H
  C111     1.0000 0.90710  0.94360  0.81160  Biso   1.000  C
  H72      1.0000 0.90793  0.95908  0.84932  Biso   1.000  H
  C112     1.0000 0.15380  0.93530  0.80880  Biso   1.000  C
  C113     1.0000 0.12220  0.92250  0.78290  Biso   1.000  C
  C114     1.0000 0.09090  0.93140  0.81190  Biso   1.000  C
  H73      1.0000 0.09028  0.94448  0.85341  Biso   1.000  H
  C115     1.0000 0.06020  0.92110  0.77970  Biso   1.000  C
  H74      1.0000 0.03968  0.93150  0.79382  Biso   1.000  H
  C116     1.0000 0.05930  0.89810  0.73170  Biso   1.000  C
  C117     1.0000 0.09000  0.88770  0.70200  Biso   1.000  C
  H75      1.0000 0.08977  0.87206  0.66456  Biso   1.000  H
  C118     1.0000 0.12020  0.89970  0.72590  Biso   1.000  C
  H76      1.0000 0.14039  0.89253  0.70382  Biso   1.000  H
  C119     1.0000 0.99030  0.78810  0.34760  Biso   1.000  C
  C120     1.0000 0.99150  0.80450  0.41940  Biso   1.000  C
  C121     1.0000 0.96040  0.81490  0.45430  Biso   1.000  C
  H77      1.0000 0.93914  0.80992  0.43378  Biso   1.000  H
  C122     1.0000 0.96190  0.83150  0.51550  Biso   1.000  C
  H78      1.0000 0.94146  0.83811  0.53717  Biso   1.000  H
  C123     1.0000 0.99380  0.83970  0.55010  Biso   1.000  C
  C124     1.0000 0.02310  0.83030  0.52290  Biso   1.000  C
  H79      1.0000 0.04380  0.83422  0.54628  Biso   1.000  H
  C125     1.0000 0.02170  0.81290  0.45270  Biso   1.000  C
  H80      1.0000 0.04231  0.80732  0.43029  Biso   1.000  H
  C126     1.0000 0.99470  0.86060  0.61650  Biso   1.000  C
  C127     1.0000 0.02590  0.88830  0.69330  Biso   1.000  C
  C128     1.0000 0.96720  0.89200  0.70280  Biso   1.000  C
  C129     1.0000 0.74210  0.17588  0.93705  Biso   1.000  C
  H81      1.0000 0.73734  0.16394  0.97887  Biso   1.000  H
  C130     1.0000 0.74210  0.21173  0.93705  Biso   1.000  C
  H82      1.0000 0.73736  0.22368  0.97887  Biso   1.000  H
  N13      1.0000 0.96450  0.87280  0.64050  Biso   1.000  N
  N14      1.0000 0.99680  0.90110  0.72740  Biso   1.000  N
  N15      1.0000 0.02610  0.86820  0.64000  Biso   1.000  N
  O49      1.0000 0.84750  0.97390  0.86020  Biso   1.000  O
  O50      1.0000 0.81698  0.94520  0.77540  Biso   1.000  O
  O51      1.0000 0.15271  0.95539  0.86090  Biso   1.000  O
  O52      1.0000 0.18210  0.92645  0.77680  Biso   1.000  O
  O53      1.0000 0.01902  0.78090  0.32280  Biso   1.000  O
  O54      1.0000 0.96137  0.78130  0.32090  Biso   1.000  O
  O55      1.0000 0.76754  0.00962  0.98410  Biso   1.000  O
  O56      1.0000 0.70730  0.00961  0.94500  Biso   1.000  O
  O57      1.0000 0.78130  0.96460  0.89890  Biso   1.000  O
  O58      1.0000 0.77968  0.05470  0.89600  Biso   1.000  O
  O59      1.0000 0.73900  0.91000  0.93930  Biso   1.000  O
  O60      1.0000 0.73800  0.11104  0.94640  Biso   1.000  O
  H83      1.0000 0.75782  0.84805  0.82953  Biso   1.000  H
  H84      1.0000 0.72709  0.84805  0.88371  Biso   1.000  H
  H85      1.0000 0.76510  0.84805  0.91176  Biso   1.000  H
  Zr16     1.0000 0.31077  0.50994  0.41423  Biso   1.000  Zr
  Zr17     1.0000 0.23612  0.55510  0.46505  Biso   1.000  Zr
  Zr18     1.0000 0.23631  0.46476  0.46416  Biso   1.000  Zr
  C131     1.0000 0.34360  0.45290  0.30980  Biso   1.000  C
  C132     1.0000 0.37610  0.43660  0.27860  Biso   1.000  C
  C133     1.0000 0.37560  0.41460  0.22130  Biso   1.000  C
  H86      1.0000 0.35465  0.40874  0.20058  Biso   1.000  H
  C134     1.0000 0.40500  0.40120  0.19430  Biso   1.000  C
  H87      1.0000 0.40398  0.38815  0.15279  Biso   1.000  H
  C135     1.0000 0.43560  0.40640  0.22620  Biso   1.000  C
  C136     1.0000 0.43740  0.42730  0.28850  Biso   1.000  C
  H88      1.0000 0.45804  0.43014  0.31302  Biso   1.000  H
  C137     1.0000 0.40710  0.44360  0.31160  Biso   1.000  C
  H89      1.0000 0.40793  0.45908  0.34932  Biso   1.000  H
  C138     1.0000 0.65380  0.43530  0.30880  Biso   1.000  C
  C139     1.0000 0.62220  0.42250  0.28290  Biso   1.000  C
  C140     1.0000 0.59090  0.43140  0.31190  Biso   1.000  C
  H90      1.0000 0.59028  0.44448  0.35341  Biso   1.000  H
  C141     1.0000 0.56020  0.42110  0.27970  Biso   1.000  C
  H91      1.0000 0.53968  0.43150  0.29382  Biso   1.000  H
  C142     1.0000 0.55930  0.39810  0.23170  Biso   1.000  C
  C143     1.0000 0.59000  0.38770  0.20200  Biso   1.000  C
  H92      1.0000 0.58977  0.37206  0.16456  Biso   1.000  H
  C144     1.0000 0.62020  0.39970  0.22590  Biso   1.000  C
  H93      1.0000 0.64039  0.39253  0.20382  Biso   1.000  H
  C145     1.0000 0.49030  0.28810  0.84760  Biso   1.000  C
  C146     1.0000 0.49150  0.30450  0.91940  Biso   1.000  C
  C147     1.0000 0.46040  0.31490  0.95430  Biso   1.000  C
  H94      1.0000 0.43914  0.30992  0.93378  Biso   1.000  H
  C148     1.0000 0.46190  0.33150  0.01550  Biso   1.000  C
  H95      1.0000 0.44146  0.33811  0.03717  Biso   1.000  H
  C149     1.0000 0.49380  0.33970  0.05010  Biso   1.000  C
  C150     1.0000 0.52310  0.33030  0.02290  Biso   1.000  C
  H96      1.0000 0.54380  0.33422  0.04628  Biso   1.000  H
  C151     1.0000 0.52170  0.31290  0.95270  Biso   1.000  C
  H97      1.0000 0.54231  0.30732  0.93029  Biso   1.000  H
  C152     1.0000 0.49470  0.36060  0.11650  Biso   1.000  C
  C153     1.0000 0.52590  0.38830  0.19330  Biso   1.000  C
  C154     1.0000 0.46720  0.39200  0.20280  Biso   1.000  C
  C155     1.0000 0.24210  0.67588  0.43705  Biso   1.000  C
  H98      1.0000 0.23734  0.66394  0.47887  Biso   1.000  H
  C156     1.0000 0.24210  0.71173  0.43705  Biso   1.000  C
  H99      1.0000 0.23736  0.72368  0.47887  Biso   1.000  H
  N16      1.0000 0.46450  0.37280  0.14050  Biso   1.000  N
  N17      1.0000 0.49680  0.40110  0.22740  Biso   1.000  N
  N18      1.0000 0.52610  0.36820  0.14000  Biso   1.000  N
  O61      1.0000 0.34750  0.47390  0.36020  Biso   1.000  O
  O62      1.0000 0.31698  0.44520  0.27540  Biso   1.000  O
  O63      1.0000 0.65271  0.45539  0.36090  Biso   1.000  O
  O64      1.0000 0.68210  0.42645  0.27680  Biso   1.000  O
  O65      1.0000 0.51902  0.28090  0.82280  Biso   1.000  O
  O66      1.0000 0.46137  0.28130  0.82090  Biso   1.000  O
  O67      1.0000 0.26754  0.50962  0.48410  Biso   1.000  O
  O68      1.0000 0.20730  0.50961  0.44500  Biso   1.000  O
  O69      1.0000 0.28130  0.46460  0.39890  Biso   1.000  O
  O70      1.0000 0.27968  0.55470  0.39600  Biso   1.000  O
  O71      1.0000 0.23900  0.41000  0.43930  Biso   1.000  O
  O72      1.0000 0.23800  0.61104  0.44640  Biso   1.000  O
  H100     1.0000 0.25782  0.34805  0.32953  Biso   1.000  H
  H101     1.0000 0.22709  0.34805  0.38371  Biso   1.000  H
  H102     1.0000 0.26510  0.34805  0.41176  Biso   1.000  H
  Zr19     1.0000 0.18923  0.99006  0.91423  Biso   1.000  Zr
  Zr20     1.0000 0.26388  0.94490  0.96505  Biso   1.000  Zr
  Zr21     1.0000 0.26369  0.03524  0.96416  Biso   1.000  Zr
  C157     1.0000 0.15640  0.04710  0.80980  Biso   1.000  C
  C158     1.0000 0.12390  0.06340  0.77860  Biso   1.000  C
  C159     1.0000 0.12440  0.08540  0.72130  Biso   1.000  C
  H103     1.0000 0.14535  0.09126  0.70058  Biso   1.000  H
  C160     1.0000 0.09500  0.09880  0.69430  Biso   1.000  C
  H104     1.0000 0.09602  0.11185  0.65279  Biso   1.000  H
  C161     1.0000 0.06440  0.09360  0.72620  Biso   1.000  C
  C162     1.0000 0.06260  0.07270  0.78850  Biso   1.000  C
  H105     1.0000 0.04196  0.06986  0.81302  Biso   1.000  H
  C163     1.0000 0.09290  0.05640  0.81160  Biso   1.000  C
  H106     1.0000 0.09207  0.04092  0.84932  Biso   1.000  H
  C164     1.0000 0.84620  0.06470  0.80880  Biso   1.000  C
  C165     1.0000 0.87780  0.07750  0.78290  Biso   1.000  C
  C166     1.0000 0.90910  0.06860  0.81190  Biso   1.000  C
  H107     1.0000 0.90972  0.05552  0.85341  Biso   1.000  H
  C167     1.0000 0.93980  0.07890  0.77970  Biso   1.000  C
  H108     1.0000 0.96032  0.06850  0.79382  Biso   1.000  H
  C168     1.0000 0.94070  0.10190  0.73170  Biso   1.000  C
  C169     1.0000 0.91000  0.11230  0.70200  Biso   1.000  C
  H109     1.0000 0.91023  0.12794  0.66456  Biso   1.000  H
  C170     1.0000 0.87980  0.10030  0.72590  Biso   1.000  C
  H110     1.0000 0.85961  0.10747  0.70382  Biso   1.000  H
  C171     1.0000 0.00970  0.21190  0.34760  Biso   1.000  C
  C172     1.0000 0.00850  0.19550  0.41940  Biso   1.000  C
  C173     1.0000 0.03960  0.18510  0.45430  Biso   1.000  C
  H111     1.0000 0.06086  0.19008  0.43378  Biso   1.000  H
  C174     1.0000 0.03810  0.16850  0.51550  Biso   1.000  C
  H112     1.0000 0.05854  0.16189  0.53717  Biso   1.000  H
  C175     1.0000 0.00620  0.16030  0.55010  Biso   1.000  C
  C176     1.0000 0.97690  0.16970  0.52290  Biso   1.000  C
  H113     1.0000 0.95620  0.16578  0.54628  Biso   1.000  H
  C177     1.0000 0.97830  0.18710  0.45270  Biso   1.000  C
  H114     1.0000 0.95769  0.19268  0.43029  Biso   1.000  H
  C178     1.0000 0.00530  0.13940  0.61650  Biso   1.000  C
  C179     1.0000 0.97410  0.11170  0.69330  Biso   1.000  C
  C180     1.0000 0.03280  0.10800  0.70280  Biso   1.000  C
  C181     1.0000 0.25790  0.82412  0.93705  Biso   1.000  C
  H115     1.0000 0.26266  0.83606  0.97887  Biso   1.000  H
  C182     1.0000 0.25790  0.78827  0.93705  Biso   1.000  C
  H116     1.0000 0.26264  0.77632  0.97887  Biso   1.000  H
  N19      1.0000 0.03550  0.12720  0.64050  Biso   1.000  N
  N20      1.0000 0.00320  0.09890  0.72740  Biso   1.000  N
  N21      1.0000 0.97390  0.13180  0.64000  Biso   1.000  N
  O73      1.0000 0.15250  0.02610  0.86020  Biso   1.000  O
  O74      1.0000 0.18302  0.05480  0.77540  Biso   1.000  O
  O75      1.0000 0.84729  0.04461  0.86090  Biso   1.000  O
  O76      1.0000 0.81790  0.07355  0.77680  Biso   1.000  O
  O77      1.0000 0.98098  0.21910  0.32280  Biso   1.000  O
  O78      1.0000 0.03863  0.21870  0.32090  Biso   1.000  O
  O79      1.0000 0.23246  0.99038  0.98410  Biso   1.000  O
  O80      1.0000 0.29270  0.99039  0.94500  Biso   1.000  O
  O81      1.0000 0.21870  0.03540  0.89890  Biso   1.000  O
  O82      1.0000 0.22032  0.94530  0.89600  Biso   1.000  O
  O83      1.0000 0.26100  0.09000  0.93930  Biso   1.000  O
  O84      1.0000 0.26200  0.88896  0.94640  Biso   1.000  O
  H117     1.0000 0.24218  0.15195  0.82953  Biso   1.000  H
  H118     1.0000 0.27291  0.15195  0.88371  Biso   1.000  H
  H119     1.0000 0.23490  0.15195  0.91176  Biso   1.000  H
  Zr22     1.0000 0.68923  0.49006  0.41423  Biso   1.000  Zr
  Zr23     1.0000 0.76388  0.44490  0.46505  Biso   1.000  Zr
  Zr24     1.0000 0.76369  0.53524  0.46416  Biso   1.000  Zr
  C183     1.0000 0.65640  0.54710  0.30980  Biso   1.000  C
  C184     1.0000 0.62390  0.56340  0.27860  Biso   1.000  C
  C185     1.0000 0.62440  0.58540  0.22130  Biso   1.000  C
  H120     1.0000 0.64535  0.59126  0.20058  Biso   1.000  H
  C186     1.0000 0.59500  0.59880  0.19430  Biso   1.000  C
  H121     1.0000 0.59602  0.61185  0.15279  Biso   1.000  H
  C187     1.0000 0.56440  0.59360  0.22620  Biso   1.000  C
  C188     1.0000 0.56260  0.57270  0.28850  Biso   1.000  C
  H122     1.0000 0.54196  0.56986  0.31302  Biso   1.000  H
  C189     1.0000 0.59290  0.55640  0.31160  Biso   1.000  C
  H123     1.0000 0.59207  0.54092  0.34932  Biso   1.000  H
  C190     1.0000 0.34620  0.56470  0.30880  Biso   1.000  C
  C191     1.0000 0.37780  0.57750  0.28290  Biso   1.000  C
  C192     1.0000 0.40910  0.56860  0.31190  Biso   1.000  C
  H124     1.0000 0.40972  0.55552  0.35341  Biso   1.000  H
  C193     1.0000 0.43980  0.57890  0.27970  Biso   1.000  C
  H125     1.0000 0.46032  0.56850  0.29382  Biso   1.000  H
  C194     1.0000 0.44070  0.60190  0.23170  Biso   1.000  C
  C195     1.0000 0.41000  0.61230  0.20200  Biso   1.000  C
  H126     1.0000 0.41023  0.62794  0.16456  Biso   1.000  H
  C196     1.0000 0.37980  0.60030  0.22590  Biso   1.000  C
  H127     1.0000 0.35961  0.60747  0.20382  Biso   1.000  H
  C197     1.0000 0.50970  0.71190  0.84760  Biso   1.000  C
  C198     1.0000 0.50850  0.69550  0.91940  Biso   1.000  C
  C199     1.0000 0.53960  0.68510  0.95430  Biso   1.000  C
  H128     1.0000 0.56086  0.69008  0.93378  Biso   1.000  H
  C200     1.0000 0.53810  0.66850  0.01550  Biso   1.000  C
  H129     1.0000 0.55854  0.66189  0.03717  Biso   1.000  H
  C201     1.0000 0.50620  0.66030  0.05010  Biso   1.000  C
  C202     1.0000 0.47690  0.66970  0.02290  Biso   1.000  C
  H130     1.0000 0.45620  0.66578  0.04628  Biso   1.000  H
  C203     1.0000 0.47830  0.68710  0.95270  Biso   1.000  C
  H131     1.0000 0.45769  0.69268  0.93029  Biso   1.000  H
  C204     1.0000 0.50530  0.63940  0.11650  Biso   1.000  C
  C205     1.0000 0.47410  0.61170  0.19330  Biso   1.000  C
  C206     1.0000 0.53280  0.60800  0.20280  Biso   1.000  C
  C207     1.0000 0.75790  0.32412  0.43705  Biso   1.000  C
  H132     1.0000 0.76266  0.33606  0.47887  Biso   1.000  H
  C208     1.0000 0.75790  0.28827  0.43705  Biso   1.000  C
  H133     1.0000 0.76264  0.27632  0.47887  Biso   1.000  H
  N22      1.0000 0.53550  0.62720  0.14050  Biso   1.000  N
  N23      1.0000 0.50320  0.59890  0.22740  Biso   1.000  N
  N24      1.0000 0.47390  0.63180  0.14000  Biso   1.000  N
  O85      1.0000 0.65250  0.52610  0.36020  Biso   1.000  O
  O86      1.0000 0.68302  0.55480  0.27540  Biso   1.000  O
  O87      1.0000 0.34729  0.54461  0.36090  Biso   1.000  O
  O88      1.0000 0.31790  0.57355  0.27680  Biso   1.000  O
  O89      1.0000 0.48098  0.71910  0.82280  Biso   1.000  O
  O90      1.0000 0.53863  0.71870  0.82090  Biso   1.000  O
  O91      1.0000 0.73246  0.49038  0.48410  Biso   1.000  O
  O92      1.0000 0.79270  0.49039  0.44500  Biso   1.000  O
  O93      1.0000 0.71870  0.53540  0.39890  Biso   1.000  O
  O94      1.0000 0.72032  0.44530  0.39600  Biso   1.000  O
  O95      1.0000 0.76100  0.59000  0.43930  Biso   1.000  O
  O96      1.0000 0.76200  0.38896  0.44640  Biso   1.000  O
  H134     1.0000 0.74218  0.65195  0.32953  Biso   1.000  H
  H135     1.0000 0.77291  0.65195  0.38371  Biso   1.000  H
  H136     1.0000 0.73490  0.65195  0.41176  Biso   1.000  H
  Zr25     1.0000 0.50994  0.81077  0.66423  Biso   1.000  Zr
  Zr26     1.0000 0.55510  0.73612  0.71505  Biso   1.000  Zr
  Zr27     1.0000 0.46476  0.73631  0.71416  Biso   1.000  Zr
  C209     1.0000 0.45290  0.84360  0.55980  Biso   1.000  C
  C210     1.0000 0.43660  0.87610  0.52860  Biso   1.000  C
  C211     1.0000 0.41460  0.87560  0.47130  Biso   1.000  C
  H137     1.0000 0.40874  0.85465  0.45058  Biso   1.000  H
  C212     1.0000 0.40120  0.90500  0.44430  Biso   1.000  C
  H138     1.0000 0.38815  0.90398  0.40279  Biso   1.000  H
  C213     1.0000 0.40640  0.93560  0.47620  Biso   1.000  C
  C214     1.0000 0.42730  0.93740  0.53850  Biso   1.000  C
  H139     1.0000 0.43014  0.95804  0.56302  Biso   1.000  H
  C215     1.0000 0.44360  0.90710  0.56160  Biso   1.000  C
  H140     1.0000 0.45908  0.90793  0.59932  Biso   1.000  H
  C216     1.0000 0.43530  0.15380  0.55880  Biso   1.000  C
  C217     1.0000 0.42250  0.12220  0.53290  Biso   1.000  C
  C218     1.0000 0.43140  0.09090  0.56190  Biso   1.000  C
  H141     1.0000 0.44448  0.09028  0.60341  Biso   1.000  H
  C219     1.0000 0.42110  0.06020  0.52970  Biso   1.000  C
  H142     1.0000 0.43150  0.03968  0.54382  Biso   1.000  H
  C220     1.0000 0.39810  0.05930  0.48170  Biso   1.000  C
  C221     1.0000 0.38770  0.09000  0.45200  Biso   1.000  C
  H143     1.0000 0.37206  0.08977  0.41456  Biso   1.000  H
  C222     1.0000 0.39970  0.12020  0.47590  Biso   1.000  C
  H144     1.0000 0.39253  0.14039  0.45382  Biso   1.000  H
  C223     1.0000 0.28810  0.99030  0.09760  Biso   1.000  C
  C224     1.0000 0.30450  0.99150  0.16940  Biso   1.000  C
  C225     1.0000 0.31490  0.96040  0.20430  Biso   1.000  C
  H145     1.0000 0.30992  0.93914  0.18378  Biso   1.000  H
  C226     1.0000 0.33150  0.96190  0.26550  Biso   1.000  C
  H146     1.0000 0.33811  0.94146  0.28717  Biso   1.000  H
  C227     1.0000 0.33970  0.99380  0.30010  Biso   1.000  C
  C228     1.0000 0.33030  0.02310  0.27290  Biso   1.000  C
  H147     1.0000 0.33422  0.04380  0.29628  Biso   1.000  H
  C229     1.0000 0.31290  0.02170  0.20270  Biso   1.000  C
  H148     1.0000 0.30732  0.04231  0.18029  Biso   1.000  H
  C230     1.0000 0.36060  0.99470  0.36650  Biso   1.000  C
  C231     1.0000 0.38830  0.02590  0.44330  Biso   1.000  C
  C232     1.0000 0.39200  0.96720  0.45280  Biso   1.000  C
  C233     1.0000 0.67588  0.74210  0.68705  Biso   1.000  C
  H149     1.0000 0.66394  0.73734  0.72887  Biso   1.000  H
  C234     1.0000 0.71173  0.74210  0.68705  Biso   1.000  C
  H150     1.0000 0.72368  0.73736  0.72887  Biso   1.000  H
  N25      1.0000 0.37280  0.96450  0.39050  Biso   1.000  N
  N26      1.0000 0.40110  0.99680  0.47740  Biso   1.000  N
  N27      1.0000 0.36820  0.02610  0.39000  Biso   1.000  N
  O97      1.0000 0.47390  0.84750  0.61020  Biso   1.000  O
  O98      1.0000 0.44520  0.81698  0.52540  Biso   1.000  O
  O99      1.0000 0.45539  0.15271  0.61090  Biso   1.000  O
  O100     1.0000 0.42645  0.18210  0.52680  Biso   1.000  O
  O101     1.0000 0.28090  0.01902  0.07280  Biso   1.000  O
  O102     1.0000 0.28130  0.96137  0.07090  Biso   1.000  O
  O103     1.0000 0.50962  0.76754  0.73410  Biso   1.000  O
  O104     1.0000 0.50961  0.70730  0.69500  Biso   1.000  O
  O105     1.0000 0.46460  0.78130  0.64890  Biso   1.000  O
  O106     1.0000 0.55470  0.77968  0.64600  Biso   1.000  O
  O107     1.0000 0.41000  0.73900  0.68930  Biso   1.000  O
  O108     1.0000 0.61104  0.73800  0.69640  Biso   1.000  O
  H151     1.0000 0.34805  0.75782  0.57953  Biso   1.000  H
  H152     1.0000 0.34805  0.72709  0.63371  Biso   1.000  H
  H153     1.0000 0.34805  0.76510  0.66176  Biso   1.000  H
  Zr28     1.0000 0.00994  0.31077  0.16423  Biso   1.000  Zr
  Zr29     1.0000 0.05510  0.23612  0.21505  Biso   1.000  Zr
  Zr30     1.0000 0.96476  0.23631  0.21416  Biso   1.000  Zr
  C235     1.0000 0.95290  0.34360  0.05980  Biso   1.000  C
  C236     1.0000 0.93660  0.37610  0.02860  Biso   1.000  C
  C237     1.0000 0.91460  0.37560  0.97130  Biso   1.000  C
  H154     1.0000 0.90874  0.35465  0.95058  Biso   1.000  H
  C238     1.0000 0.90120  0.40500  0.94430  Biso   1.000  C
  H155     1.0000 0.88815  0.40398  0.90279  Biso   1.000  H
  C239     1.0000 0.90640  0.43560  0.97620  Biso   1.000  C
  C240     1.0000 0.92730  0.43740  0.03850  Biso   1.000  C
  H156     1.0000 0.93014  0.45804  0.06302  Biso   1.000  H
  C241     1.0000 0.94360  0.40710  0.06160  Biso   1.000  C
  H157     1.0000 0.95908  0.40793  0.09932  Biso   1.000  H
  C242     1.0000 0.93530  0.65380  0.05880  Biso   1.000  C
  C243     1.0000 0.92250  0.62220  0.03290  Biso   1.000  C
  C244     1.0000 0.93140  0.59090  0.06190  Biso   1.000  C
  H158     1.0000 0.94448  0.59028  0.10341  Biso   1.000  H
  C245     1.0000 0.92110  0.56020  0.02970  Biso   1.000  C
  H159     1.0000 0.93150  0.53968  0.04382  Biso   1.000  H
  C246     1.0000 0.89810  0.55930  0.98170  Biso   1.000  C
  C247     1.0000 0.88770  0.59000  0.95200  Biso   1.000  C
  H160     1.0000 0.87206  0.58977  0.91456  Biso   1.000  H
  C248     1.0000 0.89970  0.62020  0.97590  Biso   1.000  C
  H161     1.0000 0.89253  0.64039  0.95382  Biso   1.000  H
  C249     1.0000 0.78810  0.49030  0.59760  Biso   1.000  C
  C250     1.0000 0.80450  0.49150  0.66940  Biso   1.000  C
  C251     1.0000 0.81490  0.46040  0.70430  Biso   1.000  C
  H162     1.0000 0.80992  0.43914  0.68378  Biso   1.000  H
  C252     1.0000 0.83150  0.46190  0.76550  Biso   1.000  C
  H163     1.0000 0.83811  0.44146  0.78717  Biso   1.000  H
  C253     1.0000 0.83970  0.49380  0.80010  Biso   1.000  C
  C254     1.0000 0.83030  0.52310  0.77290  Biso   1.000  C
  H164     1.0000 0.83422  0.54380  0.79628  Biso   1.000  H
  C255     1.0000 0.81290  0.52170  0.70270  Biso   1.000  C
  H165     1.0000 0.80732  0.54231  0.68029  Biso   1.000  H
  C256     1.0000 0.86060  0.49470  0.86650  Biso   1.000  C
  C257     1.0000 0.88830  0.52590  0.94330  Biso   1.000  C
  C258     1.0000 0.89200  0.46720  0.95280  Biso   1.000  C
  C259     1.0000 0.17588  0.24210  0.18705  Biso   1.000  C
  H166     1.0000 0.16394  0.23734  0.22887  Biso   1.000  H
  C260     1.0000 0.21173  0.24210  0.18705  Biso   1.000  C
  H167     1.0000 0.22368  0.23736  0.22887  Biso   1.000  H
  N28      1.0000 0.87280  0.46450  0.89050  Biso   1.000  N
  N29      1.0000 0.90110  0.49680  0.97740  Biso   1.000  N
  N30      1.0000 0.86820  0.52610  0.89000  Biso   1.000  N
  O109     1.0000 0.97390  0.34750  0.11020  Biso   1.000  O
  O110     1.0000 0.94520  0.31698  0.02540  Biso   1.000  O
  O111     1.0000 0.95539  0.65271  0.11090  Biso   1.000  O
  O112     1.0000 0.92645  0.68210  0.02680  Biso   1.000  O
  O113     1.0000 0.78090  0.51902  0.57280  Biso   1.000  O
  O114     1.0000 0.78130  0.46137  0.57090  Biso   1.000  O
  O115     1.0000 0.00962  0.26754  0.23410  Biso   1.000  O
  O116     1.0000 0.00961  0.20730  0.19500  Biso   1.000  O
  O117     1.0000 0.96460  0.28130  0.14890  Biso   1.000  O
  O118     1.0000 0.05470  0.27968  0.14600  Biso   1.000  O
  O119     1.0000 0.91000  0.23900  0.18930  Biso   1.000  O
  O120     1.0000 0.11104  0.23800  0.19640  Biso   1.000  O
  H168     1.0000 0.84805  0.25782  0.07953  Biso   1.000  H
  H169     1.0000 0.84805  0.22709  0.13371  Biso   1.000  H
  H170     1.0000 0.84805  0.26510  0.16176  Biso   1.000  H
  Zr31     1.0000 0.49006  0.18923  0.66423  Biso   1.000  Zr
  Zr32     1.0000 0.44490  0.26388  0.71505  Biso   1.000  Zr
  Zr33     1.0000 0.53524  0.26369  0.71416  Biso   1.000  Zr
  C261     1.0000 0.54710  0.15640  0.55980  Biso   1.000  C
  C262     1.0000 0.56340  0.12390  0.52860  Biso   1.000  C
  C263     1.0000 0.58540  0.12440  0.47130  Biso   1.000  C
  H171     1.0000 0.59126  0.14535  0.45058  Biso   1.000  H
  C264     1.0000 0.59880  0.09500  0.44430  Biso   1.000  C
  H172     1.0000 0.61185  0.09602  0.40279  Biso   1.000  H
  C265     1.0000 0.59360  0.06440  0.47620  Biso   1.000  C
  C266     1.0000 0.57270  0.06260  0.53850  Biso   1.000  C
  H173     1.0000 0.56986  0.04196  0.56302  Biso   1.000  H
  C267     1.0000 0.55640  0.09290  0.56160  Biso   1.000  C
  H174     1.0000 0.54092  0.09207  0.59932  Biso   1.000  H
  C268     1.0000 0.56470  0.84620  0.55880  Biso   1.000  C
  C269     1.0000 0.57750  0.87780  0.53290  Biso   1.000  C
  C270     1.0000 0.56860  0.90910  0.56190  Biso   1.000  C
  H175     1.0000 0.55552  0.90972  0.60341  Biso   1.000  H
  C271     1.0000 0.57890  0.93980  0.52970  Biso   1.000  C
  H176     1.0000 0.56850  0.96032  0.54382  Biso   1.000  H
  C272     1.0000 0.60190  0.94070  0.48170  Biso   1.000  C
  C273     1.0000 0.61230  0.91000  0.45200  Biso   1.000  C
  H177     1.0000 0.62794  0.91023  0.41456  Biso   1.000  H
  C274     1.0000 0.60030  0.87980  0.47590  Biso   1.000  C
  H178     1.0000 0.60747  0.85961  0.45382  Biso   1.000  H
  C275     1.0000 0.71190  0.00970  0.09760  Biso   1.000  C
  C276     1.0000 0.69550  0.00850  0.16940  Biso   1.000  C
  C277     1.0000 0.68510  0.03960  0.20430  Biso   1.000  C
  H179     1.0000 0.69008  0.06086  0.18378  Biso   1.000  H
  C278     1.0000 0.66850  0.03810  0.26550  Biso   1.000  C
  H180     1.0000 0.66189  0.05854  0.28717  Biso   1.000  H
  C279     1.0000 0.66030  0.00620  0.30010  Biso   1.000  C
  C280     1.0000 0.66970  0.97690  0.27290  Biso   1.000  C
  H181     1.0000 0.66578  0.95620  0.29628  Biso   1.000  H
  C281     1.0000 0.68710  0.97830  0.20270  Biso   1.000  C
  H182     1.0000 0.69268  0.95769  0.18029  Biso   1.000  H
  C282     1.0000 0.63940  0.00530  0.36650  Biso   1.000  C
  C283     1.0000 0.61170  0.97410  0.44330  Biso   1.000  C
  C284     1.0000 0.60800  0.03280  0.45280  Biso   1.000  C
  C285     1.0000 0.32412  0.25790  0.68705  Biso   1.000  C
  H183     1.0000 0.33606  0.26266  0.72887  Biso   1.000  H
  C286     1.0000 0.28827  0.25790  0.68705  Biso   1.000  C
  H184     1.0000 0.27632  0.26264  0.72887  Biso   1.000  H
  N31      1.0000 0.62720  0.03550  0.39050  Biso   1.000  N
  N32      1.0000 0.59890  0.00320  0.47740  Biso   1.000  N
  N33      1.0000 0.63180  0.97390  0.39000  Biso   1.000  N
  O121     1.0000 0.52610  0.15250  0.61020  Biso   1.000  O
  O122     1.0000 0.55480  0.18302  0.52540  Biso   1.000  O
  O123     1.0000 0.54461  0.84729  0.61090  Biso   1.000  O
  O124     1.0000 0.57355  0.81790  0.52680  Biso   1.000  O
  O125     1.0000 0.71910  0.98098  0.07280  Biso   1.000  O
  O126     1.0000 0.71870  0.03863  0.07090  Biso   1.000  O
  O127     1.0000 0.49038  0.23246  0.73410  Biso   1.000  O
  O128     1.0000 0.49039  0.29270  0.69500  Biso   1.000  O
  O129     1.0000 0.53540  0.21870  0.64890  Biso   1.000  O
  O130     1.0000 0.44530  0.22032  0.64600  Biso   1.000  O
  O131     1.0000 0.59000  0.26100  0.68930  Biso   1.000  O
  O132     1.0000 0.38896  0.26200  0.69640  Biso   1.000  O
  H185     1.0000 0.65195  0.24218  0.57953  Biso   1.000  H
  H186     1.0000 0.65195  0.27291  0.63371  Biso   1.000  H
  H187     1.0000 0.65195  0.23490  0.66176  Biso   1.000  H
  Zr34     1.0000 0.99006  0.68923  0.16423  Biso   1.000  Zr
  Zr35     1.0000 0.94490  0.76388  0.21505  Biso   1.000  Zr
  Zr36     1.0000 0.03524  0.76369  0.21416  Biso   1.000  Zr
  C287     1.0000 0.04710  0.65640  0.05980  Biso   1.000  C
  C288     1.0000 0.06340  0.62390  0.02860  Biso   1.000  C
  C289     1.0000 0.08540  0.62440  0.97130  Biso   1.000  C
  H188     1.0000 0.09126  0.64535  0.95058  Biso   1.000  H
  C290     1.0000 0.09880  0.59500  0.94430  Biso   1.000  C
  H189     1.0000 0.11185  0.59602  0.90279  Biso   1.000  H
  C291     1.0000 0.09360  0.56440  0.97620  Biso   1.000  C
  C292     1.0000 0.07270  0.56260  0.03850  Biso   1.000  C
  H190     1.0000 0.06986  0.54196  0.06302  Biso   1.000  H
  C293     1.0000 0.05640  0.59290  0.06160  Biso   1.000  C
  H191     1.0000 0.04092  0.59207  0.09932  Biso   1.000  H
  C294     1.0000 0.06470  0.34620  0.05880  Biso   1.000  C
  C295     1.0000 0.07750  0.37780  0.03290  Biso   1.000  C
  C296     1.0000 0.06860  0.40910  0.06190  Biso   1.000  C
  H192     1.0000 0.05552  0.40972  0.10341  Biso   1.000  H
  C297     1.0000 0.07890  0.43980  0.02970  Biso   1.000  C
  H193     1.0000 0.06850  0.46032  0.04382  Biso   1.000  H
  C298     1.0000 0.10190  0.44070  0.98170  Biso   1.000  C
  C299     1.0000 0.11230  0.41000  0.95200  Biso   1.000  C
  H194     1.0000 0.12794  0.41023  0.91456  Biso   1.000  H
  C300     1.0000 0.10030  0.37980  0.97590  Biso   1.000  C
  H195     1.0000 0.10747  0.35961  0.95382  Biso   1.000  H
  C301     1.0000 0.21190  0.50970  0.59760  Biso   1.000  C
  C302     1.0000 0.19550  0.50850  0.66940  Biso   1.000  C
  C303     1.0000 0.18510  0.53960  0.70430  Biso   1.000  C
  H196     1.0000 0.19008  0.56086  0.68378  Biso   1.000  H
  C304     1.0000 0.16850  0.53810  0.76550  Biso   1.000  C
  H197     1.0000 0.16189  0.55854  0.78717  Biso   1.000  H
  C305     1.0000 0.16030  0.50620  0.80010  Biso   1.000  C
  C306     1.0000 0.16970  0.47690  0.77290  Biso   1.000  C
  H198     1.0000 0.16578  0.45620  0.79628  Biso   1.000  H
  C307     1.0000 0.18710  0.47830  0.70270  Biso   1.000  C
  H199     1.0000 0.19268  0.45769  0.68029  Biso   1.000  H
  C308     1.0000 0.13940  0.50530  0.86650  Biso   1.000  C
  C309     1.0000 0.11170  0.47410  0.94330  Biso   1.000  C
  C310     1.0000 0.10800  0.53280  0.95280  Biso   1.000  C
  C311     1.0000 0.82412  0.75790  0.18705  Biso   1.000  C
  H200     1.0000 0.83606  0.76266  0.22887  Biso   1.000  H
  C312     1.0000 0.78827  0.75790  0.18705  Biso   1.000  C
  H201     1.0000 0.77632  0.76264  0.22887  Biso   1.000  H
  N34      1.0000 0.12720  0.53550  0.89050  Biso   1.000  N
  N35      1.0000 0.09890  0.50320  0.97740  Biso   1.000  N
  N36      1.0000 0.13180  0.47390  0.89000  Biso   1.000  N
  O133     1.0000 0.02610  0.65250  0.11020  Biso   1.000  O
  O134     1.0000 0.05480  0.68302  0.02540  Biso   1.000  O
  O135     1.0000 0.04461  0.34729  0.11090  Biso   1.000  O
  O136     1.0000 0.07355  0.31790  0.02680  Biso   1.000  O
  O137     1.0000 0.21910  0.48098  0.57280  Biso   1.000  O
  O138     1.0000 0.21870  0.53863  0.57090  Biso   1.000  O
  O139     1.0000 0.99038  0.73246  0.23410  Biso   1.000  O
  O140     1.0000 0.99039  0.79270  0.19500  Biso   1.000  O
  O141     1.0000 0.03540  0.71870  0.14890  Biso   1.000  O
  O142     1.0000 0.94530  0.72032  0.14600  Biso   1.000  O
  O143     1.0000 0.09000  0.76100  0.18930  Biso   1.000  O
  O144     1.0000 0.88896  0.76200  0.19640  Biso   1.000  O
  H202     1.0000 0.15195  0.74218  0.07953  Biso   1.000  H
  H203     1.0000 0.15195  0.77291  0.13371  Biso   1.000  H
  H204     1.0000 0.15195  0.73490  0.16176  Biso   1.000  H
  Zr37     1.0000 0.68923  0.00994  0.83577  Biso   1.000  Zr
  Zr38     1.0000 0.76388  0.05510  0.78495  Biso   1.000  Zr
  Zr39     1.0000 0.76369  0.96476  0.78584  Biso   1.000  Zr
  C313     1.0000 0.65640  0.95290  0.94020  Biso   1.000  C
  C314     1.0000 0.62390  0.93660  0.97140  Biso   1.000  C
  C315     1.0000 0.62440  0.91460  0.02870  Biso   1.000  C
  H205     1.0000 0.64535  0.90874  0.04942  Biso   1.000  H
  C316     1.0000 0.59500  0.90120  0.05570  Biso   1.000  C
  H206     1.0000 0.59602  0.88815  0.09721  Biso   1.000  H
  C317     1.0000 0.56440  0.90640  0.02380  Biso   1.000  C
  C318     1.0000 0.56260  0.92730  0.96150  Biso   1.000  C
  H207     1.0000 0.54196  0.93014  0.93698  Biso   1.000  H
  C319     1.0000 0.59290  0.94360  0.93840  Biso   1.000  C
  H208     1.0000 0.59207  0.95908  0.90068  Biso   1.000  H
  C320     1.0000 0.34620  0.93530  0.94120  Biso   1.000  C
  C321     1.0000 0.37780  0.92250  0.96710  Biso   1.000  C
  C322     1.0000 0.40910  0.93140  0.93810  Biso   1.000  C
  H209     1.0000 0.40972  0.94448  0.89659  Biso   1.000  H
  C323     1.0000 0.43980  0.92110  0.97030  Biso   1.000  C
  H210     1.0000 0.46032  0.93150  0.95618  Biso   1.000  H
  C324     1.0000 0.44070  0.89810  0.01830  Biso   1.000  C
  C325     1.0000 0.41000  0.88770  0.04800  Biso   1.000  C
  H211     1.0000 0.41023  0.87206  0.08544  Biso   1.000  H
  C326     1.0000 0.37980  0.89970  0.02410  Biso   1.000  C
  H212     1.0000 0.35961  0.89253  0.04618  Biso   1.000  H
  C327     1.0000 0.50970  0.78810  0.40240  Biso   1.000  C
  C328     1.0000 0.50850  0.80450  0.33060  Biso   1.000  C
  C329     1.0000 0.53960  0.81490  0.29570  Biso   1.000  C
  H213     1.0000 0.56086  0.80992  0.31622  Biso   1.000  H
  C330     1.0000 0.53810  0.83150  0.23450  Biso   1.000  C
  H214     1.0000 0.55854  0.83811  0.21283  Biso   1.000  H
  C331     1.0000 0.50620  0.83970  0.19990  Biso   1.000  C
  C332     1.0000 0.47690  0.83030  0.22710  Biso   1.000  C
  H215     1.0000 0.45620  0.83422  0.20372  Biso   1.000  H
  C333     1.0000 0.47830  0.81290  0.29730  Biso   1.000  C
  H216     1.0000 0.45769  0.80732  0.31971  Biso   1.000  H
  C334     1.0000 0.50530  0.86060  0.13350  Biso   1.000  C
  C335     1.0000 0.47410  0.88830  0.05670  Biso   1.000  C
  C336     1.0000 0.53280  0.89200  0.04720  Biso   1.000  C
  C337     1.0000 0.75790  0.17588  0.81295  Biso   1.000  C
  H217     1.0000 0.76266  0.16394  0.77113  Biso   1.000  H
  C338     1.0000 0.75790  0.21173  0.81295  Biso   1.000  C
  H218     1.0000 0.76264  0.22368  0.77113  Biso   1.000  H
  N37      1.0000 0.53550  0.87280  0.10950  Biso   1.000  N
  N38      1.0000 0.50320  0.90110  0.02260  Biso   1.000  N
  N39      1.0000 0.47390  0.86820  0.11000  Biso   1.000  N
  O145     1.0000 0.65250  0.97390  0.88980  Biso   1.000  O
  O146     1.0000 0.68302  0.94520  0.97460  Biso   1.000  O
  O147     1.0000 0.34729  0.95539  0.88910  Biso   1.000  O
  O148     1.0000 0.31790  0.92645  0.97320  Biso   1.000  O
  O149     1.0000 0.48098  0.78090  0.42720  Biso   1.000  O
  O150     1.0000 0.53863  0.78130  0.42910  Biso   1.000  O
  O151     1.0000 0.73246  0.00962  0.76590  Biso   1.000  O
  O152     1.0000 0.79270  0.00961  0.80500  Biso   1.000  O
  O153     1.0000 0.71870  0.96460  0.85110  Biso   1.000  O
  O154     1.0000 0.72032  0.05470  0.85400  Biso   1.000  O
  O155     1.0000 0.76100  0.91000  0.81070  Biso   1.000  O
  O156     1.0000 0.76200  0.11104  0.80360  Biso   1.000  O
  H219     1.0000 0.74218  0.84805  0.92047  Biso   1.000  H
  H220     1.0000 0.77291  0.84805  0.86629  Biso   1.000  H
  H221     1.0000 0.73490  0.84805  0.83824  Biso   1.000  H
  Zr40     1.0000 0.18923  0.50994  0.33577  Biso   1.000  Zr
  Zr41     1.0000 0.26388  0.55510  0.28495  Biso   1.000  Zr
  Zr42     1.0000 0.26369  0.46476  0.28584  Biso   1.000  Zr
  C339     1.0000 0.15640  0.45290  0.44020  Biso   1.000  C
  C340     1.0000 0.12390  0.43660  0.47140  Biso   1.000  C
  C341     1.0000 0.12440  0.41460  0.52870  Biso   1.000  C
  H222     1.0000 0.14535  0.40874  0.54942  Biso   1.000  H
  C342     1.0000 0.09500  0.40120  0.55570  Biso   1.000  C
  H223     1.0000 0.09602  0.38815  0.59721  Biso   1.000  H
  C343     1.0000 0.06440  0.40640  0.52380  Biso   1.000  C
  C344     1.0000 0.06260  0.42730  0.46150  Biso   1.000  C
  H224     1.0000 0.04196  0.43014  0.43698  Biso   1.000  H
  C345     1.0000 0.09290  0.44360  0.43840  Biso   1.000  C
  H225     1.0000 0.09207  0.45908  0.40068  Biso   1.000  H
  C346     1.0000 0.84620  0.43530  0.44120  Biso   1.000  C
  C347     1.0000 0.87780  0.42250  0.46710  Biso   1.000  C
  C348     1.0000 0.90910  0.43140  0.43810  Biso   1.000  C
  H226     1.0000 0.90972  0.44448  0.39659  Biso   1.000  H
  C349     1.0000 0.93980  0.42110  0.47030  Biso   1.000  C
  H227     1.0000 0.96032  0.43150  0.45618  Biso   1.000  H
  C350     1.0000 0.94070  0.39810  0.51830  Biso   1.000  C
  C351     1.0000 0.91000  0.38770  0.54800  Biso   1.000  C
  H228     1.0000 0.91023  0.37206  0.58544  Biso   1.000  H
  C352     1.0000 0.87980  0.39970  0.52410  Biso   1.000  C
  H229     1.0000 0.85961  0.39253  0.54618  Biso   1.000  H
  C353     1.0000 0.00970  0.28810  0.90240  Biso   1.000  C
  C354     1.0000 0.00850  0.30450  0.83060  Biso   1.000  C
  C355     1.0000 0.03960  0.31490  0.79570  Biso   1.000  C
  H230     1.0000 0.06086  0.30992  0.81622  Biso   1.000  H
  C356     1.0000 0.03810  0.33150  0.73450  Biso   1.000  C
  H231     1.0000 0.05854  0.33811  0.71283  Biso   1.000  H
  C357     1.0000 0.00620  0.33970  0.69990  Biso   1.000  C
  C358     1.0000 0.97690  0.33030  0.72710  Biso   1.000  C
  H232     1.0000 0.95620  0.33422  0.70372  Biso   1.000  H
  C359     1.0000 0.97830  0.31290  0.79730  Biso   1.000  C
  H233     1.0000 0.95769  0.30732  0.81971  Biso   1.000  H
  C360     1.0000 0.00530  0.36060  0.63350  Biso   1.000  C
  C361     1.0000 0.97410  0.38830  0.55670  Biso   1.000  C
  C362     1.0000 0.03280  0.39200  0.54720  Biso   1.000  C
  C363     1.0000 0.25790  0.67588  0.31295  Biso   1.000  C
  H234     1.0000 0.26266  0.66394  0.27113  Biso   1.000  H
  C364     1.0000 0.25790  0.71173  0.31295  Biso   1.000  C
  H235     1.0000 0.26264  0.72368  0.27113  Biso   1.000  H
  N40      1.0000 0.03550  0.37280  0.60950  Biso   1.000  N
  N41      1.0000 0.00320  0.40110  0.52260  Biso   1.000  N
  N42      1.0000 0.97390  0.36820  0.61000  Biso   1.000  N
  O157     1.0000 0.15250  0.47390  0.38980  Biso   1.000  O
  O158     1.0000 0.18302  0.44520  0.47460  Biso   1.000  O
  O159     1.0000 0.84729  0.45539  0.38910  Biso   1.000  O
  O160     1.0000 0.81790  0.42645  0.47320  Biso   1.000  O
  O161     1.0000 0.98098  0.28090  0.92720  Biso   1.000  O
  O162     1.0000 0.03863  0.28130  0.92910  Biso   1.000  O
  O163     1.0000 0.23246  0.50962  0.26590  Biso   1.000  O
  O164     1.0000 0.29270  0.50961  0.30500  Biso   1.000  O
  O165     1.0000 0.21870  0.46460  0.35110  Biso   1.000  O
  O166     1.0000 0.22032  0.55470  0.35400  Biso   1.000  O
  O167     1.0000 0.26100  0.41000  0.31070  Biso   1.000  O
  O168     1.0000 0.26200  0.61104  0.30360  Biso   1.000  O
  H236     1.0000 0.24218  0.34805  0.42047  Biso   1.000  H
  H237     1.0000 0.27291  0.34805  0.36629  Biso   1.000  H
  H238     1.0000 0.23490  0.34805  0.33824  Biso   1.000  H
  Zr43     1.0000 0.31077  0.99006  0.83577  Biso   1.000  Zr
  Zr44     1.0000 0.23612  0.94490  0.78495  Biso   1.000  Zr
  Zr45     1.0000 0.23631  0.03524  0.78584  Biso   1.000  Zr
  C365     1.0000 0.34360  0.04710  0.94020  Biso   1.000  C
  C366     1.0000 0.37610  0.06340  0.97140  Biso   1.000  C
  C367     1.0000 0.37560  0.08540  0.02870  Biso   1.000  C
  H239     1.0000 0.35465  0.09126  0.04942  Biso   1.000  H
  C368     1.0000 0.40500  0.09880  0.05570  Biso   1.000  C
  H240     1.0000 0.40398  0.11185  0.09721  Biso   1.000  H
  C369     1.0000 0.43560  0.09360  0.02380  Biso   1.000  C
  C370     1.0000 0.43740  0.07270  0.96150  Biso   1.000  C
  H241     1.0000 0.45804  0.06986  0.93698  Biso   1.000  H
  C371     1.0000 0.40710  0.05640  0.93840  Biso   1.000  C
  H242     1.0000 0.40793  0.04092  0.90068  Biso   1.000  H
  C372     1.0000 0.65380  0.06470  0.94120  Biso   1.000  C
  C373     1.0000 0.62220  0.07750  0.96710  Biso   1.000  C
  C374     1.0000 0.59090  0.06860  0.93810  Biso   1.000  C
  H243     1.0000 0.59028  0.05552  0.89659  Biso   1.000  H
  C375     1.0000 0.56020  0.07890  0.97030  Biso   1.000  C
  H244     1.0000 0.53968  0.06850  0.95618  Biso   1.000  H
  C376     1.0000 0.55930  0.10190  0.01830  Biso   1.000  C
  C377     1.0000 0.59000  0.11230  0.04800  Biso   1.000  C
  H245     1.0000 0.58977  0.12794  0.08544  Biso   1.000  H
  C378     1.0000 0.62020  0.10030  0.02410  Biso   1.000  C
  H246     1.0000 0.64039  0.10747  0.04618  Biso   1.000  H
  C379     1.0000 0.49030  0.21190  0.40240  Biso   1.000  C
  C380     1.0000 0.49150  0.19550  0.33060  Biso   1.000  C
  C381     1.0000 0.46040  0.18510  0.29570  Biso   1.000  C
  H247     1.0000 0.43914  0.19008  0.31622  Biso   1.000  H
  C382     1.0000 0.46190  0.16850  0.23450  Biso   1.000  C
  H248     1.0000 0.44146  0.16189  0.21283  Biso   1.000  H
  C383     1.0000 0.49380  0.16030  0.19990  Biso   1.000  C
  C384     1.0000 0.52310  0.16970  0.22710  Biso   1.000  C
  H249     1.0000 0.54380  0.16578  0.20372  Biso   1.000  H
  C385     1.0000 0.52170  0.18710  0.29730  Biso   1.000  C
  H250     1.0000 0.54231  0.19268  0.31971  Biso   1.000  H
  C386     1.0000 0.49470  0.13940  0.13350  Biso   1.000  C
  C387     1.0000 0.52590  0.11170  0.05670  Biso   1.000  C
  C388     1.0000 0.46720  0.10800  0.04720  Biso   1.000  C
  C389     1.0000 0.24210  0.82412  0.81295  Biso   1.000  C
  H251     1.0000 0.23734  0.83606  0.77113  Biso   1.000  H
  C390     1.0000 0.24210  0.78827  0.81295  Biso   1.000  C
  H252     1.0000 0.23736  0.77632  0.77113  Biso   1.000  H
  N43      1.0000 0.46450  0.12720  0.10950  Biso   1.000  N
  N44      1.0000 0.49680  0.09890  0.02260  Biso   1.000  N
  N45      1.0000 0.52610  0.13180  0.11000  Biso   1.000  N
  O169     1.0000 0.34750  0.02610  0.88980  Biso   1.000  O
  O170     1.0000 0.31698  0.05480  0.97460  Biso   1.000  O
  O171     1.0000 0.65271  0.04461  0.88910  Biso   1.000  O
  O172     1.0000 0.68210  0.07355  0.97320  Biso   1.000  O
  O173     1.0000 0.51902  0.21910  0.42720  Biso   1.000  O
  O174     1.0000 0.46137  0.21870  0.42910  Biso   1.000  O
  O175     1.0000 0.26754  0.99038  0.76590  Biso   1.000  O
  O176     1.0000 0.20730  0.99039  0.80500  Biso   1.000  O
  O177     1.0000 0.28130  0.03540  0.85110  Biso   1.000  O
  O178     1.0000 0.27968  0.94530  0.85400  Biso   1.000  O
  O179     1.0000 0.23900  0.09000  0.81070  Biso   1.000  O
  O180     1.0000 0.23800  0.88896  0.80360  Biso   1.000  O
  H253     1.0000 0.25782  0.15195  0.92047  Biso   1.000  H
  H254     1.0000 0.22709  0.15195  0.86629  Biso   1.000  H
  H255     1.0000 0.26510  0.15195  0.83824  Biso   1.000  H
  Zr46     1.0000 0.81077  0.49006  0.33577  Biso   1.000  Zr
  Zr47     1.0000 0.73612  0.44490  0.28495  Biso   1.000  Zr
  Zr48     1.0000 0.73631  0.53524  0.28584  Biso   1.000  Zr
  C391     1.0000 0.84360  0.54710  0.44020  Biso   1.000  C
  C392     1.0000 0.87610  0.56340  0.47140  Biso   1.000  C
  C393     1.0000 0.87560  0.58540  0.52870  Biso   1.000  C
  H256     1.0000 0.85465  0.59126  0.54942  Biso   1.000  H
  C394     1.0000 0.90500  0.59880  0.55570  Biso   1.000  C
  H257     1.0000 0.90398  0.61185  0.59721  Biso   1.000  H
  C395     1.0000 0.93560  0.59360  0.52380  Biso   1.000  C
  C396     1.0000 0.93740  0.57270  0.46150  Biso   1.000  C
  H258     1.0000 0.95804  0.56986  0.43698  Biso   1.000  H
  C397     1.0000 0.90710  0.55640  0.43840  Biso   1.000  C
  H259     1.0000 0.90793  0.54092  0.40068  Biso   1.000  H
  C398     1.0000 0.15380  0.56470  0.44120  Biso   1.000  C
  C399     1.0000 0.12220  0.57750  0.46710  Biso   1.000  C
  C400     1.0000 0.09090  0.56860  0.43810  Biso   1.000  C
  H260     1.0000 0.09028  0.55552  0.39659  Biso   1.000  H
  C401     1.0000 0.06020  0.57890  0.47030  Biso   1.000  C
  H261     1.0000 0.03968  0.56850  0.45618  Biso   1.000  H
  C402     1.0000 0.05930  0.60190  0.51830  Biso   1.000  C
  C403     1.0000 0.09000  0.61230  0.54800  Biso   1.000  C
  H262     1.0000 0.08977  0.62794  0.58544  Biso   1.000  H
  C404     1.0000 0.12020  0.60030  0.52410  Biso   1.000  C
  H263     1.0000 0.14039  0.60747  0.54618  Biso   1.000  H
  C405     1.0000 0.99030  0.71190  0.90240  Biso   1.000  C
  C406     1.0000 0.99150  0.69550  0.83060  Biso   1.000  C
  C407     1.0000 0.96040  0.68510  0.79570  Biso   1.000  C
  H264     1.0000 0.93914  0.69008  0.81622  Biso   1.000  H
  C408     1.0000 0.96190  0.66850  0.73450  Biso   1.000  C
  H265     1.0000 0.94146  0.66189  0.71283  Biso   1.000  H
  C409     1.0000 0.99380  0.66030  0.69990  Biso   1.000  C
  C410     1.0000 0.02310  0.66970  0.72710  Biso   1.000  C
  H266     1.0000 0.04380  0.66578  0.70372  Biso   1.000  H
  C411     1.0000 0.02170  0.68710  0.79730  Biso   1.000  C
  H267     1.0000 0.04231  0.69268  0.81971  Biso   1.000  H
  C412     1.0000 0.99470  0.63940  0.63350  Biso   1.000  C
  C413     1.0000 0.02590  0.61170  0.55670  Biso   1.000  C
  C414     1.0000 0.96720  0.60800  0.54720  Biso   1.000  C
  C415     1.0000 0.74210  0.32412  0.31295  Biso   1.000  C
  H268     1.0000 0.73734  0.33606  0.27113  Biso   1.000  H
  C416     1.0000 0.74210  0.28827  0.31295  Biso   1.000  C
  H269     1.0000 0.73736  0.27632  0.27113  Biso   1.000  H
  N46      1.0000 0.96450  0.62720  0.60950  Biso   1.000  N
  N47      1.0000 0.99680  0.59890  0.52260  Biso   1.000  N
  N48      1.0000 0.02610  0.63180  0.61000  Biso   1.000  N
  O181     1.0000 0.84750  0.52610  0.38980  Biso   1.000  O
  O182     1.0000 0.81698  0.55480  0.47460  Biso   1.000  O
  O183     1.0000 0.15271  0.54461  0.38910  Biso   1.000  O
  O184     1.0000 0.18210  0.57355  0.47320  Biso   1.000  O
  O185     1.0000 0.01902  0.71910  0.92720  Biso   1.000  O
  O186     1.0000 0.96137  0.71870  0.92910  Biso   1.000  O
  O187     1.0000 0.76754  0.49038  0.26590  Biso   1.000  O
  O188     1.0000 0.70730  0.49039  0.30500  Biso   1.000  O
  O189     1.0000 0.78130  0.53540  0.35110  Biso   1.000  O
  O190     1.0000 0.77968  0.44530  0.35400  Biso   1.000  O
  O191     1.0000 0.73900  0.59000  0.31070  Biso   1.000  O
  O192     1.0000 0.73800  0.38896  0.30360  Biso   1.000  O
  H270     1.0000 0.75782  0.65195  0.42047  Biso   1.000  H
  H271     1.0000 0.72709  0.65195  0.36629  Biso   1.000  H
  H272     1.0000 0.76510  0.65195  0.33824  Biso   1.000  H
  C417     1.0000 0.10640  0.75000  0.12500  Biso   1.000  C
  C418     1.0000 0.14370  0.75000  0.12500  Biso   1.000  C
  C419     1.0000 0.88090  0.75000  0.12500  Biso   1.000  C
  C420     1.0000 0.84210  0.75000  0.12500  Biso   1.000  C
  C421     1.0000 0.77029  0.75000  0.12500  Biso   1.000  C
  H273     1.0000 0.74636  0.75000  0.12500  Biso   1.000  H
  C422     1.0000 0.89360  0.25000  0.12500  Biso   1.000  C
  C423     1.0000 0.85630  0.25000  0.12500  Biso   1.000  C
  C424     1.0000 0.11910  0.25000  0.12500  Biso   1.000  C
  C425     1.0000 0.15790  0.25000  0.12500  Biso   1.000  C
  C426     1.0000 0.22971  0.25000  0.12500  Biso   1.000  C
  H274     1.0000 0.25364  0.25000  0.12500  Biso   1.000  H
  C427     1.0000 0.75000  0.89360  0.87500  Biso   1.000  C
  C428     1.0000 0.75000  0.85630  0.87500  Biso   1.000  C
  C429     1.0000 0.75000  0.11910  0.87500  Biso   1.000  C
  C430     1.0000 0.75000  0.15790  0.87500  Biso   1.000  C
  C431     1.0000 0.75000  0.22971  0.87500  Biso   1.000  C
  H275     1.0000 0.75000  0.25364  0.87500  Biso   1.000  H
  C432     1.0000 0.25000  0.39360  0.37500  Biso   1.000  C
  C433     1.0000 0.25000  0.35630  0.37500  Biso   1.000  C
  C434     1.0000 0.25000  0.61910  0.37500  Biso   1.000  C
  C435     1.0000 0.25000  0.65790  0.37500  Biso   1.000  C
  C436     1.0000 0.25000  0.72971  0.37500  Biso   1.000  C
  H276     1.0000 0.25000  0.75364  0.37500  Biso   1.000  H
  C437     1.0000 0.25000  0.10640  0.87500  Biso   1.000  C
  C438     1.0000 0.25000  0.14370  0.87500  Biso   1.000  C
  C439     1.0000 0.25000  0.88090  0.87500  Biso   1.000  C
  C440     1.0000 0.25000  0.84210  0.87500  Biso   1.000  C
  C441     1.0000 0.25000  0.77029  0.87500  Biso   1.000  C
  H277     1.0000 0.25000  0.74636  0.87500  Biso   1.000  H
  C442     1.0000 0.75000  0.60640  0.37500  Biso   1.000  C
  C443     1.0000 0.75000  0.64370  0.37500  Biso   1.000  C
  C444     1.0000 0.75000  0.38090  0.37500  Biso   1.000  C
  C445     1.0000 0.75000  0.34210  0.37500  Biso   1.000  C
  C446     1.0000 0.75000  0.27029  0.37500  Biso   1.000  C
  H278     1.0000 0.75000  0.24636  0.37500  Biso   1.000  H
  C447     1.0000 0.39360  0.75000  0.62500  Biso   1.000  C
  C448     1.0000 0.35630  0.75000  0.62500  Biso   1.000  C
  C449     1.0000 0.61910  0.75000  0.62500  Biso   1.000  C
  C450     1.0000 0.65790  0.75000  0.62500  Biso   1.000  C
  C451     1.0000 0.72971  0.75000  0.62500  Biso   1.000  C
  H279     1.0000 0.75364  0.75000  0.62500  Biso   1.000  H
  C452     1.0000 0.60640  0.25000  0.62500  Biso   1.000  C
  C453     1.0000 0.64370  0.25000  0.62500  Biso   1.000  C
  C454     1.0000 0.38090  0.25000  0.62500  Biso   1.000  C
  C455     1.0000 0.34210  0.25000  0.62500  Biso   1.000  C
  C456     1.0000 0.27029  0.25000  0.62500  Biso   1.000  C
  H280     1.0000 0.24636  0.25000  0.62500  Biso   1.000  H
