data_image0
_cell_length_a       38.9025
_cell_length_b       38.9025
_cell_length_c       18.9223
_cell_angle_alpha    90
_cell_angle_beta     90
_cell_angle_gamma    90

_symmetry_space_group_name_H-M    "P 1"
_symmetry_int_tables_number       1

loop_
  _symmetry_equiv_pos_as_xyz
  'x, y, z'

loop_
  _atom_site_label
  _atom_site_occupancy
  _atom_site_fract_x
  _atom_site_fract_y
  _atom_site_fract_z
  _atom_site_thermal_displace_type
  _atom_site_B_iso_or_equiv
  _atom_site_type_symbol
  Zr1      1.0000 0.26363  0.46466  0.78595  Biso   1.000  Zr
  Zr2      1.0000 0.18925  0.50987  0.83637  Biso   1.000  Zr
  Zr3      1.0000 0.23566  0.55545  0.96369  Biso   1.000  Zr
  C1       1.0000 0.34380  0.45270  0.80870  Biso   1.000  C
  C2       1.0000 0.37455  0.41290  0.72550  Biso   1.000  C
  H1       1.0000 0.35329  0.40648  0.70726  Biso   1.000  H
  C3       1.0000 0.37640  0.43710  0.77930  Biso   1.000  C
  C4       1.0000 0.40817  0.44670  0.80650  Biso   1.000  C
  H2       1.0000 0.40941  0.46293  0.84258  Biso   1.000  H
  C5       1.0000 0.43809  0.43210  0.77980  Biso   1.000  C
  H3       1.0000 0.45935  0.43857  0.79802  Biso   1.000  H
  C6       1.0000 0.43623  0.40790  0.72590  Biso   1.000  C
  C7       1.0000 0.40446  0.39830  0.69870  Biso   1.000  C
  H4       1.0000 0.40322  0.38212  0.66269  Biso   1.000  H
  C8       1.0000 0.46810  0.39460  0.69330  Biso   1.000  C
  C9       1.0000 0.49440  0.36100  0.61280  Biso   1.000  C
  C10      1.0000 0.52580  0.38940  0.69460  Biso   1.000  C
  C11      1.0000 0.52418  0.33090  0.51460  Biso   1.000  C
  H5       1.0000 0.54515  0.33567  0.53605  Biso   1.000  H
  C12      1.0000 0.52325  0.31220  0.45200  Biso   1.000  C
  H6       1.0000 0.54359  0.30456  0.43150  Biso   1.000  H
  C13      1.0000 0.49192  0.30500  0.41990  Biso   1.000  C
  C14      1.0000 0.46152  0.31650  0.45050  Biso   1.000  C
  H7       1.0000 0.44055  0.31170  0.42900  Biso   1.000  H
  C15      1.0000 0.46245  0.33510  0.51310  Biso   1.000  C
  H8       1.0000 0.44211  0.34281  0.53355  Biso   1.000  H
  C16      1.0000 0.49378  0.34230  0.54520  Biso   1.000  C
  C17      1.0000 0.49100  0.28810  0.34890  Biso   1.000  C
  C18      1.0000 0.55913  0.39960  0.72590  Biso   1.000  C
  C19      1.0000 0.55960  0.42220  0.78280  Biso   1.000  C
  H9       1.0000 0.53906  0.43005  0.80201  Biso   1.000  H
  C20      1.0000 0.59078  0.43310  0.81080  Biso   1.000  C
  H10      1.0000 0.59110  0.44821  0.84885  Biso   1.000  H
  C21      1.0000 0.62148  0.42130  0.78210  Biso   1.000  C
  C22      1.0000 0.62101  0.39870  0.72520  Biso   1.000  C
  H11      1.0000 0.64155  0.39082  0.70596  Biso   1.000  H
  C23      1.0000 0.58983  0.38780  0.69720  Biso   1.000  C
  H12      1.0000 0.58952  0.37266  0.65912  Biso   1.000  H
  C24      1.0000 0.65520  0.43460  0.80920  Biso   1.000  C
  N1       1.0000 0.46490  0.37430  0.63640  Biso   1.000  N
  N2       1.0000 0.52590  0.36980  0.63880  Biso   1.000  N
  N3       1.0000 0.49700  0.40370  0.72240  Biso   1.000  N
  O1       1.0000 0.31691  0.44580  0.77920  Biso   1.000  O
  O2       1.0000 0.34783  0.47390  0.85940  Biso   1.000  O
  O3       1.0000 0.46210  0.28270  0.32220  Biso   1.000  O
  O4       1.0000 0.52027  0.28030  0.32110  Biso   1.000  O
  O5       1.0000 0.68184  0.42497  0.77890  Biso   1.000  O
  O6       1.0000 0.65247  0.45550  0.86040  Biso   1.000  O
  O7       1.0000 0.26200  0.40870  0.81980  Biso   1.000  O
  O8       1.0000 0.23900  0.61100  0.93250  Biso   1.000  O
  O9       1.0000 0.21990  0.46620  0.85440  Biso   1.000  O
  O10      1.0000 0.23290  0.51130  0.76560  Biso   1.000  O
  O11      1.0000 0.20590  0.51010  0.94590  Biso   1.000  O
  O12      1.0000 0.27960  0.55540  0.89650  Biso   1.000  O
  O13      1.0000 0.26440  0.91640  0.20820  Biso   1.000  O
  C25      1.0000 0.24700  0.68250  0.93690  Biso   1.000  C
  H13      1.0000 0.24478  0.67053  0.97922  Biso   1.000  H
  N4       1.0000 0.25590  0.78960  0.93730  Biso   1.000  N
  C26      1.0000 0.24720  0.71810  0.93890  Biso   1.000  C
  H14      1.0000 0.24544  0.72970  0.98167  Biso   1.000  H
  C27      1.0000 0.25950  0.82530  0.93490  Biso   1.000  C
  O14      1.0000 0.28260  0.95480  0.12290  Biso   1.000  O
  C28      1.0000 0.27270  0.92620  0.14770  Biso   1.000  C
  C29      1.0000 0.28460  0.90620  0.02500  Biso   1.000  C
  H15      1.0000 0.29634  0.92666  0.01730  Biso   1.000  H
  C30      1.0000 0.27850  0.88390  0.96900  Biso   1.000  C
  H16      1.0000 0.28619  0.88937  0.92392  Biso   1.000  H
  C31      1.0000 0.26090  0.85330  0.98050  Biso   1.000  C
  C32      1.0000 0.24940  0.84500  0.04800  Biso   1.000  C
  H17      1.0000 0.23757  0.82456  0.05565  Biso   1.000  H
  C33      1.0000 0.25540  0.86740  0.10390  Biso   1.000  C
  H18      1.0000 0.24772  0.86185  0.14903  Biso   1.000  H
  C34      1.0000 0.27300  0.89800  0.09240  Biso   1.000  C
  O15      1.0000 0.30480  0.88120  0.24260  Biso   1.000  O
  C35      1.0000 0.28320  0.89100  0.19860  Biso   1.000  C
  C36      1.0000 0.28770  0.83960  0.12150  Biso   1.000  C
  H19      1.0000 0.29936  0.82896  0.15846  Biso   1.000  H
  C37      1.0000 0.28140  0.82180  0.05920  Biso   1.000  C
  H20      1.0000 0.28883  0.79917  0.05448  Biso   1.000  H
  C38      1.0000 0.26410  0.83770  0.00410  Biso   1.000  C
  C39      1.0000 0.25300  0.87150  0.01120  Biso   1.000  C
  H21      1.0000 0.24137  0.88221  0.97426  Biso   1.000  H
  C40      1.0000 0.25930  0.88940  0.07350  Biso   1.000  C
  H22      1.0000 0.25190  0.91200  0.07824  Biso   1.000  H
  C41      1.0000 0.27670  0.87340  0.12870  Biso   1.000  C
  H23      1.0000 0.25947  0.34625  0.83131  Biso   1.000  H
  H24      1.0000 0.26367  0.34625  0.91371  Biso   1.000  H
  H25      1.0000 0.22686  0.34625  0.87998  Biso   1.000  H
  Zr4      1.0000 0.76363  0.96466  0.28595  Biso   1.000  Zr
  Zr5      1.0000 0.68925  0.00987  0.33637  Biso   1.000  Zr
  Zr6      1.0000 0.73566  0.05545  0.46369  Biso   1.000  Zr
  C42      1.0000 0.84380  0.95270  0.30870  Biso   1.000  C
  C43      1.0000 0.87455  0.91290  0.22550  Biso   1.000  C
  H26      1.0000 0.85329  0.90648  0.20726  Biso   1.000  H
  C44      1.0000 0.87640  0.93710  0.27930  Biso   1.000  C
  C45      1.0000 0.90817  0.94670  0.30650  Biso   1.000  C
  H27      1.0000 0.90941  0.96293  0.34258  Biso   1.000  H
  C46      1.0000 0.93809  0.93210  0.27980  Biso   1.000  C
  H28      1.0000 0.95935  0.93857  0.29802  Biso   1.000  H
  C47      1.0000 0.93623  0.90790  0.22590  Biso   1.000  C
  C48      1.0000 0.90446  0.89830  0.19870  Biso   1.000  C
  H29      1.0000 0.90322  0.88212  0.16269  Biso   1.000  H
  C49      1.0000 0.96810  0.89460  0.19330  Biso   1.000  C
  C50      1.0000 0.99440  0.86100  0.11280  Biso   1.000  C
  C51      1.0000 0.02580  0.88940  0.19460  Biso   1.000  C
  C52      1.0000 0.02418  0.83090  0.01460  Biso   1.000  C
  H30      1.0000 0.04515  0.83567  0.03605  Biso   1.000  H
  C53      1.0000 0.02325  0.81220  0.95200  Biso   1.000  C
  H31      1.0000 0.04359  0.80456  0.93150  Biso   1.000  H
  C54      1.0000 0.99192  0.80500  0.91990  Biso   1.000  C
  C55      1.0000 0.96152  0.81650  0.95050  Biso   1.000  C
  H32      1.0000 0.94055  0.81170  0.92900  Biso   1.000  H
  C56      1.0000 0.96245  0.83510  0.01310  Biso   1.000  C
  H33      1.0000 0.94211  0.84281  0.03355  Biso   1.000  H
  C57      1.0000 0.99378  0.84230  0.04520  Biso   1.000  C
  C58      1.0000 0.99100  0.78810  0.84890  Biso   1.000  C
  C59      1.0000 0.05913  0.89960  0.22590  Biso   1.000  C
  C60      1.0000 0.05960  0.92220  0.28280  Biso   1.000  C
  H34      1.0000 0.03906  0.93005  0.30201  Biso   1.000  H
  C61      1.0000 0.09078  0.93310  0.31080  Biso   1.000  C
  H35      1.0000 0.09110  0.94821  0.34885  Biso   1.000  H
  C62      1.0000 0.12148  0.92130  0.28210  Biso   1.000  C
  C63      1.0000 0.12101  0.89870  0.22520  Biso   1.000  C
  H36      1.0000 0.14155  0.89082  0.20596  Biso   1.000  H
  C64      1.0000 0.08983  0.88780  0.19720  Biso   1.000  C
  H37      1.0000 0.08952  0.87266  0.15912  Biso   1.000  H
  C65      1.0000 0.15520  0.93460  0.30920  Biso   1.000  C
  N5       1.0000 0.96490  0.87430  0.13640  Biso   1.000  N
  N6       1.0000 0.02590  0.86980  0.13880  Biso   1.000  N
  N7       1.0000 0.99700  0.90370  0.22240  Biso   1.000  N
  O16      1.0000 0.81691  0.94580  0.27920  Biso   1.000  O
  O17      1.0000 0.84783  0.97390  0.35940  Biso   1.000  O
  O18      1.0000 0.96210  0.78270  0.82220  Biso   1.000  O
  O19      1.0000 0.02027  0.78030  0.82110  Biso   1.000  O
  O20      1.0000 0.18184  0.92497  0.27890  Biso   1.000  O
  O21      1.0000 0.15247  0.95550  0.36040  Biso   1.000  O
  O22      1.0000 0.76200  0.90870  0.31980  Biso   1.000  O
  O23      1.0000 0.73900  0.11100  0.43250  Biso   1.000  O
  O24      1.0000 0.71990  0.96620  0.35440  Biso   1.000  O
  O25      1.0000 0.73290  0.01130  0.26560  Biso   1.000  O
  O26      1.0000 0.70590  0.01010  0.44590  Biso   1.000  O
  O27      1.0000 0.77960  0.05540  0.39650  Biso   1.000  O
  O28      1.0000 0.76440  0.41640  0.70820  Biso   1.000  O
  C66      1.0000 0.74700  0.18250  0.43690  Biso   1.000  C
  H38      1.0000 0.74478  0.17053  0.47922  Biso   1.000  H
  N8       1.0000 0.75590  0.28960  0.43730  Biso   1.000  N
  C67      1.0000 0.74720  0.21810  0.43890  Biso   1.000  C
  H39      1.0000 0.74544  0.22970  0.48167  Biso   1.000  H
  C68      1.0000 0.75950  0.32530  0.43490  Biso   1.000  C
  O29      1.0000 0.78260  0.45480  0.62290  Biso   1.000  O
  C69      1.0000 0.77270  0.42620  0.64770  Biso   1.000  C
  C70      1.0000 0.78460  0.40620  0.52500  Biso   1.000  C
  H40      1.0000 0.79634  0.42666  0.51730  Biso   1.000  H
  C71      1.0000 0.77850  0.38390  0.46900  Biso   1.000  C
  H41      1.0000 0.78619  0.38937  0.42392  Biso   1.000  H
  C72      1.0000 0.76090  0.35330  0.48050  Biso   1.000  C
  C73      1.0000 0.74940  0.34500  0.54800  Biso   1.000  C
  H42      1.0000 0.73757  0.32456  0.55565  Biso   1.000  H
  C74      1.0000 0.75540  0.36740  0.60390  Biso   1.000  C
  H43      1.0000 0.74772  0.36185  0.64903  Biso   1.000  H
  C75      1.0000 0.77300  0.39800  0.59240  Biso   1.000  C
  O30      1.0000 0.80480  0.38120  0.74260  Biso   1.000  O
  C76      1.0000 0.78320  0.39100  0.69860  Biso   1.000  C
  C77      1.0000 0.78770  0.33960  0.62150  Biso   1.000  C
  H44      1.0000 0.79936  0.32896  0.65846  Biso   1.000  H
  C78      1.0000 0.78140  0.32180  0.55920  Biso   1.000  C
  H45      1.0000 0.78883  0.29917  0.55448  Biso   1.000  H
  C79      1.0000 0.76410  0.33770  0.50410  Biso   1.000  C
  C80      1.0000 0.75300  0.37150  0.51120  Biso   1.000  C
  H46      1.0000 0.74137  0.38221  0.47426  Biso   1.000  H
  C81      1.0000 0.75930  0.38940  0.57350  Biso   1.000  C
  H47      1.0000 0.75190  0.41200  0.57824  Biso   1.000  H
  C82      1.0000 0.77670  0.37340  0.62870  Biso   1.000  C
  H48      1.0000 0.75947  0.84625  0.33131  Biso   1.000  H
  H49      1.0000 0.76367  0.84625  0.41371  Biso   1.000  H
  H50      1.0000 0.72686  0.84625  0.37998  Biso   1.000  H
  Zr7      1.0000 0.73637  0.53534  0.78595  Biso   1.000  Zr
  Zr8      1.0000 0.81075  0.49013  0.83637  Biso   1.000  Zr
  Zr9      1.0000 0.76434  0.44455  0.96369  Biso   1.000  Zr
  C83      1.0000 0.65620  0.54730  0.80870  Biso   1.000  C
  C84      1.0000 0.62545  0.58710  0.72550  Biso   1.000  C
  H51      1.0000 0.64671  0.59352  0.70726  Biso   1.000  H
  C85      1.0000 0.62360  0.56290  0.77930  Biso   1.000  C
  C86      1.0000 0.59183  0.55330  0.80650  Biso   1.000  C
  H52      1.0000 0.59059  0.53707  0.84258  Biso   1.000  H
  C87      1.0000 0.56191  0.56790  0.77980  Biso   1.000  C
  H53      1.0000 0.54065  0.56143  0.79802  Biso   1.000  H
  C88      1.0000 0.56377  0.59210  0.72590  Biso   1.000  C
  C89      1.0000 0.59554  0.60170  0.69870  Biso   1.000  C
  H54      1.0000 0.59678  0.61788  0.66269  Biso   1.000  H
  C90      1.0000 0.53190  0.60540  0.69330  Biso   1.000  C
  C91      1.0000 0.50560  0.63900  0.61280  Biso   1.000  C
  C92      1.0000 0.47420  0.61060  0.69460  Biso   1.000  C
  C93      1.0000 0.47582  0.66910  0.51460  Biso   1.000  C
  H55      1.0000 0.45485  0.66433  0.53605  Biso   1.000  H
  C94      1.0000 0.47675  0.68780  0.45200  Biso   1.000  C
  H56      1.0000 0.45641  0.69544  0.43150  Biso   1.000  H
  C95      1.0000 0.50808  0.69500  0.41990  Biso   1.000  C
  C96      1.0000 0.53848  0.68350  0.45050  Biso   1.000  C
  H57      1.0000 0.55945  0.68830  0.42900  Biso   1.000  H
  C97      1.0000 0.53755  0.66490  0.51310  Biso   1.000  C
  H58      1.0000 0.55789  0.65719  0.53355  Biso   1.000  H
  C98      1.0000 0.50622  0.65770  0.54520  Biso   1.000  C
  C99      1.0000 0.50900  0.71190  0.34890  Biso   1.000  C
  C100     1.0000 0.44087  0.60040  0.72590  Biso   1.000  C
  C101     1.0000 0.44040  0.57780  0.78280  Biso   1.000  C
  H59      1.0000 0.46094  0.56995  0.80201  Biso   1.000  H
  C102     1.0000 0.40922  0.56690  0.81080  Biso   1.000  C
  H60      1.0000 0.40890  0.55179  0.84885  Biso   1.000  H
  C103     1.0000 0.37852  0.57870  0.78210  Biso   1.000  C
  C104     1.0000 0.37899  0.60130  0.72520  Biso   1.000  C
  H61      1.0000 0.35845  0.60918  0.70596  Biso   1.000  H
  C105     1.0000 0.41017  0.61220  0.69720  Biso   1.000  C
  H62      1.0000 0.41048  0.62734  0.65912  Biso   1.000  H
  C106     1.0000 0.34480  0.56540  0.80920  Biso   1.000  C
  N9       1.0000 0.53510  0.62570  0.63640  Biso   1.000  N
  N10      1.0000 0.47410  0.63020  0.63880  Biso   1.000  N
  N11      1.0000 0.50300  0.59630  0.72240  Biso   1.000  N
  O31      1.0000 0.68309  0.55420  0.77920  Biso   1.000  O
  O32      1.0000 0.65217  0.52610  0.85940  Biso   1.000  O
  O33      1.0000 0.53790  0.71730  0.32220  Biso   1.000  O
  O34      1.0000 0.47973  0.71970  0.32110  Biso   1.000  O
  O35      1.0000 0.31816  0.57503  0.77890  Biso   1.000  O
  O36      1.0000 0.34753  0.54450  0.86040  Biso   1.000  O
  O37      1.0000 0.73800  0.59130  0.81980  Biso   1.000  O
  O38      1.0000 0.76100  0.38900  0.93250  Biso   1.000  O
  O39      1.0000 0.78010  0.53380  0.85440  Biso   1.000  O
  O40      1.0000 0.76710  0.48870  0.76560  Biso   1.000  O
  O41      1.0000 0.79410  0.48990  0.94590  Biso   1.000  O
  O42      1.0000 0.72040  0.44460  0.89650  Biso   1.000  O
  O43      1.0000 0.73560  0.08360  0.20820  Biso   1.000  O
  C107     1.0000 0.75300  0.31750  0.93690  Biso   1.000  C
  H63      1.0000 0.75522  0.32947  0.97922  Biso   1.000  H
  N12      1.0000 0.74410  0.21040  0.93730  Biso   1.000  N
  C108     1.0000 0.75280  0.28190  0.93890  Biso   1.000  C
  H64      1.0000 0.75456  0.27030  0.98167  Biso   1.000  H
  C109     1.0000 0.74050  0.17470  0.93490  Biso   1.000  C
  O44      1.0000 0.71740  0.04520  0.12290  Biso   1.000  O
  C110     1.0000 0.72730  0.07380  0.14770  Biso   1.000  C
  C111     1.0000 0.71540  0.09380  0.02500  Biso   1.000  C
  H65      1.0000 0.70366  0.07334  0.01730  Biso   1.000  H
  C112     1.0000 0.72150  0.11610  0.96900  Biso   1.000  C
  H66      1.0000 0.71381  0.11063  0.92392  Biso   1.000  H
  C113     1.0000 0.73910  0.14670  0.98050  Biso   1.000  C
  C114     1.0000 0.75060  0.15500  0.04800  Biso   1.000  C
  H67      1.0000 0.76243  0.17544  0.05565  Biso   1.000  H
  C115     1.0000 0.74460  0.13260  0.10390  Biso   1.000  C
  H68      1.0000 0.75228  0.13815  0.14903  Biso   1.000  H
  C116     1.0000 0.72700  0.10200  0.09240  Biso   1.000  C
  O45      1.0000 0.69520  0.11880  0.24260  Biso   1.000  O
  C117     1.0000 0.71680  0.10900  0.19860  Biso   1.000  C
  C118     1.0000 0.71230  0.16040  0.12150  Biso   1.000  C
  H69      1.0000 0.70064  0.17104  0.15846  Biso   1.000  H
  C119     1.0000 0.71860  0.17820  0.05920  Biso   1.000  C
  H70      1.0000 0.71117  0.20083  0.05448  Biso   1.000  H
  C120     1.0000 0.73590  0.16230  0.00410  Biso   1.000  C
  C121     1.0000 0.74700  0.12850  0.01120  Biso   1.000  C
  H71      1.0000 0.75863  0.11779  0.97426  Biso   1.000  H
  C122     1.0000 0.74070  0.11060  0.07350  Biso   1.000  C
  H72      1.0000 0.74810  0.08800  0.07824  Biso   1.000  H
  C123     1.0000 0.72330  0.12660  0.12870  Biso   1.000  C
  H73      1.0000 0.74053  0.65375  0.83131  Biso   1.000  H
  H74      1.0000 0.73633  0.65375  0.91371  Biso   1.000  H
  H75      1.0000 0.77314  0.65375  0.87998  Biso   1.000  H
  Zr10     1.0000 0.23637  0.03534  0.28595  Biso   1.000  Zr
  Zr11     1.0000 0.31075  0.99013  0.33637  Biso   1.000  Zr
  Zr12     1.0000 0.26434  0.94455  0.46369  Biso   1.000  Zr
  C124     1.0000 0.15620  0.04730  0.30870  Biso   1.000  C
  C125     1.0000 0.12545  0.08710  0.22550  Biso   1.000  C
  H76      1.0000 0.14671  0.09352  0.20726  Biso   1.000  H
  C126     1.0000 0.12360  0.06290  0.27930  Biso   1.000  C
  C127     1.0000 0.09183  0.05330  0.30650  Biso   1.000  C
  H77      1.0000 0.09059  0.03707  0.34258  Biso   1.000  H
  C128     1.0000 0.06191  0.06790  0.27980  Biso   1.000  C
  H78      1.0000 0.04065  0.06143  0.29802  Biso   1.000  H
  C129     1.0000 0.06377  0.09210  0.22590  Biso   1.000  C
  C130     1.0000 0.09554  0.10170  0.19870  Biso   1.000  C
  H79      1.0000 0.09678  0.11788  0.16269  Biso   1.000  H
  C131     1.0000 0.03190  0.10540  0.19330  Biso   1.000  C
  C132     1.0000 0.00560  0.13900  0.11280  Biso   1.000  C
  C133     1.0000 0.97420  0.11060  0.19460  Biso   1.000  C
  C134     1.0000 0.97582  0.16910  0.01460  Biso   1.000  C
  H80      1.0000 0.95485  0.16433  0.03605  Biso   1.000  H
  C135     1.0000 0.97675  0.18780  0.95200  Biso   1.000  C
  H81      1.0000 0.95641  0.19544  0.93150  Biso   1.000  H
  C136     1.0000 0.00808  0.19500  0.91990  Biso   1.000  C
  C137     1.0000 0.03848  0.18350  0.95050  Biso   1.000  C
  H82      1.0000 0.05945  0.18830  0.92900  Biso   1.000  H
  C138     1.0000 0.03755  0.16490  0.01310  Biso   1.000  C
  H83      1.0000 0.05789  0.15719  0.03355  Biso   1.000  H
  C139     1.0000 0.00622  0.15770  0.04520  Biso   1.000  C
  C140     1.0000 0.00900  0.21190  0.84890  Biso   1.000  C
  C141     1.0000 0.94087  0.10040  0.22590  Biso   1.000  C
  C142     1.0000 0.94040  0.07780  0.28280  Biso   1.000  C
  H84      1.0000 0.96094  0.06995  0.30201  Biso   1.000  H
  C143     1.0000 0.90922  0.06690  0.31080  Biso   1.000  C
  H85      1.0000 0.90890  0.05179  0.34885  Biso   1.000  H
  C144     1.0000 0.87852  0.07870  0.28210  Biso   1.000  C
  C145     1.0000 0.87899  0.10130  0.22520  Biso   1.000  C
  H86      1.0000 0.85845  0.10918  0.20596  Biso   1.000  H
  C146     1.0000 0.91017  0.11220  0.19720  Biso   1.000  C
  H87      1.0000 0.91048  0.12734  0.15912  Biso   1.000  H
  C147     1.0000 0.84480  0.06540  0.30920  Biso   1.000  C
  N13      1.0000 0.03510  0.12570  0.13640  Biso   1.000  N
  N14      1.0000 0.97410  0.13020  0.13880  Biso   1.000  N
  N15      1.0000 0.00300  0.09630  0.22240  Biso   1.000  N
  O46      1.0000 0.18309  0.05420  0.27920  Biso   1.000  O
  O47      1.0000 0.15217  0.02610  0.35940  Biso   1.000  O
  O48      1.0000 0.03790  0.21730  0.82220  Biso   1.000  O
  O49      1.0000 0.97973  0.21970  0.82110  Biso   1.000  O
  O50      1.0000 0.81816  0.07503  0.27890  Biso   1.000  O
  O51      1.0000 0.84753  0.04450  0.36040  Biso   1.000  O
  O52      1.0000 0.23800  0.09130  0.31980  Biso   1.000  O
  O53      1.0000 0.26100  0.88900  0.43250  Biso   1.000  O
  O54      1.0000 0.28010  0.03380  0.35440  Biso   1.000  O
  O55      1.0000 0.26710  0.98870  0.26560  Biso   1.000  O
  O56      1.0000 0.29410  0.98990  0.44590  Biso   1.000  O
  O57      1.0000 0.22040  0.94460  0.39650  Biso   1.000  O
  O58      1.0000 0.23560  0.58360  0.70820  Biso   1.000  O
  C148     1.0000 0.25300  0.81750  0.43690  Biso   1.000  C
  H88      1.0000 0.25522  0.82947  0.47922  Biso   1.000  H
  N16      1.0000 0.24410  0.71040  0.43730  Biso   1.000  N
  C149     1.0000 0.25280  0.78190  0.43890  Biso   1.000  C
  H89      1.0000 0.25456  0.77030  0.48167  Biso   1.000  H
  C150     1.0000 0.24050  0.67470  0.43490  Biso   1.000  C
  O59      1.0000 0.21740  0.54520  0.62290  Biso   1.000  O
  C151     1.0000 0.22730  0.57380  0.64770  Biso   1.000  C
  C152     1.0000 0.21540  0.59380  0.52500  Biso   1.000  C
  H90      1.0000 0.20366  0.57334  0.51730  Biso   1.000  H
  C153     1.0000 0.22150  0.61610  0.46900  Biso   1.000  C
  H91      1.0000 0.21381  0.61063  0.42392  Biso   1.000  H
  C154     1.0000 0.23910  0.64670  0.48050  Biso   1.000  C
  C155     1.0000 0.25060  0.65500  0.54800  Biso   1.000  C
  H92      1.0000 0.26243  0.67544  0.55565  Biso   1.000  H
  C156     1.0000 0.24460  0.63260  0.60390  Biso   1.000  C
  H93      1.0000 0.25228  0.63815  0.64903  Biso   1.000  H
  C157     1.0000 0.22700  0.60200  0.59240  Biso   1.000  C
  O60      1.0000 0.19520  0.61880  0.74260  Biso   1.000  O
  C158     1.0000 0.21680  0.60900  0.69860  Biso   1.000  C
  C159     1.0000 0.21230  0.66040  0.62150  Biso   1.000  C
  H94      1.0000 0.20064  0.67104  0.65846  Biso   1.000  H
  C160     1.0000 0.21860  0.67820  0.55920  Biso   1.000  C
  H95      1.0000 0.21117  0.70083  0.55448  Biso   1.000  H
  C161     1.0000 0.23590  0.66230  0.50410  Biso   1.000  C
  C162     1.0000 0.24700  0.62850  0.51120  Biso   1.000  C
  H96      1.0000 0.25863  0.61779  0.47426  Biso   1.000  H
  C163     1.0000 0.24070  0.61060  0.57350  Biso   1.000  C
  H97      1.0000 0.24810  0.58800  0.57824  Biso   1.000  H
  C164     1.0000 0.22330  0.62660  0.62870  Biso   1.000  C
  H98      1.0000 0.24053  0.15375  0.33131  Biso   1.000  H
  H99      1.0000 0.23633  0.15375  0.41371  Biso   1.000  H
  H100     1.0000 0.27314  0.15375  0.37998  Biso   1.000  H
  Zr13     1.0000 0.46466  0.73637  0.21405  Biso   1.000  Zr
  Zr14     1.0000 0.50987  0.81075  0.16363  Biso   1.000  Zr
  Zr15     1.0000 0.55545  0.76434  0.03631  Biso   1.000  Zr
  C165     1.0000 0.45270  0.65620  0.19130  Biso   1.000  C
  C166     1.0000 0.41290  0.62545  0.27450  Biso   1.000  C
  H101     1.0000 0.40648  0.64671  0.29274  Biso   1.000  H
  C167     1.0000 0.43710  0.62360  0.22070  Biso   1.000  C
  C168     1.0000 0.44670  0.59183  0.19350  Biso   1.000  C
  H102     1.0000 0.46293  0.59059  0.15742  Biso   1.000  H
  C169     1.0000 0.43210  0.56191  0.22020  Biso   1.000  C
  H103     1.0000 0.43857  0.54065  0.20198  Biso   1.000  H
  C170     1.0000 0.40790  0.56377  0.27410  Biso   1.000  C
  C171     1.0000 0.39830  0.59554  0.30130  Biso   1.000  C
  H104     1.0000 0.38212  0.59678  0.33731  Biso   1.000  H
  C172     1.0000 0.39460  0.53190  0.30670  Biso   1.000  C
  C173     1.0000 0.36100  0.50560  0.38720  Biso   1.000  C
  C174     1.0000 0.38940  0.47420  0.30540  Biso   1.000  C
  C175     1.0000 0.33090  0.47582  0.48540  Biso   1.000  C
  H105     1.0000 0.33567  0.45485  0.46395  Biso   1.000  H
  C176     1.0000 0.31220  0.47675  0.54800  Biso   1.000  C
  H106     1.0000 0.30456  0.45641  0.56850  Biso   1.000  H
  C177     1.0000 0.30500  0.50808  0.58010  Biso   1.000  C
  C178     1.0000 0.31650  0.53848  0.54950  Biso   1.000  C
  H107     1.0000 0.31170  0.55945  0.57100  Biso   1.000  H
  C179     1.0000 0.33510  0.53755  0.48690  Biso   1.000  C
  H108     1.0000 0.34281  0.55789  0.46645  Biso   1.000  H
  C180     1.0000 0.34230  0.50622  0.45480  Biso   1.000  C
  C181     1.0000 0.28810  0.50900  0.65110  Biso   1.000  C
  C182     1.0000 0.39960  0.44087  0.27410  Biso   1.000  C
  C183     1.0000 0.42220  0.44040  0.21720  Biso   1.000  C
  H109     1.0000 0.43005  0.46094  0.19799  Biso   1.000  H
  C184     1.0000 0.43310  0.40922  0.18920  Biso   1.000  C
  H110     1.0000 0.44821  0.40890  0.15115  Biso   1.000  H
  C185     1.0000 0.42130  0.37852  0.21790  Biso   1.000  C
  C186     1.0000 0.39870  0.37899  0.27480  Biso   1.000  C
  H111     1.0000 0.39082  0.35845  0.29404  Biso   1.000  H
  C187     1.0000 0.38780  0.41017  0.30280  Biso   1.000  C
  H112     1.0000 0.37266  0.41048  0.34088  Biso   1.000  H
  C188     1.0000 0.43460  0.34480  0.19080  Biso   1.000  C
  N17      1.0000 0.37430  0.53510  0.36360  Biso   1.000  N
  N18      1.0000 0.36980  0.47410  0.36120  Biso   1.000  N
  N19      1.0000 0.40370  0.50300  0.27760  Biso   1.000  N
  O61      1.0000 0.44580  0.68309  0.22080  Biso   1.000  O
  O62      1.0000 0.47390  0.65217  0.14060  Biso   1.000  O
  O63      1.0000 0.28270  0.53790  0.67780  Biso   1.000  O
  O64      1.0000 0.28030  0.47973  0.67890  Biso   1.000  O
  O65      1.0000 0.42497  0.31816  0.22110  Biso   1.000  O
  O66      1.0000 0.45550  0.34753  0.13960  Biso   1.000  O
  O67      1.0000 0.40870  0.73800  0.18020  Biso   1.000  O
  O68      1.0000 0.61100  0.76100  0.06750  Biso   1.000  O
  O69      1.0000 0.46620  0.78010  0.14560  Biso   1.000  O
  O70      1.0000 0.51130  0.76710  0.23440  Biso   1.000  O
  O71      1.0000 0.51010  0.79410  0.05410  Biso   1.000  O
  O72      1.0000 0.55540  0.72040  0.10350  Biso   1.000  O
  O73      1.0000 0.91640  0.73560  0.79180  Biso   1.000  O
  C189     1.0000 0.68250  0.75300  0.06310  Biso   1.000  C
  H113     1.0000 0.67053  0.75522  0.02078  Biso   1.000  H
  N20      1.0000 0.78960  0.74410  0.06270  Biso   1.000  N
  C190     1.0000 0.71810  0.75280  0.06110  Biso   1.000  C
  H114     1.0000 0.72970  0.75456  0.01833  Biso   1.000  H
  C191     1.0000 0.82530  0.74050  0.06510  Biso   1.000  C
  O74      1.0000 0.95480  0.71740  0.87710  Biso   1.000  O
  C192     1.0000 0.92620  0.72730  0.85230  Biso   1.000  C
  C193     1.0000 0.90620  0.71540  0.97500  Biso   1.000  C
  H115     1.0000 0.92666  0.70366  0.98270  Biso   1.000  H
  C194     1.0000 0.88390  0.72150  0.03100  Biso   1.000  C
  H116     1.0000 0.88937  0.71381  0.07608  Biso   1.000  H
  C195     1.0000 0.85330  0.73910  0.01950  Biso   1.000  C
  C196     1.0000 0.84500  0.75060  0.95200  Biso   1.000  C
  H117     1.0000 0.82456  0.76243  0.94435  Biso   1.000  H
  C197     1.0000 0.86740  0.74460  0.89610  Biso   1.000  C
  H118     1.0000 0.86185  0.75228  0.85097  Biso   1.000  H
  C198     1.0000 0.89800  0.72700  0.90760  Biso   1.000  C
  O75      1.0000 0.88120  0.69520  0.75740  Biso   1.000  O
  C199     1.0000 0.89100  0.71680  0.80140  Biso   1.000  C
  C200     1.0000 0.83960  0.71230  0.87850  Biso   1.000  C
  H119     1.0000 0.82896  0.70064  0.84154  Biso   1.000  H
  C201     1.0000 0.82180  0.71860  0.94080  Biso   1.000  C
  H120     1.0000 0.79917  0.71117  0.94552  Biso   1.000  H
  C202     1.0000 0.83770  0.73590  0.99590  Biso   1.000  C
  C203     1.0000 0.87150  0.74700  0.98880  Biso   1.000  C
  H121     1.0000 0.88221  0.75863  0.02574  Biso   1.000  H
  C204     1.0000 0.88940  0.74070  0.92650  Biso   1.000  C
  H122     1.0000 0.91200  0.74810  0.92176  Biso   1.000  H
  C205     1.0000 0.87340  0.72330  0.87130  Biso   1.000  C
  H123     1.0000 0.34625  0.74053  0.16869  Biso   1.000  H
  H124     1.0000 0.34625  0.73633  0.08629  Biso   1.000  H
  H125     1.0000 0.34625  0.77314  0.12002  Biso   1.000  H
  Zr16     1.0000 0.96466  0.23637  0.71405  Biso   1.000  Zr
  Zr17     1.0000 0.00987  0.31075  0.66363  Biso   1.000  Zr
  Zr18     1.0000 0.05545  0.26434  0.53631  Biso   1.000  Zr
  C206     1.0000 0.95270  0.15620  0.69130  Biso   1.000  C
  C207     1.0000 0.91290  0.12545  0.77450  Biso   1.000  C
  H126     1.0000 0.90648  0.14671  0.79274  Biso   1.000  H
  C208     1.0000 0.93710  0.12360  0.72070  Biso   1.000  C
  C209     1.0000 0.94670  0.09183  0.69350  Biso   1.000  C
  H127     1.0000 0.96293  0.09059  0.65742  Biso   1.000  H
  C210     1.0000 0.93210  0.06191  0.72020  Biso   1.000  C
  H128     1.0000 0.93857  0.04065  0.70198  Biso   1.000  H
  C211     1.0000 0.90790  0.06377  0.77410  Biso   1.000  C
  C212     1.0000 0.89830  0.09554  0.80130  Biso   1.000  C
  H129     1.0000 0.88212  0.09678  0.83731  Biso   1.000  H
  C213     1.0000 0.89460  0.03190  0.80670  Biso   1.000  C
  C214     1.0000 0.86100  0.00560  0.88720  Biso   1.000  C
  C215     1.0000 0.88940  0.97420  0.80540  Biso   1.000  C
  C216     1.0000 0.83090  0.97582  0.98540  Biso   1.000  C
  H130     1.0000 0.83567  0.95485  0.96395  Biso   1.000  H
  C217     1.0000 0.81220  0.97675  0.04800  Biso   1.000  C
  H131     1.0000 0.80456  0.95641  0.06850  Biso   1.000  H
  C218     1.0000 0.80500  0.00808  0.08010  Biso   1.000  C
  C219     1.0000 0.81650  0.03848  0.04950  Biso   1.000  C
  H132     1.0000 0.81170  0.05945  0.07100  Biso   1.000  H
  C220     1.0000 0.83510  0.03755  0.98690  Biso   1.000  C
  H133     1.0000 0.84281  0.05789  0.96645  Biso   1.000  H
  C221     1.0000 0.84230  0.00622  0.95480  Biso   1.000  C
  C222     1.0000 0.78810  0.00900  0.15110  Biso   1.000  C
  C223     1.0000 0.89960  0.94087  0.77410  Biso   1.000  C
  C224     1.0000 0.92220  0.94040  0.71720  Biso   1.000  C
  H134     1.0000 0.93005  0.96094  0.69799  Biso   1.000  H
  C225     1.0000 0.93310  0.90922  0.68920  Biso   1.000  C
  H135     1.0000 0.94821  0.90890  0.65115  Biso   1.000  H
  C226     1.0000 0.92130  0.87852  0.71790  Biso   1.000  C
  C227     1.0000 0.89870  0.87899  0.77480  Biso   1.000  C
  H136     1.0000 0.89082  0.85845  0.79404  Biso   1.000  H
  C228     1.0000 0.88780  0.91017  0.80280  Biso   1.000  C
  H137     1.0000 0.87266  0.91048  0.84088  Biso   1.000  H
  C229     1.0000 0.93460  0.84480  0.69080  Biso   1.000  C
  N21      1.0000 0.87430  0.03510  0.86360  Biso   1.000  N
  N22      1.0000 0.86980  0.97410  0.86120  Biso   1.000  N
  N23      1.0000 0.90370  0.00300  0.77760  Biso   1.000  N
  O76      1.0000 0.94580  0.18309  0.72080  Biso   1.000  O
  O77      1.0000 0.97390  0.15217  0.64060  Biso   1.000  O
  O78      1.0000 0.78270  0.03790  0.17780  Biso   1.000  O
  O79      1.0000 0.78030  0.97973  0.17890  Biso   1.000  O
  O80      1.0000 0.92497  0.81816  0.72110  Biso   1.000  O
  O81      1.0000 0.95550  0.84753  0.63960  Biso   1.000  O
  O82      1.0000 0.90870  0.23800  0.68020  Biso   1.000  O
  O83      1.0000 0.11100  0.26100  0.56750  Biso   1.000  O
  O84      1.0000 0.96620  0.28010  0.64560  Biso   1.000  O
  O85      1.0000 0.01130  0.26710  0.73440  Biso   1.000  O
  O86      1.0000 0.01010  0.29410  0.55410  Biso   1.000  O
  O87      1.0000 0.05540  0.22040  0.60350  Biso   1.000  O
  O88      1.0000 0.41640  0.23560  0.29180  Biso   1.000  O
  C230     1.0000 0.18250  0.25300  0.56310  Biso   1.000  C
  H138     1.0000 0.17053  0.25522  0.52078  Biso   1.000  H
  N24      1.0000 0.28960  0.24410  0.56270  Biso   1.000  N
  C231     1.0000 0.21810  0.25280  0.56110  Biso   1.000  C
  H139     1.0000 0.22970  0.25456  0.51833  Biso   1.000  H
  C232     1.0000 0.32530  0.24050  0.56510  Biso   1.000  C
  O89      1.0000 0.45480  0.21740  0.37710  Biso   1.000  O
  C233     1.0000 0.42620  0.22730  0.35230  Biso   1.000  C
  C234     1.0000 0.40620  0.21540  0.47500  Biso   1.000  C
  H140     1.0000 0.42666  0.20366  0.48270  Biso   1.000  H
  C235     1.0000 0.38390  0.22150  0.53100  Biso   1.000  C
  H141     1.0000 0.38937  0.21381  0.57608  Biso   1.000  H
  C236     1.0000 0.35330  0.23910  0.51950  Biso   1.000  C
  C237     1.0000 0.34500  0.25060  0.45200  Biso   1.000  C
  H142     1.0000 0.32456  0.26243  0.44435  Biso   1.000  H
  C238     1.0000 0.36740  0.24460  0.39610  Biso   1.000  C
  H143     1.0000 0.36185  0.25228  0.35097  Biso   1.000  H
  C239     1.0000 0.39800  0.22700  0.40760  Biso   1.000  C
  O90      1.0000 0.38120  0.19520  0.25740  Biso   1.000  O
  C240     1.0000 0.39100  0.21680  0.30140  Biso   1.000  C
  C241     1.0000 0.33960  0.21230  0.37850  Biso   1.000  C
  H144     1.0000 0.32896  0.20064  0.34154  Biso   1.000  H
  C242     1.0000 0.32180  0.21860  0.44080  Biso   1.000  C
  H145     1.0000 0.29917  0.21117  0.44552  Biso   1.000  H
  C243     1.0000 0.33770  0.23590  0.49590  Biso   1.000  C
  C244     1.0000 0.37150  0.24700  0.48880  Biso   1.000  C
  H146     1.0000 0.38221  0.25863  0.52574  Biso   1.000  H
  C245     1.0000 0.38940  0.24070  0.42650  Biso   1.000  C
  H147     1.0000 0.41200  0.24810  0.42176  Biso   1.000  H
  C246     1.0000 0.37340  0.22330  0.37130  Biso   1.000  C
  H148     1.0000 0.84625  0.24053  0.66869  Biso   1.000  H
  H149     1.0000 0.84625  0.23633  0.58629  Biso   1.000  H
  H150     1.0000 0.84625  0.27314  0.62002  Biso   1.000  H
  Zr19     1.0000 0.53534  0.26363  0.21405  Biso   1.000  Zr
  Zr20     1.0000 0.49013  0.18925  0.16363  Biso   1.000  Zr
  Zr21     1.0000 0.44455  0.23566  0.03631  Biso   1.000  Zr
  C247     1.0000 0.54730  0.34380  0.19130  Biso   1.000  C
  C248     1.0000 0.58710  0.37455  0.27450  Biso   1.000  C
  H151     1.0000 0.59352  0.35329  0.29274  Biso   1.000  H
  C249     1.0000 0.56290  0.37640  0.22070  Biso   1.000  C
  C250     1.0000 0.55330  0.40817  0.19350  Biso   1.000  C
  H152     1.0000 0.53707  0.40941  0.15742  Biso   1.000  H
  C251     1.0000 0.56790  0.43809  0.22020  Biso   1.000  C
  H153     1.0000 0.56143  0.45935  0.20198  Biso   1.000  H
  C252     1.0000 0.59210  0.43623  0.27410  Biso   1.000  C
  C253     1.0000 0.60170  0.40446  0.30130  Biso   1.000  C
  H154     1.0000 0.61788  0.40322  0.33731  Biso   1.000  H
  C254     1.0000 0.60540  0.46810  0.30670  Biso   1.000  C
  C255     1.0000 0.63900  0.49440  0.38720  Biso   1.000  C
  C256     1.0000 0.61060  0.52580  0.30540  Biso   1.000  C
  C257     1.0000 0.66910  0.52418  0.48540  Biso   1.000  C
  H155     1.0000 0.66433  0.54515  0.46395  Biso   1.000  H
  C258     1.0000 0.68780  0.52325  0.54800  Biso   1.000  C
  H156     1.0000 0.69544  0.54359  0.56850  Biso   1.000  H
  C259     1.0000 0.69500  0.49192  0.58010  Biso   1.000  C
  C260     1.0000 0.68350  0.46152  0.54950  Biso   1.000  C
  H157     1.0000 0.68830  0.44055  0.57100  Biso   1.000  H
  C261     1.0000 0.66490  0.46245  0.48690  Biso   1.000  C
  H158     1.0000 0.65719  0.44211  0.46645  Biso   1.000  H
  C262     1.0000 0.65770  0.49378  0.45480  Biso   1.000  C
  C263     1.0000 0.71190  0.49100  0.65110  Biso   1.000  C
  C264     1.0000 0.60040  0.55913  0.27410  Biso   1.000  C
  C265     1.0000 0.57780  0.55960  0.21720  Biso   1.000  C
  H159     1.0000 0.56995  0.53906  0.19799  Biso   1.000  H
  C266     1.0000 0.56690  0.59078  0.18920  Biso   1.000  C
  H160     1.0000 0.55179  0.59110  0.15115  Biso   1.000  H
  C267     1.0000 0.57870  0.62148  0.21790  Biso   1.000  C
  C268     1.0000 0.60130  0.62101  0.27480  Biso   1.000  C
  H161     1.0000 0.60918  0.64155  0.29404  Biso   1.000  H
  C269     1.0000 0.61220  0.58983  0.30280  Biso   1.000  C
  H162     1.0000 0.62734  0.58952  0.34088  Biso   1.000  H
  C270     1.0000 0.56540  0.65520  0.19080  Biso   1.000  C
  N25      1.0000 0.62570  0.46490  0.36360  Biso   1.000  N
  N26      1.0000 0.63020  0.52590  0.36120  Biso   1.000  N
  N27      1.0000 0.59630  0.49700  0.27760  Biso   1.000  N
  O91      1.0000 0.55420  0.31691  0.22080  Biso   1.000  O
  O92      1.0000 0.52610  0.34783  0.14060  Biso   1.000  O
  O93      1.0000 0.71730  0.46210  0.67780  Biso   1.000  O
  O94      1.0000 0.71970  0.52027  0.67890  Biso   1.000  O
  O95      1.0000 0.57503  0.68184  0.22110  Biso   1.000  O
  O96      1.0000 0.54450  0.65247  0.13960  Biso   1.000  O
  O97      1.0000 0.59130  0.26200  0.18020  Biso   1.000  O
  O98      1.0000 0.38900  0.23900  0.06750  Biso   1.000  O
  O99      1.0000 0.53380  0.21990  0.14560  Biso   1.000  O
  O100     1.0000 0.48870  0.23290  0.23440  Biso   1.000  O
  O101     1.0000 0.48990  0.20590  0.05410  Biso   1.000  O
  O102     1.0000 0.44460  0.27960  0.10350  Biso   1.000  O
  O103     1.0000 0.08360  0.26440  0.79180  Biso   1.000  O
  C271     1.0000 0.31750  0.24700  0.06310  Biso   1.000  C
  H163     1.0000 0.32947  0.24478  0.02078  Biso   1.000  H
  N28      1.0000 0.21040  0.25590  0.06270  Biso   1.000  N
  C272     1.0000 0.28190  0.24720  0.06110  Biso   1.000  C
  H164     1.0000 0.27030  0.24544  0.01833  Biso   1.000  H
  C273     1.0000 0.17470  0.25950  0.06510  Biso   1.000  C
  O104     1.0000 0.04520  0.28260  0.87710  Biso   1.000  O
  C274     1.0000 0.07380  0.27270  0.85230  Biso   1.000  C
  C275     1.0000 0.09380  0.28460  0.97500  Biso   1.000  C
  H165     1.0000 0.07334  0.29634  0.98270  Biso   1.000  H
  C276     1.0000 0.11610  0.27850  0.03100  Biso   1.000  C
  H166     1.0000 0.11063  0.28619  0.07608  Biso   1.000  H
  C277     1.0000 0.14670  0.26090  0.01950  Biso   1.000  C
  C278     1.0000 0.15500  0.24940  0.95200  Biso   1.000  C
  H167     1.0000 0.17544  0.23757  0.94435  Biso   1.000  H
  C279     1.0000 0.13260  0.25540  0.89610  Biso   1.000  C
  H168     1.0000 0.13815  0.24772  0.85097  Biso   1.000  H
  C280     1.0000 0.10200  0.27300  0.90760  Biso   1.000  C
  O105     1.0000 0.11880  0.30480  0.75740  Biso   1.000  O
  C281     1.0000 0.10900  0.28320  0.80140  Biso   1.000  C
  C282     1.0000 0.16040  0.28770  0.87850  Biso   1.000  C
  H169     1.0000 0.17104  0.29936  0.84154  Biso   1.000  H
  C283     1.0000 0.17820  0.28140  0.94080  Biso   1.000  C
  H170     1.0000 0.20083  0.28883  0.94552  Biso   1.000  H
  C284     1.0000 0.16230  0.26410  0.99590  Biso   1.000  C
  C285     1.0000 0.12850  0.25300  0.98880  Biso   1.000  C
  H171     1.0000 0.11779  0.24137  0.02574  Biso   1.000  H
  C286     1.0000 0.11060  0.25930  0.92650  Biso   1.000  C
  H172     1.0000 0.08800  0.25190  0.92176  Biso   1.000  H
  C287     1.0000 0.12660  0.27670  0.87130  Biso   1.000  C
  H173     1.0000 0.65375  0.25947  0.16869  Biso   1.000  H
  H174     1.0000 0.65375  0.26367  0.08629  Biso   1.000  H
  H175     1.0000 0.65375  0.22686  0.12002  Biso   1.000  H
  Zr22     1.0000 0.03534  0.76363  0.71405  Biso   1.000  Zr
  Zr23     1.0000 0.99013  0.68925  0.66363  Biso   1.000  Zr
  Zr24     1.0000 0.94455  0.73566  0.53631  Biso   1.000  Zr
  C288     1.0000 0.04730  0.84380  0.69130  Biso   1.000  C
  C289     1.0000 0.08710  0.87455  0.77450  Biso   1.000  C
  H176     1.0000 0.09352  0.85329  0.79274  Biso   1.000  H
  C290     1.0000 0.06290  0.87640  0.72070  Biso   1.000  C
  C291     1.0000 0.05330  0.90817  0.69350  Biso   1.000  C
  H177     1.0000 0.03707  0.90941  0.65742  Biso   1.000  H
  C292     1.0000 0.06790  0.93809  0.72020  Biso   1.000  C
  H178     1.0000 0.06143  0.95935  0.70198  Biso   1.000  H
  C293     1.0000 0.09210  0.93623  0.77410  Biso   1.000  C
  C294     1.0000 0.10170  0.90446  0.80130  Biso   1.000  C
  H179     1.0000 0.11788  0.90322  0.83731  Biso   1.000  H
  C295     1.0000 0.10540  0.96810  0.80670  Biso   1.000  C
  C296     1.0000 0.13900  0.99440  0.88720  Biso   1.000  C
  C297     1.0000 0.11060  0.02580  0.80540  Biso   1.000  C
  C298     1.0000 0.16910  0.02418  0.98540  Biso   1.000  C
  H180     1.0000 0.16433  0.04515  0.96395  Biso   1.000  H
  C299     1.0000 0.18780  0.02325  0.04800  Biso   1.000  C
  H181     1.0000 0.19544  0.04359  0.06850  Biso   1.000  H
  C300     1.0000 0.19500  0.99192  0.08010  Biso   1.000  C
  C301     1.0000 0.18350  0.96152  0.04950  Biso   1.000  C
  H182     1.0000 0.18830  0.94055  0.07100  Biso   1.000  H
  C302     1.0000 0.16490  0.96245  0.98690  Biso   1.000  C
  H183     1.0000 0.15719  0.94211  0.96645  Biso   1.000  H
  C303     1.0000 0.15770  0.99378  0.95480  Biso   1.000  C
  C304     1.0000 0.21190  0.99100  0.15110  Biso   1.000  C
  C305     1.0000 0.10040  0.05913  0.77410  Biso   1.000  C
  C306     1.0000 0.07780  0.05960  0.71720  Biso   1.000  C
  H184     1.0000 0.06995  0.03906  0.69799  Biso   1.000  H
  C307     1.0000 0.06690  0.09078  0.68920  Biso   1.000  C
  H185     1.0000 0.05179  0.09110  0.65115  Biso   1.000  H
  C308     1.0000 0.07870  0.12148  0.71790  Biso   1.000  C
  C309     1.0000 0.10130  0.12101  0.77480  Biso   1.000  C
  H186     1.0000 0.10918  0.14155  0.79404  Biso   1.000  H
  C310     1.0000 0.11220  0.08983  0.80280  Biso   1.000  C
  H187     1.0000 0.12734  0.08952  0.84088  Biso   1.000  H
  C311     1.0000 0.06540  0.15520  0.69080  Biso   1.000  C
  N29      1.0000 0.12570  0.96490  0.86360  Biso   1.000  N
  N30      1.0000 0.13020  0.02590  0.86120  Biso   1.000  N
  N31      1.0000 0.09630  0.99700  0.77760  Biso   1.000  N
  O106     1.0000 0.05420  0.81691  0.72080  Biso   1.000  O
  O107     1.0000 0.02610  0.84783  0.64060  Biso   1.000  O
  O108     1.0000 0.21730  0.96210  0.17780  Biso   1.000  O
  O109     1.0000 0.21970  0.02027  0.17890  Biso   1.000  O
  O110     1.0000 0.07503  0.18184  0.72110  Biso   1.000  O
  O111     1.0000 0.04450  0.15247  0.63960  Biso   1.000  O
  O112     1.0000 0.09130  0.76200  0.68020  Biso   1.000  O
  O113     1.0000 0.88900  0.73900  0.56750  Biso   1.000  O
  O114     1.0000 0.03380  0.71990  0.64560  Biso   1.000  O
  O115     1.0000 0.98870  0.73290  0.73440  Biso   1.000  O
  O116     1.0000 0.98990  0.70590  0.55410  Biso   1.000  O
  O117     1.0000 0.94460  0.77960  0.60350  Biso   1.000  O
  O118     1.0000 0.58360  0.76440  0.29180  Biso   1.000  O
  C312     1.0000 0.81750  0.74700  0.56310  Biso   1.000  C
  H188     1.0000 0.82947  0.74478  0.52078  Biso   1.000  H
  N32      1.0000 0.71040  0.75590  0.56270  Biso   1.000  N
  C313     1.0000 0.78190  0.74720  0.56110  Biso   1.000  C
  H189     1.0000 0.77030  0.74544  0.51833  Biso   1.000  H
  C314     1.0000 0.67470  0.75950  0.56510  Biso   1.000  C
  O119     1.0000 0.54520  0.78260  0.37710  Biso   1.000  O
  C315     1.0000 0.57380  0.77270  0.35230  Biso   1.000  C
  C316     1.0000 0.59380  0.78460  0.47500  Biso   1.000  C
  H190     1.0000 0.57334  0.79634  0.48270  Biso   1.000  H
  C317     1.0000 0.61610  0.77850  0.53100  Biso   1.000  C
  H191     1.0000 0.61063  0.78619  0.57608  Biso   1.000  H
  C318     1.0000 0.64670  0.76090  0.51950  Biso   1.000  C
  C319     1.0000 0.65500  0.74940  0.45200  Biso   1.000  C
  H192     1.0000 0.67544  0.73757  0.44435  Biso   1.000  H
  C320     1.0000 0.63260  0.75540  0.39610  Biso   1.000  C
  H193     1.0000 0.63815  0.74772  0.35097  Biso   1.000  H
  C321     1.0000 0.60200  0.77300  0.40760  Biso   1.000  C
  O120     1.0000 0.61880  0.80480  0.25740  Biso   1.000  O
  C322     1.0000 0.60900  0.78320  0.30140  Biso   1.000  C
  C323     1.0000 0.66040  0.78770  0.37850  Biso   1.000  C
  H194     1.0000 0.67104  0.79936  0.34154  Biso   1.000  H
  C324     1.0000 0.67820  0.78140  0.44080  Biso   1.000  C
  H195     1.0000 0.70083  0.78883  0.44552  Biso   1.000  H
  C325     1.0000 0.66230  0.76410  0.49590  Biso   1.000  C
  C326     1.0000 0.62850  0.75300  0.48880  Biso   1.000  C
  H196     1.0000 0.61779  0.74137  0.52574  Biso   1.000  H
  C327     1.0000 0.61060  0.75930  0.42650  Biso   1.000  C
  H197     1.0000 0.58800  0.75190  0.42176  Biso   1.000  H
  C328     1.0000 0.62660  0.77670  0.37130  Biso   1.000  C
  H198     1.0000 0.15375  0.75947  0.66869  Biso   1.000  H
  H199     1.0000 0.15375  0.76367  0.58629  Biso   1.000  H
  H200     1.0000 0.15375  0.72686  0.62002  Biso   1.000  H
  Zr25     1.0000 0.23637  0.46466  0.96405  Biso   1.000  Zr
  Zr26     1.0000 0.31075  0.50987  0.91363  Biso   1.000  Zr
  Zr27     1.0000 0.26434  0.55545  0.78631  Biso   1.000  Zr
  C329     1.0000 0.15620  0.45270  0.94130  Biso   1.000  C
  C330     1.0000 0.12545  0.41290  0.02450  Biso   1.000  C
  H201     1.0000 0.14671  0.40648  0.04274  Biso   1.000  H
  C331     1.0000 0.12360  0.43710  0.97070  Biso   1.000  C
  C332     1.0000 0.09183  0.44670  0.94350  Biso   1.000  C
  H202     1.0000 0.09059  0.46293  0.90742  Biso   1.000  H
  C333     1.0000 0.06191  0.43210  0.97020  Biso   1.000  C
  H203     1.0000 0.04065  0.43857  0.95198  Biso   1.000  H
  C334     1.0000 0.06377  0.40790  0.02410  Biso   1.000  C
  C335     1.0000 0.09554  0.39830  0.05130  Biso   1.000  C
  H204     1.0000 0.09678  0.38212  0.08731  Biso   1.000  H
  C336     1.0000 0.03190  0.39460  0.05670  Biso   1.000  C
  C337     1.0000 0.00560  0.36100  0.13720  Biso   1.000  C
  C338     1.0000 0.97420  0.38940  0.05540  Biso   1.000  C
  C339     1.0000 0.97582  0.33090  0.23540  Biso   1.000  C
  H205     1.0000 0.95485  0.33567  0.21395  Biso   1.000  H
  C340     1.0000 0.97675  0.31220  0.29800  Biso   1.000  C
  H206     1.0000 0.95641  0.30456  0.31850  Biso   1.000  H
  C341     1.0000 0.00808  0.30500  0.33010  Biso   1.000  C
  C342     1.0000 0.03848  0.31650  0.29950  Biso   1.000  C
  H207     1.0000 0.05945  0.31170  0.32100  Biso   1.000  H
  C343     1.0000 0.03755  0.33510  0.23690  Biso   1.000  C
  H208     1.0000 0.05789  0.34281  0.21645  Biso   1.000  H
  C344     1.0000 0.00622  0.34230  0.20480  Biso   1.000  C
  C345     1.0000 0.00900  0.28810  0.40110  Biso   1.000  C
  C346     1.0000 0.94087  0.39960  0.02410  Biso   1.000  C
  C347     1.0000 0.94040  0.42220  0.96720  Biso   1.000  C
  H209     1.0000 0.96094  0.43005  0.94799  Biso   1.000  H
  C348     1.0000 0.90922  0.43310  0.93920  Biso   1.000  C
  H210     1.0000 0.90890  0.44821  0.90115  Biso   1.000  H
  C349     1.0000 0.87852  0.42130  0.96790  Biso   1.000  C
  C350     1.0000 0.87899  0.39870  0.02480  Biso   1.000  C
  H211     1.0000 0.85845  0.39082  0.04404  Biso   1.000  H
  C351     1.0000 0.91017  0.38780  0.05280  Biso   1.000  C
  H212     1.0000 0.91048  0.37266  0.09088  Biso   1.000  H
  C352     1.0000 0.84480  0.43460  0.94080  Biso   1.000  C
  N33      1.0000 0.03510  0.37430  0.11360  Biso   1.000  N
  N34      1.0000 0.97410  0.36980  0.11120  Biso   1.000  N
  N35      1.0000 0.00300  0.40370  0.02760  Biso   1.000  N
  O121     1.0000 0.18309  0.44580  0.97080  Biso   1.000  O
  O122     1.0000 0.15217  0.47390  0.89060  Biso   1.000  O
  O123     1.0000 0.03790  0.28270  0.42780  Biso   1.000  O
  O124     1.0000 0.97973  0.28030  0.42890  Biso   1.000  O
  O125     1.0000 0.81816  0.42497  0.97110  Biso   1.000  O
  O126     1.0000 0.84753  0.45550  0.88960  Biso   1.000  O
  O127     1.0000 0.23800  0.40870  0.93020  Biso   1.000  O
  O128     1.0000 0.26100  0.61100  0.81750  Biso   1.000  O
  O129     1.0000 0.28010  0.46620  0.89560  Biso   1.000  O
  O130     1.0000 0.26710  0.51130  0.98440  Biso   1.000  O
  O131     1.0000 0.29410  0.51010  0.80410  Biso   1.000  O
  O132     1.0000 0.22040  0.55540  0.85350  Biso   1.000  O
  O133     1.0000 0.23560  0.91640  0.54180  Biso   1.000  O
  C353     1.0000 0.25300  0.68250  0.81310  Biso   1.000  C
  H213     1.0000 0.25522  0.67053  0.77078  Biso   1.000  H
  N36      1.0000 0.24410  0.78960  0.81270  Biso   1.000  N
  C354     1.0000 0.25280  0.71810  0.81110  Biso   1.000  C
  H214     1.0000 0.25456  0.72970  0.76833  Biso   1.000  H
  C355     1.0000 0.24050  0.82530  0.81510  Biso   1.000  C
  O134     1.0000 0.21740  0.95480  0.62710  Biso   1.000  O
  C356     1.0000 0.22730  0.92620  0.60230  Biso   1.000  C
  C357     1.0000 0.21540  0.90620  0.72500  Biso   1.000  C
  H215     1.0000 0.20366  0.92666  0.73270  Biso   1.000  H
  C358     1.0000 0.22150  0.88390  0.78100  Biso   1.000  C
  H216     1.0000 0.21381  0.88937  0.82608  Biso   1.000  H
  C359     1.0000 0.23910  0.85330  0.76950  Biso   1.000  C
  C360     1.0000 0.25060  0.84500  0.70200  Biso   1.000  C
  H217     1.0000 0.26243  0.82456  0.69435  Biso   1.000  H
  C361     1.0000 0.24460  0.86740  0.64610  Biso   1.000  C
  H218     1.0000 0.25228  0.86185  0.60097  Biso   1.000  H
  C362     1.0000 0.22700  0.89800  0.65760  Biso   1.000  C
  O135     1.0000 0.19520  0.88120  0.50740  Biso   1.000  O
  C363     1.0000 0.21680  0.89100  0.55140  Biso   1.000  C
  C364     1.0000 0.21230  0.83960  0.62850  Biso   1.000  C
  H219     1.0000 0.20064  0.82896  0.59154  Biso   1.000  H
  C365     1.0000 0.21860  0.82180  0.69080  Biso   1.000  C
  H220     1.0000 0.21117  0.79917  0.69552  Biso   1.000  H
  C366     1.0000 0.23590  0.83770  0.74590  Biso   1.000  C
  C367     1.0000 0.24700  0.87150  0.73880  Biso   1.000  C
  H221     1.0000 0.25863  0.88221  0.77574  Biso   1.000  H
  C368     1.0000 0.24070  0.88940  0.67650  Biso   1.000  C
  H222     1.0000 0.24810  0.91200  0.67176  Biso   1.000  H
  C369     1.0000 0.22330  0.87340  0.62130  Biso   1.000  C
  H223     1.0000 0.24053  0.34625  0.91869  Biso   1.000  H
  H224     1.0000 0.23633  0.34625  0.83629  Biso   1.000  H
  H225     1.0000 0.27314  0.34625  0.87002  Biso   1.000  H
  Zr28     1.0000 0.73637  0.96466  0.46405  Biso   1.000  Zr
  Zr29     1.0000 0.81075  0.00987  0.41363  Biso   1.000  Zr
  Zr30     1.0000 0.76434  0.05545  0.28631  Biso   1.000  Zr
  C370     1.0000 0.65620  0.95270  0.44130  Biso   1.000  C
  C371     1.0000 0.62545  0.91290  0.52450  Biso   1.000  C
  H226     1.0000 0.64671  0.90648  0.54274  Biso   1.000  H
  C372     1.0000 0.62360  0.93710  0.47070  Biso   1.000  C
  C373     1.0000 0.59183  0.94670  0.44350  Biso   1.000  C
  H227     1.0000 0.59059  0.96293  0.40742  Biso   1.000  H
  C374     1.0000 0.56191  0.93210  0.47020  Biso   1.000  C
  H228     1.0000 0.54065  0.93857  0.45198  Biso   1.000  H
  C375     1.0000 0.56377  0.90790  0.52410  Biso   1.000  C
  C376     1.0000 0.59554  0.89830  0.55130  Biso   1.000  C
  H229     1.0000 0.59678  0.88212  0.58731  Biso   1.000  H
  C377     1.0000 0.53190  0.89460  0.55670  Biso   1.000  C
  C378     1.0000 0.50560  0.86100  0.63720  Biso   1.000  C
  C379     1.0000 0.47420  0.88940  0.55540  Biso   1.000  C
  C380     1.0000 0.47582  0.83090  0.73540  Biso   1.000  C
  H230     1.0000 0.45485  0.83567  0.71395  Biso   1.000  H
  C381     1.0000 0.47675  0.81220  0.79800  Biso   1.000  C
  H231     1.0000 0.45641  0.80456  0.81850  Biso   1.000  H
  C382     1.0000 0.50808  0.80500  0.83010  Biso   1.000  C
  C383     1.0000 0.53848  0.81650  0.79950  Biso   1.000  C
  H232     1.0000 0.55945  0.81170  0.82100  Biso   1.000  H
  C384     1.0000 0.53755  0.83510  0.73690  Biso   1.000  C
  H233     1.0000 0.55789  0.84281  0.71645  Biso   1.000  H
  C385     1.0000 0.50622  0.84230  0.70480  Biso   1.000  C
  C386     1.0000 0.50900  0.78810  0.90110  Biso   1.000  C
  C387     1.0000 0.44087  0.89960  0.52410  Biso   1.000  C
  C388     1.0000 0.44040  0.92220  0.46720  Biso   1.000  C
  H234     1.0000 0.46094  0.93005  0.44799  Biso   1.000  H
  C389     1.0000 0.40922  0.93310  0.43920  Biso   1.000  C
  H235     1.0000 0.40890  0.94821  0.40115  Biso   1.000  H
  C390     1.0000 0.37852  0.92130  0.46790  Biso   1.000  C
  C391     1.0000 0.37899  0.89870  0.52480  Biso   1.000  C
  H236     1.0000 0.35845  0.89082  0.54404  Biso   1.000  H
  C392     1.0000 0.41017  0.88780  0.55280  Biso   1.000  C
  H237     1.0000 0.41048  0.87266  0.59088  Biso   1.000  H
  C393     1.0000 0.34480  0.93460  0.44080  Biso   1.000  C
  N37      1.0000 0.53510  0.87430  0.61360  Biso   1.000  N
  N38      1.0000 0.47410  0.86980  0.61120  Biso   1.000  N
  N39      1.0000 0.50300  0.90370  0.52760  Biso   1.000  N
  O136     1.0000 0.68309  0.94580  0.47080  Biso   1.000  O
  O137     1.0000 0.65217  0.97390  0.39060  Biso   1.000  O
  O138     1.0000 0.53790  0.78270  0.92780  Biso   1.000  O
  O139     1.0000 0.47973  0.78030  0.92890  Biso   1.000  O
  O140     1.0000 0.31816  0.92497  0.47110  Biso   1.000  O
  O141     1.0000 0.34753  0.95550  0.38960  Biso   1.000  O
  O142     1.0000 0.73800  0.90870  0.43020  Biso   1.000  O
  O143     1.0000 0.76100  0.11100  0.31750  Biso   1.000  O
  O144     1.0000 0.78010  0.96620  0.39560  Biso   1.000  O
  O145     1.0000 0.76710  0.01130  0.48440  Biso   1.000  O
  O146     1.0000 0.79410  0.01010  0.30410  Biso   1.000  O
  O147     1.0000 0.72040  0.05540  0.35350  Biso   1.000  O
  O148     1.0000 0.73560  0.41640  0.04180  Biso   1.000  O
  C394     1.0000 0.75300  0.18250  0.31310  Biso   1.000  C
  H238     1.0000 0.75522  0.17053  0.27078  Biso   1.000  H
  N40      1.0000 0.74410  0.28960  0.31270  Biso   1.000  N
  C395     1.0000 0.75280  0.21810  0.31110  Biso   1.000  C
  H239     1.0000 0.75456  0.22970  0.26833  Biso   1.000  H
  C396     1.0000 0.74050  0.32530  0.31510  Biso   1.000  C
  O149     1.0000 0.71740  0.45480  0.12710  Biso   1.000  O
  C397     1.0000 0.72730  0.42620  0.10230  Biso   1.000  C
  C398     1.0000 0.71540  0.40620  0.22500  Biso   1.000  C
  H240     1.0000 0.70366  0.42666  0.23270  Biso   1.000  H
  C399     1.0000 0.72150  0.38390  0.28100  Biso   1.000  C
  H241     1.0000 0.71381  0.38937  0.32608  Biso   1.000  H
  C400     1.0000 0.73910  0.35330  0.26950  Biso   1.000  C
  C401     1.0000 0.75060  0.34500  0.20200  Biso   1.000  C
  H242     1.0000 0.76243  0.32456  0.19435  Biso   1.000  H
  C402     1.0000 0.74460  0.36740  0.14610  Biso   1.000  C
  H243     1.0000 0.75228  0.36185  0.10097  Biso   1.000  H
  C403     1.0000 0.72700  0.39800  0.15760  Biso   1.000  C
  O150     1.0000 0.69520  0.38120  0.00740  Biso   1.000  O
  C404     1.0000 0.71680  0.39100  0.05140  Biso   1.000  C
  C405     1.0000 0.71230  0.33960  0.12850  Biso   1.000  C
  H244     1.0000 0.70064  0.32896  0.09154  Biso   1.000  H
  C406     1.0000 0.71860  0.32180  0.19080  Biso   1.000  C
  H245     1.0000 0.71117  0.29917  0.19552  Biso   1.000  H
  C407     1.0000 0.73590  0.33770  0.24590  Biso   1.000  C
  C408     1.0000 0.74700  0.37150  0.23880  Biso   1.000  C
  H246     1.0000 0.75863  0.38221  0.27574  Biso   1.000  H
  C409     1.0000 0.74070  0.38940  0.17650  Biso   1.000  C
  H247     1.0000 0.74810  0.41200  0.17176  Biso   1.000  H
  C410     1.0000 0.72330  0.37340  0.12130  Biso   1.000  C
  H248     1.0000 0.74053  0.84625  0.41869  Biso   1.000  H
  H249     1.0000 0.73633  0.84625  0.33629  Biso   1.000  H
  H250     1.0000 0.77314  0.84625  0.37002  Biso   1.000  H
  Zr31     1.0000 0.76363  0.53534  0.96405  Biso   1.000  Zr
  Zr32     1.0000 0.68925  0.49013  0.91363  Biso   1.000  Zr
  Zr33     1.0000 0.73566  0.44455  0.78631  Biso   1.000  Zr
  C411     1.0000 0.84380  0.54730  0.94130  Biso   1.000  C
  C412     1.0000 0.87455  0.58710  0.02450  Biso   1.000  C
  H251     1.0000 0.85329  0.59352  0.04274  Biso   1.000  H
  C413     1.0000 0.87640  0.56290  0.97070  Biso   1.000  C
  C414     1.0000 0.90817  0.55330  0.94350  Biso   1.000  C
  H252     1.0000 0.90941  0.53707  0.90742  Biso   1.000  H
  C415     1.0000 0.93809  0.56790  0.97020  Biso   1.000  C
  H253     1.0000 0.95935  0.56143  0.95198  Biso   1.000  H
  C416     1.0000 0.93623  0.59210  0.02410  Biso   1.000  C
  C417     1.0000 0.90446  0.60170  0.05130  Biso   1.000  C
  H254     1.0000 0.90322  0.61788  0.08731  Biso   1.000  H
  C418     1.0000 0.96810  0.60540  0.05670  Biso   1.000  C
  C419     1.0000 0.99440  0.63900  0.13720  Biso   1.000  C
  C420     1.0000 0.02580  0.61060  0.05540  Biso   1.000  C
  C421     1.0000 0.02418  0.66910  0.23540  Biso   1.000  C
  H255     1.0000 0.04515  0.66433  0.21395  Biso   1.000  H
  C422     1.0000 0.02325  0.68780  0.29800  Biso   1.000  C
  H256     1.0000 0.04359  0.69544  0.31850  Biso   1.000  H
  C423     1.0000 0.99192  0.69500  0.33010  Biso   1.000  C
  C424     1.0000 0.96152  0.68350  0.29950  Biso   1.000  C
  H257     1.0000 0.94055  0.68830  0.32100  Biso   1.000  H
  C425     1.0000 0.96245  0.66490  0.23690  Biso   1.000  C
  H258     1.0000 0.94211  0.65719  0.21645  Biso   1.000  H
  C426     1.0000 0.99378  0.65770  0.20480  Biso   1.000  C
  C427     1.0000 0.99100  0.71190  0.40110  Biso   1.000  C
  C428     1.0000 0.05913  0.60040  0.02410  Biso   1.000  C
  C429     1.0000 0.05960  0.57780  0.96720  Biso   1.000  C
  H259     1.0000 0.03906  0.56995  0.94799  Biso   1.000  H
  C430     1.0000 0.09078  0.56690  0.93920  Biso   1.000  C
  H260     1.0000 0.09110  0.55179  0.90115  Biso   1.000  H
  C431     1.0000 0.12148  0.57870  0.96790  Biso   1.000  C
  C432     1.0000 0.12101  0.60130  0.02480  Biso   1.000  C
  H261     1.0000 0.14155  0.60918  0.04404  Biso   1.000  H
  C433     1.0000 0.08983  0.61220  0.05280  Biso   1.000  C
  H262     1.0000 0.08952  0.62734  0.09088  Biso   1.000  H
  C434     1.0000 0.15520  0.56540  0.94080  Biso   1.000  C
  N41      1.0000 0.96490  0.62570  0.11360  Biso   1.000  N
  N42      1.0000 0.02590  0.63020  0.11120  Biso   1.000  N
  N43      1.0000 0.99700  0.59630  0.02760  Biso   1.000  N
  O151     1.0000 0.81691  0.55420  0.97080  Biso   1.000  O
  O152     1.0000 0.84783  0.52610  0.89060  Biso   1.000  O
  O153     1.0000 0.96210  0.71730  0.42780  Biso   1.000  O
  O154     1.0000 0.02027  0.71970  0.42890  Biso   1.000  O
  O155     1.0000 0.18184  0.57503  0.97110  Biso   1.000  O
  O156     1.0000 0.15247  0.54450  0.88960  Biso   1.000  O
  O157     1.0000 0.76200  0.59130  0.93020  Biso   1.000  O
  O158     1.0000 0.73900  0.38900  0.81750  Biso   1.000  O
  O159     1.0000 0.71990  0.53380  0.89560  Biso   1.000  O
  O160     1.0000 0.73290  0.48870  0.98440  Biso   1.000  O
  O161     1.0000 0.70590  0.48990  0.80410  Biso   1.000  O
  O162     1.0000 0.77960  0.44460  0.85350  Biso   1.000  O
  O163     1.0000 0.76440  0.08360  0.54180  Biso   1.000  O
  C435     1.0000 0.74700  0.31750  0.81310  Biso   1.000  C
  H263     1.0000 0.74478  0.32947  0.77078  Biso   1.000  H
  N44      1.0000 0.75590  0.21040  0.81270  Biso   1.000  N
  C436     1.0000 0.74720  0.28190  0.81110  Biso   1.000  C
  H264     1.0000 0.74544  0.27030  0.76833  Biso   1.000  H
  C437     1.0000 0.75950  0.17470  0.81510  Biso   1.000  C
  O164     1.0000 0.78260  0.04520  0.62710  Biso   1.000  O
  C438     1.0000 0.77270  0.07380  0.60230  Biso   1.000  C
  C439     1.0000 0.78460  0.09380  0.72500  Biso   1.000  C
  H265     1.0000 0.79634  0.07334  0.73270  Biso   1.000  H
  C440     1.0000 0.77850  0.11610  0.78100  Biso   1.000  C
  H266     1.0000 0.78619  0.11063  0.82608  Biso   1.000  H
  C441     1.0000 0.76090  0.14670  0.76950  Biso   1.000  C
  C442     1.0000 0.74940  0.15500  0.70200  Biso   1.000  C
  H267     1.0000 0.73757  0.17544  0.69435  Biso   1.000  H
  C443     1.0000 0.75540  0.13260  0.64610  Biso   1.000  C
  H268     1.0000 0.74772  0.13815  0.60097  Biso   1.000  H
  C444     1.0000 0.77300  0.10200  0.65760  Biso   1.000  C
  O165     1.0000 0.80480  0.11880  0.50740  Biso   1.000  O
  C445     1.0000 0.78320  0.10900  0.55140  Biso   1.000  C
  C446     1.0000 0.78770  0.16040  0.62850  Biso   1.000  C
  H269     1.0000 0.79936  0.17104  0.59154  Biso   1.000  H
  C447     1.0000 0.78140  0.17820  0.69080  Biso   1.000  C
  H270     1.0000 0.78883  0.20083  0.69552  Biso   1.000  H
  C448     1.0000 0.76410  0.16230  0.74590  Biso   1.000  C
  C449     1.0000 0.75300  0.12850  0.73880  Biso   1.000  C
  H271     1.0000 0.74137  0.11779  0.77574  Biso   1.000  H
  C450     1.0000 0.75930  0.11060  0.67650  Biso   1.000  C
  H272     1.0000 0.75190  0.08800  0.67176  Biso   1.000  H
  C451     1.0000 0.77670  0.12660  0.62130  Biso   1.000  C
  H273     1.0000 0.75947  0.65375  0.91869  Biso   1.000  H
  H274     1.0000 0.76367  0.65375  0.83629  Biso   1.000  H
  H275     1.0000 0.72686  0.65375  0.87002  Biso   1.000  H
  Zr34     1.0000 0.26363  0.03534  0.46405  Biso   1.000  Zr
  Zr35     1.0000 0.18925  0.99013  0.41363  Biso   1.000  Zr
  Zr36     1.0000 0.23566  0.94455  0.28631  Biso   1.000  Zr
  C452     1.0000 0.34380  0.04730  0.44130  Biso   1.000  C
  C453     1.0000 0.37455  0.08710  0.52450  Biso   1.000  C
  H276     1.0000 0.35329  0.09352  0.54274  Biso   1.000  H
  C454     1.0000 0.37640  0.06290  0.47070  Biso   1.000  C
  C455     1.0000 0.40817  0.05330  0.44350  Biso   1.000  C
  H277     1.0000 0.40941  0.03707  0.40742  Biso   1.000  H
  C456     1.0000 0.43809  0.06790  0.47020  Biso   1.000  C
  H278     1.0000 0.45935  0.06143  0.45198  Biso   1.000  H
  C457     1.0000 0.43623  0.09210  0.52410  Biso   1.000  C
  C458     1.0000 0.40446  0.10170  0.55130  Biso   1.000  C
  H279     1.0000 0.40322  0.11788  0.58731  Biso   1.000  H
  C459     1.0000 0.46810  0.10540  0.55670  Biso   1.000  C
  C460     1.0000 0.49440  0.13900  0.63720  Biso   1.000  C
  C461     1.0000 0.52580  0.11060  0.55540  Biso   1.000  C
  C462     1.0000 0.52418  0.16910  0.73540  Biso   1.000  C
  H280     1.0000 0.54515  0.16433  0.71395  Biso   1.000  H
  C463     1.0000 0.52325  0.18780  0.79800  Biso   1.000  C
  H281     1.0000 0.54359  0.19544  0.81850  Biso   1.000  H
  C464     1.0000 0.49192  0.19500  0.83010  Biso   1.000  C
  C465     1.0000 0.46152  0.18350  0.79950  Biso   1.000  C
  H282     1.0000 0.44055  0.18830  0.82100  Biso   1.000  H
  C466     1.0000 0.46245  0.16490  0.73690  Biso   1.000  C
  H283     1.0000 0.44211  0.15719  0.71645  Biso   1.000  H
  C467     1.0000 0.49378  0.15770  0.70480  Biso   1.000  C
  C468     1.0000 0.49100  0.21190  0.90110  Biso   1.000  C
  C469     1.0000 0.55913  0.10040  0.52410  Biso   1.000  C
  C470     1.0000 0.55960  0.07780  0.46720  Biso   1.000  C
  H284     1.0000 0.53906  0.06995  0.44799  Biso   1.000  H
  C471     1.0000 0.59078  0.06690  0.43920  Biso   1.000  C
  H285     1.0000 0.59110  0.05179  0.40115  Biso   1.000  H
  C472     1.0000 0.62148  0.07870  0.46790  Biso   1.000  C
  C473     1.0000 0.62101  0.10130  0.52480  Biso   1.000  C
  H286     1.0000 0.64155  0.10918  0.54404  Biso   1.000  H
  C474     1.0000 0.58983  0.11220  0.55280  Biso   1.000  C
  H287     1.0000 0.58952  0.12734  0.59088  Biso   1.000  H
  C475     1.0000 0.65520  0.06540  0.44080  Biso   1.000  C
  N45      1.0000 0.46490  0.12570  0.61360  Biso   1.000  N
  N46      1.0000 0.52590  0.13020  0.61120  Biso   1.000  N
  N47      1.0000 0.49700  0.09630  0.52760  Biso   1.000  N
  O166     1.0000 0.31691  0.05420  0.47080  Biso   1.000  O
  O167     1.0000 0.34783  0.02610  0.39060  Biso   1.000  O
  O168     1.0000 0.46210  0.21730  0.92780  Biso   1.000  O
  O169     1.0000 0.52027  0.21970  0.92890  Biso   1.000  O
  O170     1.0000 0.68184  0.07503  0.47110  Biso   1.000  O
  O171     1.0000 0.65247  0.04450  0.38960  Biso   1.000  O
  O172     1.0000 0.26200  0.09130  0.43020  Biso   1.000  O
  O173     1.0000 0.23900  0.88900  0.31750  Biso   1.000  O
  O174     1.0000 0.21990  0.03380  0.39560  Biso   1.000  O
  O175     1.0000 0.23290  0.98870  0.48440  Biso   1.000  O
  O176     1.0000 0.20590  0.98990  0.30410  Biso   1.000  O
  O177     1.0000 0.27960  0.94460  0.35350  Biso   1.000  O
  O178     1.0000 0.26440  0.58360  0.04180  Biso   1.000  O
  C476     1.0000 0.24700  0.81750  0.31310  Biso   1.000  C
  H288     1.0000 0.24478  0.82947  0.27078  Biso   1.000  H
  N48      1.0000 0.25590  0.71040  0.31270  Biso   1.000  N
  C477     1.0000 0.24720  0.78190  0.31110  Biso   1.000  C
  H289     1.0000 0.24544  0.77030  0.26833  Biso   1.000  H
  C478     1.0000 0.25950  0.67470  0.31510  Biso   1.000  C
  O179     1.0000 0.28260  0.54520  0.12710  Biso   1.000  O
  C479     1.0000 0.27270  0.57380  0.10230  Biso   1.000  C
  C480     1.0000 0.28460  0.59380  0.22500  Biso   1.000  C
  H290     1.0000 0.29634  0.57334  0.23270  Biso   1.000  H
  C481     1.0000 0.27850  0.61610  0.28100  Biso   1.000  C
  H291     1.0000 0.28619  0.61063  0.32608  Biso   1.000  H
  C482     1.0000 0.26090  0.64670  0.26950  Biso   1.000  C
  C483     1.0000 0.24940  0.65500  0.20200  Biso   1.000  C
  H292     1.0000 0.23757  0.67544  0.19435  Biso   1.000  H
  C484     1.0000 0.25540  0.63260  0.14610  Biso   1.000  C
  H293     1.0000 0.24772  0.63815  0.10097  Biso   1.000  H
  C485     1.0000 0.27300  0.60200  0.15760  Biso   1.000  C
  O180     1.0000 0.30480  0.61880  0.00740  Biso   1.000  O
  C486     1.0000 0.28320  0.60900  0.05140  Biso   1.000  C
  C487     1.0000 0.28770  0.66040  0.12850  Biso   1.000  C
  H294     1.0000 0.29936  0.67104  0.09154  Biso   1.000  H
  C488     1.0000 0.28140  0.67820  0.19080  Biso   1.000  C
  H295     1.0000 0.28883  0.70083  0.19552  Biso   1.000  H
  C489     1.0000 0.26410  0.66230  0.24590  Biso   1.000  C
  C490     1.0000 0.25300  0.62850  0.23880  Biso   1.000  C
  H296     1.0000 0.24137  0.61779  0.27574  Biso   1.000  H
  C491     1.0000 0.25930  0.61060  0.17650  Biso   1.000  C
  H297     1.0000 0.25190  0.58800  0.17176  Biso   1.000  H
  C492     1.0000 0.27670  0.62660  0.12130  Biso   1.000  C
  H298     1.0000 0.25947  0.15375  0.41869  Biso   1.000  H
  H299     1.0000 0.26367  0.15375  0.33629  Biso   1.000  H
  H300     1.0000 0.22686  0.15375  0.37002  Biso   1.000  H
  Zr37     1.0000 0.03534  0.73637  0.53595  Biso   1.000  Zr
  Zr38     1.0000 0.99013  0.81075  0.58637  Biso   1.000  Zr
  Zr39     1.0000 0.94455  0.76434  0.71369  Biso   1.000  Zr
  C493     1.0000 0.04730  0.65620  0.55870  Biso   1.000  C
  C494     1.0000 0.08710  0.62545  0.47550  Biso   1.000  C
  H301     1.0000 0.09352  0.64671  0.45726  Biso   1.000  H
  C495     1.0000 0.06290  0.62360  0.52930  Biso   1.000  C
  C496     1.0000 0.05330  0.59183  0.55650  Biso   1.000  C
  H302     1.0000 0.03707  0.59059  0.59258  Biso   1.000  H
  C497     1.0000 0.06790  0.56191  0.52980  Biso   1.000  C
  H303     1.0000 0.06143  0.54065  0.54802  Biso   1.000  H
  C498     1.0000 0.09210  0.56377  0.47590  Biso   1.000  C
  C499     1.0000 0.10170  0.59554  0.44870  Biso   1.000  C
  H304     1.0000 0.11788  0.59678  0.41269  Biso   1.000  H
  C500     1.0000 0.10540  0.53190  0.44330  Biso   1.000  C
  C501     1.0000 0.13900  0.50560  0.36280  Biso   1.000  C
  C502     1.0000 0.11060  0.47420  0.44460  Biso   1.000  C
  C503     1.0000 0.16910  0.47582  0.26460  Biso   1.000  C
  H305     1.0000 0.16433  0.45485  0.28605  Biso   1.000  H
  C504     1.0000 0.18780  0.47675  0.20200  Biso   1.000  C
  H306     1.0000 0.19544  0.45641  0.18150  Biso   1.000  H
  C505     1.0000 0.19500  0.50808  0.16990  Biso   1.000  C
  C506     1.0000 0.18350  0.53848  0.20050  Biso   1.000  C
  H307     1.0000 0.18830  0.55945  0.17900  Biso   1.000  H
  C507     1.0000 0.16490  0.53755  0.26310  Biso   1.000  C
  H308     1.0000 0.15719  0.55789  0.28355  Biso   1.000  H
  C508     1.0000 0.15770  0.50622  0.29520  Biso   1.000  C
  C509     1.0000 0.21190  0.50900  0.09890  Biso   1.000  C
  C510     1.0000 0.10040  0.44087  0.47590  Biso   1.000  C
  C511     1.0000 0.07780  0.44040  0.53280  Biso   1.000  C
  H309     1.0000 0.06995  0.46094  0.55201  Biso   1.000  H
  C512     1.0000 0.06690  0.40922  0.56080  Biso   1.000  C
  H310     1.0000 0.05179  0.40890  0.59885  Biso   1.000  H
  C513     1.0000 0.07870  0.37852  0.53210  Biso   1.000  C
  C514     1.0000 0.10130  0.37899  0.47520  Biso   1.000  C
  H311     1.0000 0.10918  0.35845  0.45596  Biso   1.000  H
  C515     1.0000 0.11220  0.41017  0.44720  Biso   1.000  C
  H312     1.0000 0.12734  0.41048  0.40912  Biso   1.000  H
  C516     1.0000 0.06540  0.34480  0.55920  Biso   1.000  C
  N49      1.0000 0.12570  0.53510  0.38640  Biso   1.000  N
  N50      1.0000 0.13020  0.47410  0.38880  Biso   1.000  N
  N51      1.0000 0.09630  0.50300  0.47240  Biso   1.000  N
  O181     1.0000 0.05420  0.68309  0.52920  Biso   1.000  O
  O182     1.0000 0.02610  0.65217  0.60940  Biso   1.000  O
  O183     1.0000 0.21730  0.53790  0.07220  Biso   1.000  O
  O184     1.0000 0.21970  0.47973  0.07110  Biso   1.000  O
  O185     1.0000 0.07503  0.31816  0.52890  Biso   1.000  O
  O186     1.0000 0.04450  0.34753  0.61040  Biso   1.000  O
  O187     1.0000 0.09130  0.73800  0.56980  Biso   1.000  O
  O188     1.0000 0.88900  0.76100  0.68250  Biso   1.000  O
  O189     1.0000 0.03380  0.78010  0.60440  Biso   1.000  O
  O190     1.0000 0.98870  0.76710  0.51560  Biso   1.000  O
  O191     1.0000 0.98990  0.79410  0.69590  Biso   1.000  O
  O192     1.0000 0.94460  0.72040  0.64650  Biso   1.000  O
  O193     1.0000 0.58360  0.73560  0.95820  Biso   1.000  O
  C517     1.0000 0.81750  0.75300  0.68690  Biso   1.000  C
  H313     1.0000 0.82947  0.75522  0.72922  Biso   1.000  H
  N52      1.0000 0.71040  0.74410  0.68730  Biso   1.000  N
  C518     1.0000 0.78190  0.75280  0.68890  Biso   1.000  C
  H314     1.0000 0.77030  0.75456  0.73167  Biso   1.000  H
  C519     1.0000 0.67470  0.74050  0.68490  Biso   1.000  C
  O194     1.0000 0.54520  0.71740  0.87290  Biso   1.000  O
  C520     1.0000 0.57380  0.72730  0.89770  Biso   1.000  C
  C521     1.0000 0.59380  0.71540  0.77500  Biso   1.000  C
  H315     1.0000 0.57334  0.70366  0.76730  Biso   1.000  H
  C522     1.0000 0.61610  0.72150  0.71900  Biso   1.000  C
  H316     1.0000 0.61063  0.71381  0.67392  Biso   1.000  H
  C523     1.0000 0.64670  0.73910  0.73050  Biso   1.000  C
  C524     1.0000 0.65500  0.75060  0.79800  Biso   1.000  C
  H317     1.0000 0.67544  0.76243  0.80565  Biso   1.000  H
  C525     1.0000 0.63260  0.74460  0.85390  Biso   1.000  C
  H318     1.0000 0.63815  0.75228  0.89903  Biso   1.000  H
  C526     1.0000 0.60200  0.72700  0.84240  Biso   1.000  C
  O195     1.0000 0.61880  0.69520  0.99260  Biso   1.000  O
  C527     1.0000 0.60900  0.71680  0.94860  Biso   1.000  C
  C528     1.0000 0.66040  0.71230  0.87150  Biso   1.000  C
  H319     1.0000 0.67104  0.70064  0.90846  Biso   1.000  H
  C529     1.0000 0.67820  0.71860  0.80920  Biso   1.000  C
  H320     1.0000 0.70083  0.71117  0.80448  Biso   1.000  H
  C530     1.0000 0.66230  0.73590  0.75410  Biso   1.000  C
  C531     1.0000 0.62850  0.74700  0.76120  Biso   1.000  C
  H321     1.0000 0.61779  0.75863  0.72426  Biso   1.000  H
  C532     1.0000 0.61060  0.74070  0.82350  Biso   1.000  C
  H322     1.0000 0.58800  0.74810  0.82824  Biso   1.000  H
  C533     1.0000 0.62660  0.72330  0.87870  Biso   1.000  C
  H323     1.0000 0.15375  0.74053  0.58131  Biso   1.000  H
  H324     1.0000 0.15375  0.73633  0.66371  Biso   1.000  H
  H325     1.0000 0.15375  0.77314  0.62998  Biso   1.000  H
  Zr40     1.0000 0.53534  0.23637  0.03595  Biso   1.000  Zr
  Zr41     1.0000 0.49013  0.31075  0.08637  Biso   1.000  Zr
  Zr42     1.0000 0.44455  0.26434  0.21369  Biso   1.000  Zr
  C534     1.0000 0.54730  0.15620  0.05870  Biso   1.000  C
  C535     1.0000 0.58710  0.12545  0.97550  Biso   1.000  C
  H326     1.0000 0.59352  0.14671  0.95726  Biso   1.000  H
  C536     1.0000 0.56290  0.12360  0.02930  Biso   1.000  C
  C537     1.0000 0.55330  0.09183  0.05650  Biso   1.000  C
  H327     1.0000 0.53707  0.09059  0.09258  Biso   1.000  H
  C538     1.0000 0.56790  0.06191  0.02980  Biso   1.000  C
  H328     1.0000 0.56143  0.04065  0.04802  Biso   1.000  H
  C539     1.0000 0.59210  0.06377  0.97590  Biso   1.000  C
  C540     1.0000 0.60170  0.09554  0.94870  Biso   1.000  C
  H329     1.0000 0.61788  0.09678  0.91269  Biso   1.000  H
  C541     1.0000 0.60540  0.03190  0.94330  Biso   1.000  C
  C542     1.0000 0.63900  0.00560  0.86280  Biso   1.000  C
  C543     1.0000 0.61060  0.97420  0.94460  Biso   1.000  C
  C544     1.0000 0.66910  0.97582  0.76460  Biso   1.000  C
  H330     1.0000 0.66433  0.95485  0.78605  Biso   1.000  H
  C545     1.0000 0.68780  0.97675  0.70200  Biso   1.000  C
  H331     1.0000 0.69544  0.95641  0.68150  Biso   1.000  H
  C546     1.0000 0.69500  0.00808  0.66990  Biso   1.000  C
  C547     1.0000 0.68350  0.03848  0.70050  Biso   1.000  C
  H332     1.0000 0.68830  0.05945  0.67900  Biso   1.000  H
  C548     1.0000 0.66490  0.03755  0.76310  Biso   1.000  C
  H333     1.0000 0.65719  0.05789  0.78355  Biso   1.000  H
  C549     1.0000 0.65770  0.00622  0.79520  Biso   1.000  C
  C550     1.0000 0.71190  0.00900  0.59890  Biso   1.000  C
  C551     1.0000 0.60040  0.94087  0.97590  Biso   1.000  C
  C552     1.0000 0.57780  0.94040  0.03280  Biso   1.000  C
  H334     1.0000 0.56995  0.96094  0.05201  Biso   1.000  H
  C553     1.0000 0.56690  0.90922  0.06080  Biso   1.000  C
  H335     1.0000 0.55179  0.90890  0.09885  Biso   1.000  H
  C554     1.0000 0.57870  0.87852  0.03210  Biso   1.000  C
  C555     1.0000 0.60130  0.87899  0.97520  Biso   1.000  C
  H336     1.0000 0.60918  0.85845  0.95596  Biso   1.000  H
  C556     1.0000 0.61220  0.91017  0.94720  Biso   1.000  C
  H337     1.0000 0.62734  0.91048  0.90912  Biso   1.000  H
  C557     1.0000 0.56540  0.84480  0.05920  Biso   1.000  C
  N53      1.0000 0.62570  0.03510  0.88640  Biso   1.000  N
  N54      1.0000 0.63020  0.97410  0.88880  Biso   1.000  N
  N55      1.0000 0.59630  0.00300  0.97240  Biso   1.000  N
  O196     1.0000 0.55420  0.18309  0.02920  Biso   1.000  O
  O197     1.0000 0.52610  0.15217  0.10940  Biso   1.000  O
  O198     1.0000 0.71730  0.03790  0.57220  Biso   1.000  O
  O199     1.0000 0.71970  0.97973  0.57110  Biso   1.000  O
  O200     1.0000 0.57503  0.81816  0.02890  Biso   1.000  O
  O201     1.0000 0.54450  0.84753  0.11040  Biso   1.000  O
  O202     1.0000 0.59130  0.23800  0.06980  Biso   1.000  O
  O203     1.0000 0.38900  0.26100  0.18250  Biso   1.000  O
  O204     1.0000 0.53380  0.28010  0.10440  Biso   1.000  O
  O205     1.0000 0.48870  0.26710  0.01560  Biso   1.000  O
  O206     1.0000 0.48990  0.29410  0.19590  Biso   1.000  O
  O207     1.0000 0.44460  0.22040  0.14650  Biso   1.000  O
  O208     1.0000 0.08360  0.23560  0.45820  Biso   1.000  O
  C558     1.0000 0.31750  0.25300  0.18690  Biso   1.000  C
  H338     1.0000 0.32947  0.25522  0.22922  Biso   1.000  H
  N56      1.0000 0.21040  0.24410  0.18730  Biso   1.000  N
  C559     1.0000 0.28190  0.25280  0.18890  Biso   1.000  C
  H339     1.0000 0.27030  0.25456  0.23167  Biso   1.000  H
  C560     1.0000 0.17470  0.24050  0.18490  Biso   1.000  C
  O209     1.0000 0.04520  0.21740  0.37290  Biso   1.000  O
  C561     1.0000 0.07380  0.22730  0.39770  Biso   1.000  C
  C562     1.0000 0.09380  0.21540  0.27500  Biso   1.000  C
  H340     1.0000 0.07334  0.20366  0.26730  Biso   1.000  H
  C563     1.0000 0.11610  0.22150  0.21900  Biso   1.000  C
  H341     1.0000 0.11063  0.21381  0.17392  Biso   1.000  H
  C564     1.0000 0.14670  0.23910  0.23050  Biso   1.000  C
  C565     1.0000 0.15500  0.25060  0.29800  Biso   1.000  C
  H342     1.0000 0.17544  0.26243  0.30565  Biso   1.000  H
  C566     1.0000 0.13260  0.24460  0.35390  Biso   1.000  C
  H343     1.0000 0.13815  0.25228  0.39903  Biso   1.000  H
  C567     1.0000 0.10200  0.22700  0.34240  Biso   1.000  C
  O210     1.0000 0.11880  0.19520  0.49260  Biso   1.000  O
  C568     1.0000 0.10900  0.21680  0.44860  Biso   1.000  C
  C569     1.0000 0.16040  0.21230  0.37150  Biso   1.000  C
  H344     1.0000 0.17104  0.20064  0.40846  Biso   1.000  H
  C570     1.0000 0.17820  0.21860  0.30920  Biso   1.000  C
  H345     1.0000 0.20083  0.21117  0.30448  Biso   1.000  H
  C571     1.0000 0.16230  0.23590  0.25410  Biso   1.000  C
  C572     1.0000 0.12850  0.24700  0.26120  Biso   1.000  C
  H346     1.0000 0.11779  0.25863  0.22426  Biso   1.000  H
  C573     1.0000 0.11060  0.24070  0.32350  Biso   1.000  C
  H347     1.0000 0.08800  0.24810  0.32824  Biso   1.000  H
  C574     1.0000 0.12660  0.22330  0.37870  Biso   1.000  C
  H348     1.0000 0.65375  0.24053  0.08131  Biso   1.000  H
  H349     1.0000 0.65375  0.23633  0.16371  Biso   1.000  H
  H350     1.0000 0.65375  0.27314  0.12998  Biso   1.000  H
  Zr43     1.0000 0.96466  0.26363  0.53595  Biso   1.000  Zr
  Zr44     1.0000 0.00987  0.18925  0.58637  Biso   1.000  Zr
  Zr45     1.0000 0.05545  0.23566  0.71369  Biso   1.000  Zr
  C575     1.0000 0.95270  0.34380  0.55870  Biso   1.000  C
  C576     1.0000 0.91290  0.37455  0.47550  Biso   1.000  C
  H351     1.0000 0.90648  0.35329  0.45726  Biso   1.000  H
  C577     1.0000 0.93710  0.37640  0.52930  Biso   1.000  C
  C578     1.0000 0.94670  0.40817  0.55650  Biso   1.000  C
  H352     1.0000 0.96293  0.40941  0.59258  Biso   1.000  H
  C579     1.0000 0.93210  0.43809  0.52980  Biso   1.000  C
  H353     1.0000 0.93857  0.45935  0.54802  Biso   1.000  H
  C580     1.0000 0.90790  0.43623  0.47590  Biso   1.000  C
  C581     1.0000 0.89830  0.40446  0.44870  Biso   1.000  C
  H354     1.0000 0.88212  0.40322  0.41269  Biso   1.000  H
  C582     1.0000 0.89460  0.46810  0.44330  Biso   1.000  C
  C583     1.0000 0.86100  0.49440  0.36280  Biso   1.000  C
  C584     1.0000 0.88940  0.52580  0.44460  Biso   1.000  C
  C585     1.0000 0.83090  0.52418  0.26460  Biso   1.000  C
  H355     1.0000 0.83567  0.54515  0.28605  Biso   1.000  H
  C586     1.0000 0.81220  0.52325  0.20200  Biso   1.000  C
  H356     1.0000 0.80456  0.54359  0.18150  Biso   1.000  H
  C587     1.0000 0.80500  0.49192  0.16990  Biso   1.000  C
  C588     1.0000 0.81650  0.46152  0.20050  Biso   1.000  C
  H357     1.0000 0.81170  0.44055  0.17900  Biso   1.000  H
  C589     1.0000 0.83510  0.46245  0.26310  Biso   1.000  C
  H358     1.0000 0.84281  0.44211  0.28355  Biso   1.000  H
  C590     1.0000 0.84230  0.49378  0.29520  Biso   1.000  C
  C591     1.0000 0.78810  0.49100  0.09890  Biso   1.000  C
  C592     1.0000 0.89960  0.55913  0.47590  Biso   1.000  C
  C593     1.0000 0.92220  0.55960  0.53280  Biso   1.000  C
  H359     1.0000 0.93005  0.53906  0.55201  Biso   1.000  H
  C594     1.0000 0.93310  0.59078  0.56080  Biso   1.000  C
  H360     1.0000 0.94821  0.59110  0.59885  Biso   1.000  H
  C595     1.0000 0.92130  0.62148  0.53210  Biso   1.000  C
  C596     1.0000 0.89870  0.62101  0.47520  Biso   1.000  C
  H361     1.0000 0.89082  0.64155  0.45596  Biso   1.000  H
  C597     1.0000 0.88780  0.58983  0.44720  Biso   1.000  C
  H362     1.0000 0.87266  0.58952  0.40912  Biso   1.000  H
  C598     1.0000 0.93460  0.65520  0.55920  Biso   1.000  C
  N57      1.0000 0.87430  0.46490  0.38640  Biso   1.000  N
  N58      1.0000 0.86980  0.52590  0.38880  Biso   1.000  N
  N59      1.0000 0.90370  0.49700  0.47240  Biso   1.000  N
  O211     1.0000 0.94580  0.31691  0.52920  Biso   1.000  O
  O212     1.0000 0.97390  0.34783  0.60940  Biso   1.000  O
  O213     1.0000 0.78270  0.46210  0.07220  Biso   1.000  O
  O214     1.0000 0.78030  0.52027  0.07110  Biso   1.000  O
  O215     1.0000 0.92497  0.68184  0.52890  Biso   1.000  O
  O216     1.0000 0.95550  0.65247  0.61040  Biso   1.000  O
  O217     1.0000 0.90870  0.26200  0.56980  Biso   1.000  O
  O218     1.0000 0.11100  0.23900  0.68250  Biso   1.000  O
  O219     1.0000 0.96620  0.21990  0.60440  Biso   1.000  O
  O220     1.0000 0.01130  0.23290  0.51560  Biso   1.000  O
  O221     1.0000 0.01010  0.20590  0.69590  Biso   1.000  O
  O222     1.0000 0.05540  0.27960  0.64650  Biso   1.000  O
  O223     1.0000 0.41640  0.26440  0.95820  Biso   1.000  O
  C599     1.0000 0.18250  0.24700  0.68690  Biso   1.000  C
  H363     1.0000 0.17053  0.24478  0.72922  Biso   1.000  H
  N60      1.0000 0.28960  0.25590  0.68730  Biso   1.000  N
  C600     1.0000 0.21810  0.24720  0.68890  Biso   1.000  C
  H364     1.0000 0.22970  0.24544  0.73167  Biso   1.000  H
  C601     1.0000 0.32530  0.25950  0.68490  Biso   1.000  C
  O224     1.0000 0.45480  0.28260  0.87290  Biso   1.000  O
  C602     1.0000 0.42620  0.27270  0.89770  Biso   1.000  C
  C603     1.0000 0.40620  0.28460  0.77500  Biso   1.000  C
  H365     1.0000 0.42666  0.29634  0.76730  Biso   1.000  H
  C604     1.0000 0.38390  0.27850  0.71900  Biso   1.000  C
  H366     1.0000 0.38937  0.28619  0.67392  Biso   1.000  H
  C605     1.0000 0.35330  0.26090  0.73050  Biso   1.000  C
  C606     1.0000 0.34500  0.24940  0.79800  Biso   1.000  C
  H367     1.0000 0.32456  0.23757  0.80565  Biso   1.000  H
  C607     1.0000 0.36740  0.25540  0.85390  Biso   1.000  C
  H368     1.0000 0.36185  0.24772  0.89903  Biso   1.000  H
  C608     1.0000 0.39800  0.27300  0.84240  Biso   1.000  C
  O225     1.0000 0.38120  0.30480  0.99260  Biso   1.000  O
  C609     1.0000 0.39100  0.28320  0.94860  Biso   1.000  C
  C610     1.0000 0.33960  0.28770  0.87150  Biso   1.000  C
  H369     1.0000 0.32896  0.29936  0.90846  Biso   1.000  H
  C611     1.0000 0.32180  0.28140  0.80920  Biso   1.000  C
  H370     1.0000 0.29917  0.28883  0.80448  Biso   1.000  H
  C612     1.0000 0.33770  0.26410  0.75410  Biso   1.000  C
  C613     1.0000 0.37150  0.25300  0.76120  Biso   1.000  C
  H371     1.0000 0.38221  0.24137  0.72426  Biso   1.000  H
  C614     1.0000 0.38940  0.25930  0.82350  Biso   1.000  C
  H372     1.0000 0.41200  0.25190  0.82824  Biso   1.000  H
  C615     1.0000 0.37340  0.27670  0.87870  Biso   1.000  C
  H373     1.0000 0.84625  0.25947  0.58131  Biso   1.000  H
  H374     1.0000 0.84625  0.26367  0.66371  Biso   1.000  H
  H375     1.0000 0.84625  0.22686  0.62998  Biso   1.000  H
  Zr46     1.0000 0.46466  0.76363  0.03595  Biso   1.000  Zr
  Zr47     1.0000 0.50987  0.68925  0.08637  Biso   1.000  Zr
  Zr48     1.0000 0.55545  0.73566  0.21369  Biso   1.000  Zr
  C616     1.0000 0.45270  0.84380  0.05870  Biso   1.000  C
  C617     1.0000 0.41290  0.87455  0.97550  Biso   1.000  C
  H376     1.0000 0.40648  0.85329  0.95726  Biso   1.000  H
  C618     1.0000 0.43710  0.87640  0.02930  Biso   1.000  C
  C619     1.0000 0.44670  0.90817  0.05650  Biso   1.000  C
  H377     1.0000 0.46293  0.90941  0.09258  Biso   1.000  H
  C620     1.0000 0.43210  0.93809  0.02980  Biso   1.000  C
  H378     1.0000 0.43857  0.95935  0.04802  Biso   1.000  H
  C621     1.0000 0.40790  0.93623  0.97590  Biso   1.000  C
  C622     1.0000 0.39830  0.90446  0.94870  Biso   1.000  C
  H379     1.0000 0.38212  0.90322  0.91269  Biso   1.000  H
  C623     1.0000 0.39460  0.96810  0.94330  Biso   1.000  C
  C624     1.0000 0.36100  0.99440  0.86280  Biso   1.000  C
  C625     1.0000 0.38940  0.02580  0.94460  Biso   1.000  C
  C626     1.0000 0.33090  0.02418  0.76460  Biso   1.000  C
  H380     1.0000 0.33567  0.04515  0.78605  Biso   1.000  H
  C627     1.0000 0.31220  0.02325  0.70200  Biso   1.000  C
  H381     1.0000 0.30456  0.04359  0.68150  Biso   1.000  H
  C628     1.0000 0.30500  0.99192  0.66990  Biso   1.000  C
  C629     1.0000 0.31650  0.96152  0.70050  Biso   1.000  C
  H382     1.0000 0.31170  0.94055  0.67900  Biso   1.000  H
  C630     1.0000 0.33510  0.96245  0.76310  Biso   1.000  C
  H383     1.0000 0.34281  0.94211  0.78355  Biso   1.000  H
  C631     1.0000 0.34230  0.99378  0.79520  Biso   1.000  C
  C632     1.0000 0.28810  0.99100  0.59890  Biso   1.000  C
  C633     1.0000 0.39960  0.05913  0.97590  Biso   1.000  C
  C634     1.0000 0.42220  0.05960  0.03280  Biso   1.000  C
  H384     1.0000 0.43005  0.03906  0.05201  Biso   1.000  H
  C635     1.0000 0.43310  0.09078  0.06080  Biso   1.000  C
  H385     1.0000 0.44821  0.09110  0.09885  Biso   1.000  H
  C636     1.0000 0.42130  0.12148  0.03210  Biso   1.000  C
  C637     1.0000 0.39870  0.12101  0.97520  Biso   1.000  C
  H386     1.0000 0.39082  0.14155  0.95596  Biso   1.000  H
  C638     1.0000 0.38780  0.08983  0.94720  Biso   1.000  C
  H387     1.0000 0.37266  0.08952  0.90912  Biso   1.000  H
  C639     1.0000 0.43460  0.15520  0.05920  Biso   1.000  C
  N61      1.0000 0.37430  0.96490  0.88640  Biso   1.000  N
  N62      1.0000 0.36980  0.02590  0.88880  Biso   1.000  N
  N63      1.0000 0.40370  0.99700  0.97240  Biso   1.000  N
  O226     1.0000 0.44580  0.81691  0.02920  Biso   1.000  O
  O227     1.0000 0.47390  0.84783  0.10940  Biso   1.000  O
  O228     1.0000 0.28270  0.96210  0.57220  Biso   1.000  O
  O229     1.0000 0.28030  0.02027  0.57110  Biso   1.000  O
  O230     1.0000 0.42497  0.18184  0.02890  Biso   1.000  O
  O231     1.0000 0.45550  0.15247  0.11040  Biso   1.000  O
  O232     1.0000 0.40870  0.76200  0.06980  Biso   1.000  O
  O233     1.0000 0.61100  0.73900  0.18250  Biso   1.000  O
  O234     1.0000 0.46620  0.71990  0.10440  Biso   1.000  O
  O235     1.0000 0.51130  0.73290  0.01560  Biso   1.000  O
  O236     1.0000 0.51010  0.70590  0.19590  Biso   1.000  O
  O237     1.0000 0.55540  0.77960  0.14650  Biso   1.000  O
  O238     1.0000 0.91640  0.76440  0.45820  Biso   1.000  O
  C640     1.0000 0.68250  0.74700  0.18690  Biso   1.000  C
  H388     1.0000 0.67053  0.74478  0.22922  Biso   1.000  H
  N64      1.0000 0.78960  0.75590  0.18730  Biso   1.000  N
  C641     1.0000 0.71810  0.74720  0.18890  Biso   1.000  C
  H389     1.0000 0.72970  0.74544  0.23167  Biso   1.000  H
  C642     1.0000 0.82530  0.75950  0.18490  Biso   1.000  C
  O239     1.0000 0.95480  0.78260  0.37290  Biso   1.000  O
  C643     1.0000 0.92620  0.77270  0.39770  Biso   1.000  C
  C644     1.0000 0.90620  0.78460  0.27500  Biso   1.000  C
  H390     1.0000 0.92666  0.79634  0.26730  Biso   1.000  H
  C645     1.0000 0.88390  0.77850  0.21900  Biso   1.000  C
  H391     1.0000 0.88937  0.78619  0.17392  Biso   1.000  H
  C646     1.0000 0.85330  0.76090  0.23050  Biso   1.000  C
  C647     1.0000 0.84500  0.74940  0.29800  Biso   1.000  C
  H392     1.0000 0.82456  0.73757  0.30565  Biso   1.000  H
  C648     1.0000 0.86740  0.75540  0.35390  Biso   1.000  C
  H393     1.0000 0.86185  0.74772  0.39903  Biso   1.000  H
  C649     1.0000 0.89800  0.77300  0.34240  Biso   1.000  C
  O240     1.0000 0.88120  0.80480  0.49260  Biso   1.000  O
  C650     1.0000 0.89100  0.78320  0.44860  Biso   1.000  C
  C651     1.0000 0.83960  0.78770  0.37150  Biso   1.000  C
  H394     1.0000 0.82896  0.79936  0.40846  Biso   1.000  H
  C652     1.0000 0.82180  0.78140  0.30920  Biso   1.000  C
  H395     1.0000 0.79917  0.78883  0.30448  Biso   1.000  H
  C653     1.0000 0.83770  0.76410  0.25410  Biso   1.000  C
  C654     1.0000 0.87150  0.75300  0.26120  Biso   1.000  C
  H396     1.0000 0.88221  0.74137  0.22426  Biso   1.000  H
  C655     1.0000 0.88940  0.75930  0.32350  Biso   1.000  C
  H397     1.0000 0.91200  0.75190  0.32824  Biso   1.000  H
  C656     1.0000 0.87340  0.77670  0.37870  Biso   1.000  C
  H398     1.0000 0.34625  0.75947  0.08131  Biso   1.000  H
  H399     1.0000 0.34625  0.76367  0.16371  Biso   1.000  H
  H400     1.0000 0.34625  0.72686  0.12998  Biso   1.000  H
  C657     1.0000 0.25000  0.39400  0.87500  Biso   1.000  C
  C658     1.0000 0.25000  0.35450  0.87500  Biso   1.000  C
  C659     1.0000 0.25000  0.62670  0.87500  Biso   1.000  C
  C660     1.0000 0.25000  0.66410  0.87500  Biso   1.000  C
  C661     1.0000 0.25000  0.77190  0.87500  Biso   1.000  C
  C662     1.0000 0.25000  0.73620  0.87500  Biso   1.000  C
  N65      1.0000 0.25000  0.84330  0.87500  Biso   1.000  N
  C663     1.0000 0.75000  0.89400  0.37500  Biso   1.000  C
  C664     1.0000 0.75000  0.85450  0.37500  Biso   1.000  C
  C665     1.0000 0.75000  0.12670  0.37500  Biso   1.000  C
  C666     1.0000 0.75000  0.16410  0.37500  Biso   1.000  C
  C667     1.0000 0.75000  0.27190  0.37500  Biso   1.000  C
  C668     1.0000 0.75000  0.23620  0.37500  Biso   1.000  C
  N66      1.0000 0.75000  0.34330  0.37500  Biso   1.000  N
  C669     1.0000 0.75000  0.60600  0.87500  Biso   1.000  C
  C670     1.0000 0.75000  0.64550  0.87500  Biso   1.000  C
  C671     1.0000 0.75000  0.37330  0.87500  Biso   1.000  C
  C672     1.0000 0.75000  0.33590  0.87500  Biso   1.000  C
  C673     1.0000 0.75000  0.22810  0.87500  Biso   1.000  C
  C674     1.0000 0.75000  0.26380  0.87500  Biso   1.000  C
  N67      1.0000 0.75000  0.15670  0.87500  Biso   1.000  N
  C675     1.0000 0.25000  0.10600  0.37500  Biso   1.000  C
  C676     1.0000 0.25000  0.14550  0.37500  Biso   1.000  C
  C677     1.0000 0.25000  0.87330  0.37500  Biso   1.000  C
  C678     1.0000 0.25000  0.83590  0.37500  Biso   1.000  C
  C679     1.0000 0.25000  0.72810  0.37500  Biso   1.000  C
  C680     1.0000 0.25000  0.76380  0.37500  Biso   1.000  C
  N68      1.0000 0.25000  0.65670  0.37500  Biso   1.000  N
  C681     1.0000 0.39400  0.75000  0.12500  Biso   1.000  C
  C682     1.0000 0.35450  0.75000  0.12500  Biso   1.000  C
  C683     1.0000 0.62670  0.75000  0.12500  Biso   1.000  C
  C684     1.0000 0.66410  0.75000  0.12500  Biso   1.000  C
  C685     1.0000 0.77190  0.75000  0.12500  Biso   1.000  C
  C686     1.0000 0.73620  0.75000  0.12500  Biso   1.000  C
  N69      1.0000 0.84330  0.75000  0.12500  Biso   1.000  N
  C687     1.0000 0.60600  0.25000  0.12500  Biso   1.000  C
  C688     1.0000 0.64550  0.25000  0.12500  Biso   1.000  C
  C689     1.0000 0.37330  0.25000  0.12500  Biso   1.000  C
  C690     1.0000 0.33590  0.25000  0.12500  Biso   1.000  C
  C691     1.0000 0.22810  0.25000  0.12500  Biso   1.000  C
  C692     1.0000 0.26380  0.25000  0.12500  Biso   1.000  C
  N70      1.0000 0.15670  0.25000  0.12500  Biso   1.000  N
  C693     1.0000 0.10600  0.75000  0.62500  Biso   1.000  C
  C694     1.0000 0.14550  0.75000  0.62500  Biso   1.000  C
  C695     1.0000 0.87330  0.75000  0.62500  Biso   1.000  C
  C696     1.0000 0.83590  0.75000  0.62500  Biso   1.000  C
  C697     1.0000 0.72810  0.75000  0.62500  Biso   1.000  C
  C698     1.0000 0.76380  0.75000  0.62500  Biso   1.000  C
  N71      1.0000 0.65670  0.75000  0.62500  Biso   1.000  N
  C699     1.0000 0.89400  0.25000  0.62500  Biso   1.000  C
  C700     1.0000 0.85450  0.25000  0.62500  Biso   1.000  C
  C701     1.0000 0.12670  0.25000  0.62500  Biso   1.000  C
  C702     1.0000 0.16410  0.25000  0.62500  Biso   1.000  C
  C703     1.0000 0.27190  0.25000  0.62500  Biso   1.000  C
  C704     1.0000 0.23620  0.25000  0.62500  Biso   1.000  C
  N72      1.0000 0.34330  0.25000  0.62500  Biso   1.000  N
