data_image0
_cell_length_a       21.665
_cell_length_b       27.475
_cell_length_c       14.277
_cell_angle_alpha    90
_cell_angle_beta     103.073
_cell_angle_gamma    90

_symmetry_space_group_name_H-M    "P 1"
_symmetry_int_tables_number       1

loop_
  _symmetry_equiv_pos_as_xyz
  'x, y, z'

loop_
  _atom_site_label
  _atom_site_occupancy
  _atom_site_fract_x
  _atom_site_fract_y
  _atom_site_fract_z
  _atom_site_thermal_displace_type
  _atom_site_B_iso_or_equiv
  _atom_site_type_symbol
  Co1      1.0000 0.10911  0.17587  0.57897  Biso   1.000  Co
  C1       1.0000 0.67760  0.06850  0.06420  Biso   1.000  C
  C2       1.0000 0.68910  0.11730  0.04980  Biso   1.000  C
  H1       1.0000 0.66180  0.13490  0.99980  Biso   1.000  H
  C3       1.0000 0.74050  0.14056  0.10870  Biso   1.000  C
  H2       1.0000 0.74840  0.17400  0.09890  Biso   1.000  H
  C4       1.0000 0.78050  0.11490  0.18200  Biso   1.000  C
  C5       1.0000 0.76900  0.06600  0.19640  Biso   1.000  C
  H3       1.0000 0.79630  0.04840  0.24650  Biso   1.000  H
  C6       1.0000 0.71750  0.04277  0.13750  Biso   1.000  C
  H4       1.0000 0.70970  0.00940  0.14730  Biso   1.000  H
  N1       1.0000 0.92430  0.17960  0.27390  Biso   1.000  N
  C7       1.0000 0.87360  0.16860  0.20160  Biso   1.000  C
  H5       1.0000 0.86600  0.18040  0.13750  Biso   1.000  H
  N2       1.0000 0.83550  0.13770  0.23730  Biso   1.000  N
  C8       1.0000 0.86270  0.12960  0.33160  Biso   1.000  C
  H6       1.0000 0.84630  0.10940  0.37420  Biso   1.000  H
  C9       1.0000 0.91760  0.15550  0.35420  Biso   1.000  C
  H7       1.0000 0.94620  0.15660  0.41530  Biso   1.000  H
  C10      1.0000 0.24470  0.20210  0.59440  Biso   1.000  C
  H8       1.0000 0.23210  0.23060  0.55740  Biso   1.000  H
  C11      1.0000 0.30510  0.19120  0.63920  Biso   1.000  C
  H9       1.0000 0.34180  0.21070  0.64260  Biso   1.000  H
  C12      1.0000 0.24060  0.13370  0.66230  Biso   1.000  C
  H10      1.0000 0.22500  0.10490  0.68560  Biso   1.000  H
  C13      1.0000 0.35470  0.11960  0.73660  Biso   1.000  C
  C14      1.0000 0.40840  0.14440  0.77930  Biso   1.000  C
  H11      1.0000 0.41050  0.17860  0.77140  Biso   1.000  H
  C15      1.0000 0.46000  0.11950  0.83420  Biso   1.000  C
  H12      1.0000 0.49670  0.13720  0.86470  Biso   1.000  H
  C16      1.0000 0.45880  0.06940  0.84540  Biso   1.000  C
  C17      1.0000 0.40290  0.04570  0.80300  Biso   1.000  C
  H13      1.0000 0.40000  0.01160  0.81220  Biso   1.000  H
  C18      1.0000 0.35130  0.06980  0.74810  Biso   1.000  C
  H14      1.0000 0.31400  0.05240  0.71870  Biso   1.000  H
  C19      1.0000 0.51730  0.04230  0.89310  Biso   1.000  C
  C20      1.0000 0.56950  0.06590  0.95210  Biso   1.000  C
  H15      1.0000 0.56630  0.09960  0.96500  Biso   1.000  H
  C21      1.0000 0.62530  0.04180  0.99200  Biso   1.000  C
  C22      1.0000 0.63030  0.99280  0.96720  Biso   1.000  C
  H16      1.0000 0.66950  0.97630  0.98870  Biso   1.000  H
  C23      1.0000 0.57920  0.96790  0.91210  Biso   1.000  C
  C24      1.0000 0.52220  0.99290  0.87620  Biso   1.000  C
  H17      1.0000 0.48670  0.97580  0.83990  Biso   1.000  H
  C25      1.0000 0.58340  0.91590  0.88390  Biso   1.000  C
  C26      1.0000 0.63070  0.89950  0.84080  Biso   1.000  C
  H18      1.0000 0.66230  0.92170  0.83090  Biso   1.000  H
  C27      1.0000 0.63330  0.85140  0.81160  Biso   1.000  C
  H19      1.0000 0.66640  0.84080  0.78280  Biso   1.000  H
  C28      1.0000 0.58670  0.81920  0.82530  Biso   1.000  C
  C29      1.0000 0.54030  0.83460  0.87170  Biso   1.000  C
  H20      1.0000 0.50980  0.81210  0.88420  Biso   1.000  H
  C30      1.0000 0.53850  0.88260  0.89980  Biso   1.000  C
  H21      1.0000 0.50610  0.89310  0.93040  Biso   1.000  H
  C31      1.0000 0.59910  0.75720  0.70940  Biso   1.000  C
  H22      1.0000 0.60970  0.77920  0.66420  Biso   1.000  H
  C32      1.0000 0.57810  0.69130  0.77770  Biso   1.000  C
  H23      1.0000 0.57170  0.65790  0.78960  Biso   1.000  H
  C33      1.0000 0.57210  0.72870  0.83860  Biso   1.000  C
  H24      1.0000 0.56050  0.72670  0.89880  Biso   1.000  H
  C34      1.0000 0.06370  0.09120  0.56230  Biso   1.000  C
  C35      1.0000 0.03050  0.04370  0.52820  Biso   1.000  C
  C36      1.0000 0.03360  0.00620  0.59440  Biso   1.000  C
  H25      1.0000 0.05710  0.00990  0.65880  Biso   1.000  H
  C37      1.0000 0.99860  0.03700  0.43590  Biso   1.000  C
  H26      1.0000 0.99810  0.06240  0.39060  Biso   1.000  H
  N3       1.0000 0.20490  0.16650  0.61010  Biso   1.000  N
  N4       1.0000 0.30190  0.14570  0.67870  Biso   1.000  N
  N5       1.0000 0.59460  0.70920  0.69720  Biso   1.000  N
  N6       1.0000 0.58690  0.77030  0.79260  Biso   1.000  N
  O1       1.0000 0.06100  0.12390  0.49890  Biso   1.000  O
  O2       1.0000 0.09460  0.09650  0.64870  Biso   1.000  O
  O3       1.0000 0.11130  0.23060  0.48650  Biso   1.000  O
  O4       1.0000 0.03910  0.26560  0.35010  Biso   1.000  O
  O5       1.0000 0.06410  0.30830  0.49990  Biso   1.000  O
  O6       1.0000 0.00090  0.23510  0.48480  Biso   1.000  O
  S1       1.0000 0.05220  0.26062  0.45725  Biso   1.000  S
  C38      1.0000 0.68870  0.06250  0.02930  Biso   1.000  C
  C39      1.0000 0.74810  0.05400  0.01060  Biso   1.000  C
  H27      1.0000 0.75200  0.03350  0.95870  Biso   1.000  H
  C40      1.0000 0.80160  0.07540  0.06790  Biso   1.000  C
  H28      1.0000 0.84210  0.06960  0.05510  Biso   1.000  H
  C41      1.0000 0.79580  0.10540  0.14380  Biso   1.000  C
  C42      1.0000 0.73650  0.11390  0.16250  Biso   1.000  C
  H29      1.0000 0.73250  0.13440  0.21440  Biso   1.000  H
  C43      1.0000 0.68300  0.09250  0.10520  Biso   1.000  C
  H30      1.0000 0.64240  0.09830  0.11800  Biso   1.000  H
  N7       1.0000 0.93970  0.17230  0.24820  Biso   1.000  N
  C44      1.0000 0.88330  0.16380  0.17520  Biso   1.000  C
  H31      1.0000 0.87050  0.18140  0.11680  Biso   1.000  H
  N8       1.0000 0.84970  0.12420  0.20600  Biso   1.000  N
  C45      1.0000 0.88530  0.10810  0.29800  Biso   1.000  C
  H32      1.0000 0.87390  0.08240  0.33520  Biso   1.000  H
  C46      1.0000 0.94090  0.13780  0.32400  Biso   1.000  C
  H33      1.0000 0.97300  0.13520  0.38150  Biso   1.000  H
  Co2      1.0000 0.60911  0.67587  0.57897  Biso   1.000  Co
  C47      1.0000 0.17760  0.56850  0.06420  Biso   1.000  C
  C48      1.0000 0.18910  0.61730  0.04980  Biso   1.000  C
  H34      1.0000 0.16180  0.63490  0.99980  Biso   1.000  H
  C49      1.0000 0.24050  0.64056  0.10870  Biso   1.000  C
  H35      1.0000 0.24840  0.67400  0.09890  Biso   1.000  H
  C50      1.0000 0.28050  0.61490  0.18200  Biso   1.000  C
  C51      1.0000 0.26900  0.56600  0.19640  Biso   1.000  C
  H36      1.0000 0.29630  0.54840  0.24650  Biso   1.000  H
  C52      1.0000 0.21750  0.54277  0.13750  Biso   1.000  C
  H37      1.0000 0.20970  0.50940  0.14730  Biso   1.000  H
  N9       1.0000 0.42430  0.67960  0.27390  Biso   1.000  N
  C53      1.0000 0.37360  0.66860  0.20160  Biso   1.000  C
  H38      1.0000 0.36600  0.68040  0.13750  Biso   1.000  H
  N10      1.0000 0.33550  0.63770  0.23730  Biso   1.000  N
  C54      1.0000 0.36270  0.62960  0.33160  Biso   1.000  C
  H39      1.0000 0.34630  0.60940  0.37420  Biso   1.000  H
  C55      1.0000 0.41760  0.65550  0.35420  Biso   1.000  C
  H40      1.0000 0.44620  0.65660  0.41530  Biso   1.000  H
  C56      1.0000 0.74470  0.70210  0.59440  Biso   1.000  C
  H41      1.0000 0.73210  0.73060  0.55740  Biso   1.000  H
  C57      1.0000 0.80510  0.69120  0.63920  Biso   1.000  C
  H42      1.0000 0.84180  0.71070  0.64260  Biso   1.000  H
  C58      1.0000 0.74060  0.63370  0.66230  Biso   1.000  C
  H43      1.0000 0.72500  0.60490  0.68560  Biso   1.000  H
  C59      1.0000 0.85470  0.61960  0.73660  Biso   1.000  C
  C60      1.0000 0.90840  0.64440  0.77930  Biso   1.000  C
  H44      1.0000 0.91050  0.67860  0.77140  Biso   1.000  H
  C61      1.0000 0.96000  0.61950  0.83420  Biso   1.000  C
  H45      1.0000 0.99670  0.63720  0.86470  Biso   1.000  H
  C62      1.0000 0.95880  0.56940  0.84540  Biso   1.000  C
  C63      1.0000 0.90290  0.54570  0.80300  Biso   1.000  C
  H46      1.0000 0.90000  0.51160  0.81220  Biso   1.000  H
  C64      1.0000 0.85130  0.56980  0.74810  Biso   1.000  C
  H47      1.0000 0.81400  0.55240  0.71870  Biso   1.000  H
  C65      1.0000 0.01730  0.54230  0.89310  Biso   1.000  C
  C66      1.0000 0.06950  0.56590  0.95210  Biso   1.000  C
  H48      1.0000 0.06630  0.59960  0.96500  Biso   1.000  H
  C67      1.0000 0.12530  0.54180  0.99200  Biso   1.000  C
  C68      1.0000 0.13030  0.49280  0.96720  Biso   1.000  C
  H49      1.0000 0.16950  0.47630  0.98870  Biso   1.000  H
  C69      1.0000 0.07920  0.46790  0.91210  Biso   1.000  C
  C70      1.0000 0.02220  0.49290  0.87620  Biso   1.000  C
  H50      1.0000 0.98670  0.47580  0.83990  Biso   1.000  H
  C71      1.0000 0.08340  0.41590  0.88390  Biso   1.000  C
  C72      1.0000 0.13070  0.39950  0.84080  Biso   1.000  C
  H51      1.0000 0.16230  0.42170  0.83090  Biso   1.000  H
  C73      1.0000 0.13330  0.35140  0.81160  Biso   1.000  C
  H52      1.0000 0.16640  0.34080  0.78280  Biso   1.000  H
  C74      1.0000 0.08670  0.31920  0.82530  Biso   1.000  C
  C75      1.0000 0.04030  0.33460  0.87170  Biso   1.000  C
  H53      1.0000 0.00980  0.31210  0.88420  Biso   1.000  H
  C76      1.0000 0.03850  0.38260  0.89980  Biso   1.000  C
  H54      1.0000 0.00610  0.39310  0.93040  Biso   1.000  H
  C77      1.0000 0.09910  0.25720  0.70940  Biso   1.000  C
  H55      1.0000 0.10970  0.27920  0.66420  Biso   1.000  H
  C78      1.0000 0.07810  0.19130  0.77770  Biso   1.000  C
  H56      1.0000 0.07170  0.15790  0.78960  Biso   1.000  H
  C79      1.0000 0.07210  0.22870  0.83860  Biso   1.000  C
  H57      1.0000 0.06050  0.22670  0.89880  Biso   1.000  H
  C80      1.0000 0.56370  0.59120  0.56230  Biso   1.000  C
  C81      1.0000 0.53050  0.54370  0.52820  Biso   1.000  C
  C82      1.0000 0.53360  0.50620  0.59440  Biso   1.000  C
  H58      1.0000 0.55710  0.50990  0.65880  Biso   1.000  H
  C83      1.0000 0.49860  0.53700  0.43590  Biso   1.000  C
  H59      1.0000 0.49810  0.56240  0.39060  Biso   1.000  H
  N11      1.0000 0.70490  0.66650  0.61010  Biso   1.000  N
  N12      1.0000 0.80190  0.64570  0.67870  Biso   1.000  N
  N13      1.0000 0.09460  0.20920  0.69720  Biso   1.000  N
  N14      1.0000 0.08690  0.27030  0.79260  Biso   1.000  N
  O7       1.0000 0.56100  0.62390  0.49890  Biso   1.000  O
  O8       1.0000 0.59460  0.59650  0.64870  Biso   1.000  O
  O9       1.0000 0.61130  0.73060  0.48650  Biso   1.000  O
  O10      1.0000 0.53910  0.76560  0.35010  Biso   1.000  O
  O11      1.0000 0.56410  0.80830  0.49990  Biso   1.000  O
  O12      1.0000 0.50090  0.73510  0.48480  Biso   1.000  O
  S2       1.0000 0.55220  0.76062  0.45725  Biso   1.000  S
  C84      1.0000 0.18870  0.56250  0.02930  Biso   1.000  C
  C85      1.0000 0.24810  0.55400  0.01060  Biso   1.000  C
  H60      1.0000 0.25200  0.53350  0.95870  Biso   1.000  H
  C86      1.0000 0.30160  0.57540  0.06790  Biso   1.000  C
  H61      1.0000 0.34210  0.56960  0.05510  Biso   1.000  H
  C87      1.0000 0.29580  0.60540  0.14380  Biso   1.000  C
  C88      1.0000 0.23650  0.61390  0.16250  Biso   1.000  C
  H62      1.0000 0.23250  0.63440  0.21440  Biso   1.000  H
  C89      1.0000 0.18300  0.59250  0.10520  Biso   1.000  C
  H63      1.0000 0.14240  0.59830  0.11800  Biso   1.000  H
  N15      1.0000 0.43970  0.67230  0.24820  Biso   1.000  N
  C90      1.0000 0.38330  0.66380  0.17520  Biso   1.000  C
  H64      1.0000 0.37050  0.68140  0.11680  Biso   1.000  H
  N16      1.0000 0.34970  0.62420  0.20600  Biso   1.000  N
  C91      1.0000 0.38530  0.60810  0.29800  Biso   1.000  C
  H65      1.0000 0.37390  0.58240  0.33520  Biso   1.000  H
  C92      1.0000 0.44090  0.63780  0.32400  Biso   1.000  C
  H66      1.0000 0.47300  0.63520  0.38150  Biso   1.000  H
  Co3      1.0000 0.89089  0.17587  0.92103  Biso   1.000  Co
  C93      1.0000 0.32240  0.06850  0.43580  Biso   1.000  C
  C94      1.0000 0.31090  0.11730  0.45020  Biso   1.000  C
  H67      1.0000 0.33820  0.13490  0.50020  Biso   1.000  H
  C95      1.0000 0.25950  0.14056  0.39130  Biso   1.000  C
  H68      1.0000 0.25160  0.17400  0.40110  Biso   1.000  H
  C96      1.0000 0.21950  0.11490  0.31800  Biso   1.000  C
  C97      1.0000 0.23100  0.06600  0.30360  Biso   1.000  C
  H69      1.0000 0.20370  0.04840  0.25350  Biso   1.000  H
  C98      1.0000 0.28250  0.04277  0.36250  Biso   1.000  C
  H70      1.0000 0.29030  0.00940  0.35270  Biso   1.000  H
  N17      1.0000 0.07570  0.17960  0.22610  Biso   1.000  N
  C99      1.0000 0.12640  0.16860  0.29840  Biso   1.000  C
  H71      1.0000 0.13400  0.18040  0.36250  Biso   1.000  H
  N18      1.0000 0.16450  0.13770  0.26270  Biso   1.000  N
  C100     1.0000 0.13730  0.12960  0.16840  Biso   1.000  C
  H72      1.0000 0.15370  0.10940  0.12580  Biso   1.000  H
  C101     1.0000 0.08240  0.15550  0.14580  Biso   1.000  C
  H73      1.0000 0.05380  0.15660  0.08470  Biso   1.000  H
  C102     1.0000 0.75530  0.20210  0.90560  Biso   1.000  C
  H74      1.0000 0.76790  0.23060  0.94260  Biso   1.000  H
  C103     1.0000 0.69490  0.19120  0.86080  Biso   1.000  C
  H75      1.0000 0.65820  0.21070  0.85740  Biso   1.000  H
  C104     1.0000 0.75940  0.13370  0.83770  Biso   1.000  C
  H76      1.0000 0.77500  0.10490  0.81440  Biso   1.000  H
  C105     1.0000 0.64530  0.11960  0.76340  Biso   1.000  C
  C106     1.0000 0.59160  0.14440  0.72070  Biso   1.000  C
  H77      1.0000 0.58950  0.17860  0.72860  Biso   1.000  H
  C107     1.0000 0.54000  0.11950  0.66580  Biso   1.000  C
  H78      1.0000 0.50330  0.13720  0.63530  Biso   1.000  H
  C108     1.0000 0.54120  0.06940  0.65460  Biso   1.000  C
  C109     1.0000 0.59710  0.04570  0.69700  Biso   1.000  C
  H79      1.0000 0.60000  0.01160  0.68780  Biso   1.000  H
  C110     1.0000 0.64870  0.06980  0.75190  Biso   1.000  C
  H80      1.0000 0.68600  0.05240  0.78130  Biso   1.000  H
  C111     1.0000 0.48270  0.04230  0.60690  Biso   1.000  C
  C112     1.0000 0.43050  0.06590  0.54790  Biso   1.000  C
  H81      1.0000 0.43370  0.09960  0.53500  Biso   1.000  H
  C113     1.0000 0.37470  0.04180  0.50800  Biso   1.000  C
  C114     1.0000 0.36970  0.99280  0.53280  Biso   1.000  C
  H82      1.0000 0.33050  0.97630  0.51130  Biso   1.000  H
  C115     1.0000 0.42080  0.96790  0.58790  Biso   1.000  C
  C116     1.0000 0.47780  0.99290  0.62380  Biso   1.000  C
  H83      1.0000 0.51330  0.97580  0.66010  Biso   1.000  H
  C117     1.0000 0.41660  0.91590  0.61610  Biso   1.000  C
  C118     1.0000 0.36930  0.89950  0.65920  Biso   1.000  C
  H84      1.0000 0.33770  0.92170  0.66910  Biso   1.000  H
  C119     1.0000 0.36670  0.85140  0.68840  Biso   1.000  C
  H85      1.0000 0.33360  0.84080  0.71720  Biso   1.000  H
  C120     1.0000 0.41330  0.81920  0.67470  Biso   1.000  C
  C121     1.0000 0.45970  0.83460  0.62830  Biso   1.000  C
  H86      1.0000 0.49020  0.81210  0.61580  Biso   1.000  H
  C122     1.0000 0.46150  0.88260  0.60020  Biso   1.000  C
  H87      1.0000 0.49390  0.89310  0.56960  Biso   1.000  H
  C123     1.0000 0.40090  0.75720  0.79060  Biso   1.000  C
  H88      1.0000 0.39030  0.77920  0.83580  Biso   1.000  H
  C124     1.0000 0.42190  0.69130  0.72230  Biso   1.000  C
  H89      1.0000 0.42830  0.65790  0.71040  Biso   1.000  H
  C125     1.0000 0.42790  0.72870  0.66140  Biso   1.000  C
  H90      1.0000 0.43950  0.72670  0.60120  Biso   1.000  H
  C126     1.0000 0.93630  0.09120  0.93770  Biso   1.000  C
  C127     1.0000 0.96950  0.04370  0.97180  Biso   1.000  C
  C128     1.0000 0.96640  0.00620  0.90560  Biso   1.000  C
  H91      1.0000 0.94290  0.00990  0.84120  Biso   1.000  H
  C129     1.0000 0.00140  0.03700  0.06410  Biso   1.000  C
  H92      1.0000 0.00190  0.06240  0.10940  Biso   1.000  H
  N19      1.0000 0.79510  0.16650  0.88990  Biso   1.000  N
  N20      1.0000 0.69810  0.14570  0.82130  Biso   1.000  N
  N21      1.0000 0.40540  0.70920  0.80280  Biso   1.000  N
  N22      1.0000 0.41310  0.77030  0.70740  Biso   1.000  N
  O13      1.0000 0.93900  0.12390  0.00110  Biso   1.000  O
  O14      1.0000 0.90540  0.09650  0.85130  Biso   1.000  O
  O15      1.0000 0.88870  0.23060  0.01350  Biso   1.000  O
  O16      1.0000 0.96090  0.26560  0.14990  Biso   1.000  O
  O17      1.0000 0.93590  0.30830  0.00010  Biso   1.000  O
  O18      1.0000 0.99910  0.23510  0.01520  Biso   1.000  O
  S3       1.0000 0.94780  0.26062  0.04275  Biso   1.000  S
  C130     1.0000 0.31130  0.06250  0.47070  Biso   1.000  C
  C131     1.0000 0.25190  0.05400  0.48940  Biso   1.000  C
  H93      1.0000 0.24800  0.03350  0.54130  Biso   1.000  H
  C132     1.0000 0.19840  0.07540  0.43210  Biso   1.000  C
  H94      1.0000 0.15790  0.06960  0.44490  Biso   1.000  H
  C133     1.0000 0.20420  0.10540  0.35620  Biso   1.000  C
  C134     1.0000 0.26350  0.11390  0.33750  Biso   1.000  C
  H95      1.0000 0.26750  0.13440  0.28560  Biso   1.000  H
  C135     1.0000 0.31700  0.09250  0.39480  Biso   1.000  C
  H96      1.0000 0.35760  0.09830  0.38200  Biso   1.000  H
  N23      1.0000 0.06030  0.17230  0.25180  Biso   1.000  N
  C136     1.0000 0.11670  0.16380  0.32480  Biso   1.000  C
  H97      1.0000 0.12950  0.18140  0.38320  Biso   1.000  H
  N24      1.0000 0.15030  0.12420  0.29400  Biso   1.000  N
  C137     1.0000 0.11470  0.10810  0.20200  Biso   1.000  C
  H98      1.0000 0.12610  0.08240  0.16480  Biso   1.000  H
  C138     1.0000 0.05910  0.13780  0.17600  Biso   1.000  C
  H99      1.0000 0.02700  0.13520  0.11850  Biso   1.000  H
  Co4      1.0000 0.39089  0.67587  0.92103  Biso   1.000  Co
  C139     1.0000 0.82240  0.56850  0.43580  Biso   1.000  C
  C140     1.0000 0.81090  0.61730  0.45020  Biso   1.000  C
  H100     1.0000 0.83820  0.63490  0.50020  Biso   1.000  H
  C141     1.0000 0.75950  0.64056  0.39130  Biso   1.000  C
  H101     1.0000 0.75160  0.67400  0.40110  Biso   1.000  H
  C142     1.0000 0.71950  0.61490  0.31800  Biso   1.000  C
  C143     1.0000 0.73100  0.56600  0.30360  Biso   1.000  C
  H102     1.0000 0.70370  0.54840  0.25350  Biso   1.000  H
  C144     1.0000 0.78250  0.54277  0.36250  Biso   1.000  C
  H103     1.0000 0.79030  0.50940  0.35270  Biso   1.000  H
  N25      1.0000 0.57570  0.67960  0.22610  Biso   1.000  N
  C145     1.0000 0.62640  0.66860  0.29840  Biso   1.000  C
  H104     1.0000 0.63400  0.68040  0.36250  Biso   1.000  H
  N26      1.0000 0.66450  0.63770  0.26270  Biso   1.000  N
  C146     1.0000 0.63730  0.62960  0.16840  Biso   1.000  C
  H105     1.0000 0.65370  0.60940  0.12580  Biso   1.000  H
  C147     1.0000 0.58240  0.65550  0.14580  Biso   1.000  C
  H106     1.0000 0.55380  0.65660  0.08470  Biso   1.000  H
  C148     1.0000 0.25530  0.70210  0.90560  Biso   1.000  C
  H107     1.0000 0.26790  0.73060  0.94260  Biso   1.000  H
  C149     1.0000 0.19490  0.69120  0.86080  Biso   1.000  C
  H108     1.0000 0.15820  0.71070  0.85740  Biso   1.000  H
  C150     1.0000 0.25940  0.63370  0.83770  Biso   1.000  C
  H109     1.0000 0.27500  0.60490  0.81440  Biso   1.000  H
  C151     1.0000 0.14530  0.61960  0.76340  Biso   1.000  C
  C152     1.0000 0.09160  0.64440  0.72070  Biso   1.000  C
  H110     1.0000 0.08950  0.67860  0.72860  Biso   1.000  H
  C153     1.0000 0.04000  0.61950  0.66580  Biso   1.000  C
  H111     1.0000 0.00330  0.63720  0.63530  Biso   1.000  H
  C154     1.0000 0.04120  0.56940  0.65460  Biso   1.000  C
  C155     1.0000 0.09710  0.54570  0.69700  Biso   1.000  C
  H112     1.0000 0.10000  0.51160  0.68780  Biso   1.000  H
  C156     1.0000 0.14870  0.56980  0.75190  Biso   1.000  C
  H113     1.0000 0.18600  0.55240  0.78130  Biso   1.000  H
  C157     1.0000 0.98270  0.54230  0.60690  Biso   1.000  C
  C158     1.0000 0.93050  0.56590  0.54790  Biso   1.000  C
  H114     1.0000 0.93370  0.59960  0.53500  Biso   1.000  H
  C159     1.0000 0.87470  0.54180  0.50800  Biso   1.000  C
  C160     1.0000 0.86970  0.49280  0.53280  Biso   1.000  C
  H115     1.0000 0.83050  0.47630  0.51130  Biso   1.000  H
  C161     1.0000 0.92080  0.46790  0.58790  Biso   1.000  C
  C162     1.0000 0.97780  0.49290  0.62380  Biso   1.000  C
  H116     1.0000 0.01330  0.47580  0.66010  Biso   1.000  H
  C163     1.0000 0.91660  0.41590  0.61610  Biso   1.000  C
  C164     1.0000 0.86930  0.39950  0.65920  Biso   1.000  C
  H117     1.0000 0.83770  0.42170  0.66910  Biso   1.000  H
  C165     1.0000 0.86670  0.35140  0.68840  Biso   1.000  C
  H118     1.0000 0.83360  0.34080  0.71720  Biso   1.000  H
  C166     1.0000 0.91330  0.31920  0.67470  Biso   1.000  C
  C167     1.0000 0.95970  0.33460  0.62830  Biso   1.000  C
  H119     1.0000 0.99020  0.31210  0.61580  Biso   1.000  H
  C168     1.0000 0.96150  0.38260  0.60020  Biso   1.000  C
  H120     1.0000 0.99390  0.39310  0.56960  Biso   1.000  H
  C169     1.0000 0.90090  0.25720  0.79060  Biso   1.000  C
  H121     1.0000 0.89030  0.27920  0.83580  Biso   1.000  H
  C170     1.0000 0.92190  0.19130  0.72230  Biso   1.000  C
  H122     1.0000 0.92830  0.15790  0.71040  Biso   1.000  H
  C171     1.0000 0.92790  0.22870  0.66140  Biso   1.000  C
  H123     1.0000 0.93950  0.22670  0.60120  Biso   1.000  H
  C172     1.0000 0.43630  0.59120  0.93770  Biso   1.000  C
  C173     1.0000 0.46950  0.54370  0.97180  Biso   1.000  C
  C174     1.0000 0.46640  0.50620  0.90560  Biso   1.000  C
  H124     1.0000 0.44290  0.50990  0.84120  Biso   1.000  H
  C175     1.0000 0.50140  0.53700  0.06410  Biso   1.000  C
  H125     1.0000 0.50190  0.56240  0.10940  Biso   1.000  H
  N27      1.0000 0.29510  0.66650  0.88990  Biso   1.000  N
  N28      1.0000 0.19810  0.64570  0.82130  Biso   1.000  N
  N29      1.0000 0.90540  0.20920  0.80280  Biso   1.000  N
  N30      1.0000 0.91310  0.27030  0.70740  Biso   1.000  N
  O19      1.0000 0.43900  0.62390  0.00110  Biso   1.000  O
  O20      1.0000 0.40540  0.59650  0.85130  Biso   1.000  O
  O21      1.0000 0.38870  0.73060  0.01350  Biso   1.000  O
  O22      1.0000 0.46090  0.76560  0.14990  Biso   1.000  O
  O23      1.0000 0.43590  0.80830  0.00010  Biso   1.000  O
  O24      1.0000 0.49910  0.73510  0.01520  Biso   1.000  O
  S4       1.0000 0.44780  0.76062  0.04275  Biso   1.000  S
  C176     1.0000 0.81130  0.56250  0.47070  Biso   1.000  C
  C177     1.0000 0.75190  0.55400  0.48940  Biso   1.000  C
  H126     1.0000 0.74800  0.53350  0.54130  Biso   1.000  H
  C178     1.0000 0.69840  0.57540  0.43210  Biso   1.000  C
  H127     1.0000 0.65790  0.56960  0.44490  Biso   1.000  H
  C179     1.0000 0.70420  0.60540  0.35620  Biso   1.000  C
  C180     1.0000 0.76350  0.61390  0.33750  Biso   1.000  C
  H128     1.0000 0.76750  0.63440  0.28560  Biso   1.000  H
  C181     1.0000 0.81700  0.59250  0.39480  Biso   1.000  C
  H129     1.0000 0.85760  0.59830  0.38200  Biso   1.000  H
  N31      1.0000 0.56030  0.67230  0.25180  Biso   1.000  N
  C182     1.0000 0.61670  0.66380  0.32480  Biso   1.000  C
  H130     1.0000 0.62950  0.68140  0.38320  Biso   1.000  H
  N32      1.0000 0.65030  0.62420  0.29400  Biso   1.000  N
  C183     1.0000 0.61470  0.60810  0.20200  Biso   1.000  C
  H131     1.0000 0.62610  0.58240  0.16480  Biso   1.000  H
  C184     1.0000 0.55910  0.63780  0.17600  Biso   1.000  C
  H132     1.0000 0.52700  0.63520  0.11850  Biso   1.000  H
  Co5      1.0000 0.89089  0.82413  0.42103  Biso   1.000  Co
  C185     1.0000 0.32240  0.93150  0.93580  Biso   1.000  C
  C186     1.0000 0.31090  0.88270  0.95020  Biso   1.000  C
  H133     1.0000 0.33820  0.86510  0.00020  Biso   1.000  H
  C187     1.0000 0.25950  0.85944  0.89130  Biso   1.000  C
  H134     1.0000 0.25160  0.82600  0.90110  Biso   1.000  H
  C188     1.0000 0.21950  0.88510  0.81800  Biso   1.000  C
  C189     1.0000 0.23100  0.93400  0.80360  Biso   1.000  C
  H135     1.0000 0.20370  0.95160  0.75350  Biso   1.000  H
  C190     1.0000 0.28250  0.95723  0.86250  Biso   1.000  C
  H136     1.0000 0.29030  0.99060  0.85270  Biso   1.000  H
  N33      1.0000 0.07570  0.82040  0.72610  Biso   1.000  N
  C191     1.0000 0.12640  0.83140  0.79840  Biso   1.000  C
  H137     1.0000 0.13400  0.81960  0.86250  Biso   1.000  H
  N34      1.0000 0.16450  0.86230  0.76270  Biso   1.000  N
  C192     1.0000 0.13730  0.87040  0.66840  Biso   1.000  C
  H138     1.0000 0.15370  0.89060  0.62580  Biso   1.000  H
  C193     1.0000 0.08240  0.84450  0.64580  Biso   1.000  C
  H139     1.0000 0.05380  0.84340  0.58470  Biso   1.000  H
  C194     1.0000 0.75530  0.79790  0.40560  Biso   1.000  C
  H140     1.0000 0.76790  0.76940  0.44260  Biso   1.000  H
  C195     1.0000 0.69490  0.80880  0.36080  Biso   1.000  C
  H141     1.0000 0.65820  0.78930  0.35740  Biso   1.000  H
  C196     1.0000 0.75940  0.86630  0.33770  Biso   1.000  C
  H142     1.0000 0.77500  0.89510  0.31440  Biso   1.000  H
  C197     1.0000 0.64530  0.88040  0.26340  Biso   1.000  C
  C198     1.0000 0.59160  0.85560  0.22070  Biso   1.000  C
  H143     1.0000 0.58950  0.82140  0.22860  Biso   1.000  H
  C199     1.0000 0.54000  0.88050  0.16580  Biso   1.000  C
  H144     1.0000 0.50330  0.86280  0.13530  Biso   1.000  H
  C200     1.0000 0.54120  0.93060  0.15460  Biso   1.000  C
  C201     1.0000 0.59710  0.95430  0.19700  Biso   1.000  C
  H145     1.0000 0.60000  0.98840  0.18780  Biso   1.000  H
  C202     1.0000 0.64870  0.93020  0.25190  Biso   1.000  C
  H146     1.0000 0.68600  0.94760  0.28130  Biso   1.000  H
  C203     1.0000 0.48270  0.95770  0.10690  Biso   1.000  C
  C204     1.0000 0.43050  0.93410  0.04790  Biso   1.000  C
  H147     1.0000 0.43370  0.90040  0.03500  Biso   1.000  H
  C205     1.0000 0.37470  0.95820  0.00800  Biso   1.000  C
  C206     1.0000 0.36970  0.00720  0.03280  Biso   1.000  C
  H148     1.0000 0.33050  0.02370  0.01130  Biso   1.000  H
  C207     1.0000 0.42080  0.03210  0.08790  Biso   1.000  C
  C208     1.0000 0.47780  0.00710  0.12380  Biso   1.000  C
  H149     1.0000 0.51330  0.02420  0.16010  Biso   1.000  H
  C209     1.0000 0.41660  0.08410  0.11610  Biso   1.000  C
  C210     1.0000 0.36930  0.10050  0.15920  Biso   1.000  C
  H150     1.0000 0.33770  0.07830  0.16910  Biso   1.000  H
  C211     1.0000 0.36670  0.14860  0.18840  Biso   1.000  C
  H151     1.0000 0.33360  0.15920  0.21720  Biso   1.000  H
  C212     1.0000 0.41330  0.18080  0.17470  Biso   1.000  C
  C213     1.0000 0.45970  0.16540  0.12830  Biso   1.000  C
  H152     1.0000 0.49020  0.18790  0.11580  Biso   1.000  H
  C214     1.0000 0.46150  0.11740  0.10020  Biso   1.000  C
  H153     1.0000 0.49390  0.10690  0.06960  Biso   1.000  H
  C215     1.0000 0.40090  0.24280  0.29060  Biso   1.000  C
  H154     1.0000 0.39030  0.22080  0.33580  Biso   1.000  H
  C216     1.0000 0.42190  0.30870  0.22230  Biso   1.000  C
  H155     1.0000 0.42830  0.34210  0.21040  Biso   1.000  H
  C217     1.0000 0.42790  0.27130  0.16140  Biso   1.000  C
  H156     1.0000 0.43950  0.27330  0.10120  Biso   1.000  H
  C218     1.0000 0.93630  0.90880  0.43770  Biso   1.000  C
  C219     1.0000 0.96950  0.95630  0.47180  Biso   1.000  C
  C220     1.0000 0.96640  0.99380  0.40560  Biso   1.000  C
  H157     1.0000 0.94290  0.99010  0.34120  Biso   1.000  H
  C221     1.0000 0.00140  0.96300  0.56410  Biso   1.000  C
  H158     1.0000 0.00190  0.93760  0.60940  Biso   1.000  H
  N35      1.0000 0.79510  0.83350  0.38990  Biso   1.000  N
  N36      1.0000 0.69810  0.85430  0.32130  Biso   1.000  N
  N37      1.0000 0.40540  0.29080  0.30280  Biso   1.000  N
  N38      1.0000 0.41310  0.22970  0.20740  Biso   1.000  N
  O25      1.0000 0.93900  0.87610  0.50110  Biso   1.000  O
  O26      1.0000 0.90540  0.90350  0.35130  Biso   1.000  O
  O27      1.0000 0.88870  0.76940  0.51350  Biso   1.000  O
  O28      1.0000 0.96090  0.73440  0.64990  Biso   1.000  O
  O29      1.0000 0.93590  0.69170  0.50010  Biso   1.000  O
  O30      1.0000 0.99910  0.76490  0.51520  Biso   1.000  O
  S5       1.0000 0.94780  0.73938  0.54275  Biso   1.000  S
  C222     1.0000 0.31130  0.93750  0.97070  Biso   1.000  C
  C223     1.0000 0.25190  0.94600  0.98940  Biso   1.000  C
  H159     1.0000 0.24800  0.96650  0.04130  Biso   1.000  H
  C224     1.0000 0.19840  0.92460  0.93210  Biso   1.000  C
  H160     1.0000 0.15790  0.93040  0.94490  Biso   1.000  H
  C225     1.0000 0.20420  0.89460  0.85620  Biso   1.000  C
  C226     1.0000 0.26350  0.88610  0.83750  Biso   1.000  C
  H161     1.0000 0.26750  0.86560  0.78560  Biso   1.000  H
  C227     1.0000 0.31700  0.90750  0.89480  Biso   1.000  C
  H162     1.0000 0.35760  0.90170  0.88200  Biso   1.000  H
  N39      1.0000 0.06030  0.82770  0.75180  Biso   1.000  N
  C228     1.0000 0.11670  0.83620  0.82480  Biso   1.000  C
  H163     1.0000 0.12950  0.81860  0.88320  Biso   1.000  H
  N40      1.0000 0.15030  0.87580  0.79400  Biso   1.000  N
  C229     1.0000 0.11470  0.89190  0.70200  Biso   1.000  C
  H164     1.0000 0.12610  0.91760  0.66480  Biso   1.000  H
  C230     1.0000 0.05910  0.86220  0.67600  Biso   1.000  C
  H165     1.0000 0.02700  0.86480  0.61850  Biso   1.000  H
  Co6      1.0000 0.39089  0.32413  0.42103  Biso   1.000  Co
  C231     1.0000 0.82240  0.43150  0.93580  Biso   1.000  C
  C232     1.0000 0.81090  0.38270  0.95020  Biso   1.000  C
  H166     1.0000 0.83820  0.36510  0.00020  Biso   1.000  H
  C233     1.0000 0.75950  0.35944  0.89130  Biso   1.000  C
  H167     1.0000 0.75160  0.32600  0.90110  Biso   1.000  H
  C234     1.0000 0.71950  0.38510  0.81800  Biso   1.000  C
  C235     1.0000 0.73100  0.43400  0.80360  Biso   1.000  C
  H168     1.0000 0.70370  0.45160  0.75350  Biso   1.000  H
  C236     1.0000 0.78250  0.45723  0.86250  Biso   1.000  C
  H169     1.0000 0.79030  0.49060  0.85270  Biso   1.000  H
  N41      1.0000 0.57570  0.32040  0.72610  Biso   1.000  N
  C237     1.0000 0.62640  0.33140  0.79840  Biso   1.000  C
  H170     1.0000 0.63400  0.31960  0.86250  Biso   1.000  H
  N42      1.0000 0.66450  0.36230  0.76270  Biso   1.000  N
  C238     1.0000 0.63730  0.37040  0.66840  Biso   1.000  C
  H171     1.0000 0.65370  0.39060  0.62580  Biso   1.000  H
  C239     1.0000 0.58240  0.34450  0.64580  Biso   1.000  C
  H172     1.0000 0.55380  0.34340  0.58470  Biso   1.000  H
  C240     1.0000 0.25530  0.29790  0.40560  Biso   1.000  C
  H173     1.0000 0.26790  0.26940  0.44260  Biso   1.000  H
  C241     1.0000 0.19490  0.30880  0.36080  Biso   1.000  C
  H174     1.0000 0.15820  0.28930  0.35740  Biso   1.000  H
  C242     1.0000 0.25940  0.36630  0.33770  Biso   1.000  C
  H175     1.0000 0.27500  0.39510  0.31440  Biso   1.000  H
  C243     1.0000 0.14530  0.38040  0.26340  Biso   1.000  C
  C244     1.0000 0.09160  0.35560  0.22070  Biso   1.000  C
  H176     1.0000 0.08950  0.32140  0.22860  Biso   1.000  H
  C245     1.0000 0.04000  0.38050  0.16580  Biso   1.000  C
  H177     1.0000 0.00330  0.36280  0.13530  Biso   1.000  H
  C246     1.0000 0.04120  0.43060  0.15460  Biso   1.000  C
  C247     1.0000 0.09710  0.45430  0.19700  Biso   1.000  C
  H178     1.0000 0.10000  0.48840  0.18780  Biso   1.000  H
  C248     1.0000 0.14870  0.43020  0.25190  Biso   1.000  C
  H179     1.0000 0.18600  0.44760  0.28130  Biso   1.000  H
  C249     1.0000 0.98270  0.45770  0.10690  Biso   1.000  C
  C250     1.0000 0.93050  0.43410  0.04790  Biso   1.000  C
  H180     1.0000 0.93370  0.40040  0.03500  Biso   1.000  H
  C251     1.0000 0.87470  0.45820  0.00800  Biso   1.000  C
  C252     1.0000 0.86970  0.50720  0.03280  Biso   1.000  C
  H181     1.0000 0.83050  0.52370  0.01130  Biso   1.000  H
  C253     1.0000 0.92080  0.53210  0.08790  Biso   1.000  C
  C254     1.0000 0.97780  0.50710  0.12380  Biso   1.000  C
  H182     1.0000 0.01330  0.52420  0.16010  Biso   1.000  H
  C255     1.0000 0.91660  0.58410  0.11610  Biso   1.000  C
  C256     1.0000 0.86930  0.60050  0.15920  Biso   1.000  C
  H183     1.0000 0.83770  0.57830  0.16910  Biso   1.000  H
  C257     1.0000 0.86670  0.64860  0.18840  Biso   1.000  C
  H184     1.0000 0.83360  0.65920  0.21720  Biso   1.000  H
  C258     1.0000 0.91330  0.68080  0.17470  Biso   1.000  C
  C259     1.0000 0.95970  0.66540  0.12830  Biso   1.000  C
  H185     1.0000 0.99020  0.68790  0.11580  Biso   1.000  H
  C260     1.0000 0.96150  0.61740  0.10020  Biso   1.000  C
  H186     1.0000 0.99390  0.60690  0.06960  Biso   1.000  H
  C261     1.0000 0.90090  0.74280  0.29060  Biso   1.000  C
  H187     1.0000 0.89030  0.72080  0.33580  Biso   1.000  H
  C262     1.0000 0.92190  0.80870  0.22230  Biso   1.000  C
  H188     1.0000 0.92830  0.84210  0.21040  Biso   1.000  H
  C263     1.0000 0.92790  0.77130  0.16140  Biso   1.000  C
  H189     1.0000 0.93950  0.77330  0.10120  Biso   1.000  H
  C264     1.0000 0.43630  0.40880  0.43770  Biso   1.000  C
  C265     1.0000 0.46950  0.45630  0.47180  Biso   1.000  C
  C266     1.0000 0.46640  0.49380  0.40560  Biso   1.000  C
  H190     1.0000 0.44290  0.49010  0.34120  Biso   1.000  H
  C267     1.0000 0.50140  0.46300  0.56410  Biso   1.000  C
  H191     1.0000 0.50190  0.43760  0.60940  Biso   1.000  H
  N43      1.0000 0.29510  0.33350  0.38990  Biso   1.000  N
  N44      1.0000 0.19810  0.35430  0.32130  Biso   1.000  N
  N45      1.0000 0.90540  0.79080  0.30280  Biso   1.000  N
  N46      1.0000 0.91310  0.72970  0.20740  Biso   1.000  N
  O31      1.0000 0.43900  0.37610  0.50110  Biso   1.000  O
  O32      1.0000 0.40540  0.40350  0.35130  Biso   1.000  O
  O33      1.0000 0.38870  0.26940  0.51350  Biso   1.000  O
  O34      1.0000 0.46090  0.23440  0.64990  Biso   1.000  O
  O35      1.0000 0.43590  0.19170  0.50010  Biso   1.000  O
  O36      1.0000 0.49910  0.26490  0.51520  Biso   1.000  O
  S6       1.0000 0.44780  0.23938  0.54275  Biso   1.000  S
  C268     1.0000 0.81130  0.43750  0.97070  Biso   1.000  C
  C269     1.0000 0.75190  0.44600  0.98940  Biso   1.000  C
  H192     1.0000 0.74800  0.46650  0.04130  Biso   1.000  H
  C270     1.0000 0.69840  0.42460  0.93210  Biso   1.000  C
  H193     1.0000 0.65790  0.43040  0.94490  Biso   1.000  H
  C271     1.0000 0.70420  0.39460  0.85620  Biso   1.000  C
  C272     1.0000 0.76350  0.38610  0.83750  Biso   1.000  C
  H194     1.0000 0.76750  0.36560  0.78560  Biso   1.000  H
  C273     1.0000 0.81700  0.40750  0.89480  Biso   1.000  C
  H195     1.0000 0.85760  0.40170  0.88200  Biso   1.000  H
  N47      1.0000 0.56030  0.32770  0.75180  Biso   1.000  N
  C274     1.0000 0.61670  0.33620  0.82480  Biso   1.000  C
  H196     1.0000 0.62950  0.31860  0.88320  Biso   1.000  H
  N48      1.0000 0.65030  0.37580  0.79400  Biso   1.000  N
  C275     1.0000 0.61470  0.39190  0.70200  Biso   1.000  C
  H197     1.0000 0.62610  0.41760  0.66480  Biso   1.000  H
  C276     1.0000 0.55910  0.36220  0.67600  Biso   1.000  C
  H198     1.0000 0.52700  0.36480  0.61850  Biso   1.000  H
  Co7      1.0000 0.10911  0.82413  0.07897  Biso   1.000  Co
  C277     1.0000 0.67760  0.93150  0.56420  Biso   1.000  C
  C278     1.0000 0.68910  0.88270  0.54980  Biso   1.000  C
  H199     1.0000 0.66180  0.86510  0.49980  Biso   1.000  H
  C279     1.0000 0.74050  0.85944  0.60870  Biso   1.000  C
  H200     1.0000 0.74840  0.82600  0.59890  Biso   1.000  H
  C280     1.0000 0.78050  0.88510  0.68200  Biso   1.000  C
  C281     1.0000 0.76900  0.93400  0.69640  Biso   1.000  C
  H201     1.0000 0.79630  0.95160  0.74650  Biso   1.000  H
  C282     1.0000 0.71750  0.95723  0.63750  Biso   1.000  C
  H202     1.0000 0.70970  0.99060  0.64730  Biso   1.000  H
  N49      1.0000 0.92430  0.82040  0.77390  Biso   1.000  N
  C283     1.0000 0.87360  0.83140  0.70160  Biso   1.000  C
  H203     1.0000 0.86600  0.81960  0.63750  Biso   1.000  H
  N50      1.0000 0.83550  0.86230  0.73730  Biso   1.000  N
  C284     1.0000 0.86270  0.87040  0.83160  Biso   1.000  C
  H204     1.0000 0.84630  0.89060  0.87420  Biso   1.000  H
  C285     1.0000 0.91760  0.84450  0.85420  Biso   1.000  C
  H205     1.0000 0.94620  0.84340  0.91530  Biso   1.000  H
  C286     1.0000 0.24470  0.79790  0.09440  Biso   1.000  C
  H206     1.0000 0.23210  0.76940  0.05740  Biso   1.000  H
  C287     1.0000 0.30510  0.80880  0.13920  Biso   1.000  C
  H207     1.0000 0.34180  0.78930  0.14260  Biso   1.000  H
  C288     1.0000 0.24060  0.86630  0.16230  Biso   1.000  C
  H208     1.0000 0.22500  0.89510  0.18560  Biso   1.000  H
  C289     1.0000 0.35470  0.88040  0.23660  Biso   1.000  C
  C290     1.0000 0.40840  0.85560  0.27930  Biso   1.000  C
  H209     1.0000 0.41050  0.82140  0.27140  Biso   1.000  H
  C291     1.0000 0.46000  0.88050  0.33420  Biso   1.000  C
  H210     1.0000 0.49670  0.86280  0.36470  Biso   1.000  H
  C292     1.0000 0.45880  0.93060  0.34540  Biso   1.000  C
  C293     1.0000 0.40290  0.95430  0.30300  Biso   1.000  C
  H211     1.0000 0.40000  0.98840  0.31220  Biso   1.000  H
  C294     1.0000 0.35130  0.93020  0.24810  Biso   1.000  C
  H212     1.0000 0.31400  0.94760  0.21870  Biso   1.000  H
  C295     1.0000 0.51730  0.95770  0.39310  Biso   1.000  C
  C296     1.0000 0.56950  0.93410  0.45210  Biso   1.000  C
  H213     1.0000 0.56630  0.90040  0.46500  Biso   1.000  H
  C297     1.0000 0.62530  0.95820  0.49200  Biso   1.000  C
  C298     1.0000 0.63030  0.00720  0.46720  Biso   1.000  C
  H214     1.0000 0.66950  0.02370  0.48870  Biso   1.000  H
  C299     1.0000 0.57920  0.03210  0.41210  Biso   1.000  C
  C300     1.0000 0.52220  0.00710  0.37620  Biso   1.000  C
  H215     1.0000 0.48670  0.02420  0.33990  Biso   1.000  H
  C301     1.0000 0.58340  0.08410  0.38390  Biso   1.000  C
  C302     1.0000 0.63070  0.10050  0.34080  Biso   1.000  C
  H216     1.0000 0.66230  0.07830  0.33090  Biso   1.000  H
  C303     1.0000 0.63330  0.14860  0.31160  Biso   1.000  C
  H217     1.0000 0.66640  0.15920  0.28280  Biso   1.000  H
  C304     1.0000 0.58670  0.18080  0.32530  Biso   1.000  C
  C305     1.0000 0.54030  0.16540  0.37170  Biso   1.000  C
  H218     1.0000 0.50980  0.18790  0.38420  Biso   1.000  H
  C306     1.0000 0.53850  0.11740  0.39980  Biso   1.000  C
  H219     1.0000 0.50610  0.10690  0.43040  Biso   1.000  H
  C307     1.0000 0.59910  0.24280  0.20940  Biso   1.000  C
  H220     1.0000 0.60970  0.22080  0.16420  Biso   1.000  H
  C308     1.0000 0.57810  0.30870  0.27770  Biso   1.000  C
  H221     1.0000 0.57170  0.34210  0.28960  Biso   1.000  H
  C309     1.0000 0.57210  0.27130  0.33860  Biso   1.000  C
  H222     1.0000 0.56050  0.27330  0.39880  Biso   1.000  H
  C310     1.0000 0.06370  0.90880  0.06230  Biso   1.000  C
  C311     1.0000 0.03050  0.95630  0.02820  Biso   1.000  C
  C312     1.0000 0.03360  0.99380  0.09440  Biso   1.000  C
  H223     1.0000 0.05710  0.99010  0.15880  Biso   1.000  H
  C313     1.0000 0.99860  0.96300  0.93590  Biso   1.000  C
  H224     1.0000 0.99810  0.93760  0.89060  Biso   1.000  H
  N51      1.0000 0.20490  0.83350  0.11010  Biso   1.000  N
  N52      1.0000 0.30190  0.85430  0.17870  Biso   1.000  N
  N53      1.0000 0.59460  0.29080  0.19720  Biso   1.000  N
  N54      1.0000 0.58690  0.22970  0.29260  Biso   1.000  N
  O37      1.0000 0.06100  0.87610  0.99890  Biso   1.000  O
  O38      1.0000 0.09460  0.90350  0.14870  Biso   1.000  O
  O39      1.0000 0.11130  0.76940  0.98650  Biso   1.000  O
  O40      1.0000 0.03910  0.73440  0.85010  Biso   1.000  O
  O41      1.0000 0.06410  0.69170  0.99990  Biso   1.000  O
  O42      1.0000 0.00090  0.76490  0.98480  Biso   1.000  O
  S7       1.0000 0.05220  0.73938  0.95725  Biso   1.000  S
  C314     1.0000 0.68870  0.93750  0.52930  Biso   1.000  C
  C315     1.0000 0.74810  0.94600  0.51060  Biso   1.000  C
  H225     1.0000 0.75200  0.96650  0.45870  Biso   1.000  H
  C316     1.0000 0.80160  0.92460  0.56790  Biso   1.000  C
  H226     1.0000 0.84210  0.93040  0.55510  Biso   1.000  H
  C317     1.0000 0.79580  0.89460  0.64380  Biso   1.000  C
  C318     1.0000 0.73650  0.88610  0.66250  Biso   1.000  C
  H227     1.0000 0.73250  0.86560  0.71440  Biso   1.000  H
  C319     1.0000 0.68300  0.90750  0.60520  Biso   1.000  C
  H228     1.0000 0.64240  0.90170  0.61800  Biso   1.000  H
  N55      1.0000 0.93970  0.82770  0.74820  Biso   1.000  N
  C320     1.0000 0.88330  0.83620  0.67520  Biso   1.000  C
  H229     1.0000 0.87050  0.81860  0.61680  Biso   1.000  H
  N56      1.0000 0.84970  0.87580  0.70600  Biso   1.000  N
  C321     1.0000 0.88530  0.89190  0.79800  Biso   1.000  C
  H230     1.0000 0.87390  0.91760  0.83520  Biso   1.000  H
  C322     1.0000 0.94090  0.86220  0.82400  Biso   1.000  C
  H231     1.0000 0.97300  0.86480  0.88150  Biso   1.000  H
  Co8      1.0000 0.60911  0.32413  0.07897  Biso   1.000  Co
  C323     1.0000 0.17760  0.43150  0.56420  Biso   1.000  C
  C324     1.0000 0.18910  0.38270  0.54980  Biso   1.000  C
  H232     1.0000 0.16180  0.36510  0.49980  Biso   1.000  H
  C325     1.0000 0.24050  0.35944  0.60870  Biso   1.000  C
  H233     1.0000 0.24840  0.32600  0.59890  Biso   1.000  H
  C326     1.0000 0.28050  0.38510  0.68200  Biso   1.000  C
  C327     1.0000 0.26900  0.43400  0.69640  Biso   1.000  C
  H234     1.0000 0.29630  0.45160  0.74650  Biso   1.000  H
  C328     1.0000 0.21750  0.45723  0.63750  Biso   1.000  C
  H235     1.0000 0.20970  0.49060  0.64730  Biso   1.000  H
  N57      1.0000 0.42430  0.32040  0.77390  Biso   1.000  N
  C329     1.0000 0.37360  0.33140  0.70160  Biso   1.000  C
  H236     1.0000 0.36600  0.31960  0.63750  Biso   1.000  H
  N58      1.0000 0.33550  0.36230  0.73730  Biso   1.000  N
  C330     1.0000 0.36270  0.37040  0.83160  Biso   1.000  C
  H237     1.0000 0.34630  0.39060  0.87420  Biso   1.000  H
  C331     1.0000 0.41760  0.34450  0.85420  Biso   1.000  C
  H238     1.0000 0.44620  0.34340  0.91530  Biso   1.000  H
  C332     1.0000 0.74470  0.29790  0.09440  Biso   1.000  C
  H239     1.0000 0.73210  0.26940  0.05740  Biso   1.000  H
  C333     1.0000 0.80510  0.30880  0.13920  Biso   1.000  C
  H240     1.0000 0.84180  0.28930  0.14260  Biso   1.000  H
  C334     1.0000 0.74060  0.36630  0.16230  Biso   1.000  C
  H241     1.0000 0.72500  0.39510  0.18560  Biso   1.000  H
  C335     1.0000 0.85470  0.38040  0.23660  Biso   1.000  C
  C336     1.0000 0.90840  0.35560  0.27930  Biso   1.000  C
  H242     1.0000 0.91050  0.32140  0.27140  Biso   1.000  H
  C337     1.0000 0.96000  0.38050  0.33420  Biso   1.000  C
  H243     1.0000 0.99670  0.36280  0.36470  Biso   1.000  H
  C338     1.0000 0.95880  0.43060  0.34540  Biso   1.000  C
  C339     1.0000 0.90290  0.45430  0.30300  Biso   1.000  C
  H244     1.0000 0.90000  0.48840  0.31220  Biso   1.000  H
  C340     1.0000 0.85130  0.43020  0.24810  Biso   1.000  C
  H245     1.0000 0.81400  0.44760  0.21870  Biso   1.000  H
  C341     1.0000 0.01730  0.45770  0.39310  Biso   1.000  C
  C342     1.0000 0.06950  0.43410  0.45210  Biso   1.000  C
  H246     1.0000 0.06630  0.40040  0.46500  Biso   1.000  H
  C343     1.0000 0.12530  0.45820  0.49200  Biso   1.000  C
  C344     1.0000 0.13030  0.50720  0.46720  Biso   1.000  C
  H247     1.0000 0.16950  0.52370  0.48870  Biso   1.000  H
  C345     1.0000 0.07920  0.53210  0.41210  Biso   1.000  C
  C346     1.0000 0.02220  0.50710  0.37620  Biso   1.000  C
  H248     1.0000 0.98670  0.52420  0.33990  Biso   1.000  H
  C347     1.0000 0.08340  0.58410  0.38390  Biso   1.000  C
  C348     1.0000 0.13070  0.60050  0.34080  Biso   1.000  C
  H249     1.0000 0.16230  0.57830  0.33090  Biso   1.000  H
  C349     1.0000 0.13330  0.64860  0.31160  Biso   1.000  C
  H250     1.0000 0.16640  0.65920  0.28280  Biso   1.000  H
  C350     1.0000 0.08670  0.68080  0.32530  Biso   1.000  C
  C351     1.0000 0.04030  0.66540  0.37170  Biso   1.000  C
  H251     1.0000 0.00980  0.68790  0.38420  Biso   1.000  H
  C352     1.0000 0.03850  0.61740  0.39980  Biso   1.000  C
  H252     1.0000 0.00610  0.60690  0.43040  Biso   1.000  H
  C353     1.0000 0.09910  0.74280  0.20940  Biso   1.000  C
  H253     1.0000 0.10970  0.72080  0.16420  Biso   1.000  H
  C354     1.0000 0.07810  0.80870  0.27770  Biso   1.000  C
  H254     1.0000 0.07170  0.84210  0.28960  Biso   1.000  H
  C355     1.0000 0.07210  0.77130  0.33860  Biso   1.000  C
  H255     1.0000 0.06050  0.77330  0.39880  Biso   1.000  H
  C356     1.0000 0.56370  0.40880  0.06230  Biso   1.000  C
  C357     1.0000 0.53050  0.45630  0.02820  Biso   1.000  C
  C358     1.0000 0.53360  0.49380  0.09440  Biso   1.000  C
  H256     1.0000 0.55710  0.49010  0.15880  Biso   1.000  H
  C359     1.0000 0.49860  0.46300  0.93590  Biso   1.000  C
  H257     1.0000 0.49810  0.43760  0.89060  Biso   1.000  H
  N59      1.0000 0.70490  0.33350  0.11010  Biso   1.000  N
  N60      1.0000 0.80190  0.35430  0.17870  Biso   1.000  N
  N61      1.0000 0.09460  0.79080  0.19720  Biso   1.000  N
  N62      1.0000 0.08690  0.72970  0.29260  Biso   1.000  N
  O43      1.0000 0.56100  0.37610  0.99890  Biso   1.000  O
  O44      1.0000 0.59460  0.40350  0.14870  Biso   1.000  O
  O45      1.0000 0.61130  0.26940  0.98650  Biso   1.000  O
  O46      1.0000 0.53910  0.23440  0.85010  Biso   1.000  O
  O47      1.0000 0.56410  0.19170  0.99990  Biso   1.000  O
  O48      1.0000 0.50090  0.26490  0.98480  Biso   1.000  O
  S8       1.0000 0.55220  0.23938  0.95725  Biso   1.000  S
  C360     1.0000 0.18870  0.43750  0.52930  Biso   1.000  C
  C361     1.0000 0.24810  0.44600  0.51060  Biso   1.000  C
  H258     1.0000 0.25200  0.46650  0.45870  Biso   1.000  H
  C362     1.0000 0.30160  0.42460  0.56790  Biso   1.000  C
  H259     1.0000 0.34210  0.43040  0.55510  Biso   1.000  H
  C363     1.0000 0.29580  0.39460  0.64380  Biso   1.000  C
  C364     1.0000 0.23650  0.38610  0.66250  Biso   1.000  C
  H260     1.0000 0.23250  0.36560  0.71440  Biso   1.000  H
  C365     1.0000 0.18300  0.40750  0.60520  Biso   1.000  C
  H261     1.0000 0.14240  0.40170  0.61800  Biso   1.000  H
  N63      1.0000 0.43970  0.32770  0.74820  Biso   1.000  N
  C366     1.0000 0.38330  0.33620  0.67520  Biso   1.000  C
  H262     1.0000 0.37050  0.31860  0.61680  Biso   1.000  H
  N64      1.0000 0.34970  0.37580  0.70600  Biso   1.000  N
  C367     1.0000 0.38530  0.39190  0.79800  Biso   1.000  C
  H263     1.0000 0.37390  0.41760  0.83520  Biso   1.000  H
  C368     1.0000 0.44090  0.36220  0.82400  Biso   1.000  C
  H264     1.0000 0.47300  0.36480  0.88150  Biso   1.000  H
  Co9      1.0000 0.00000  0.21984  0.25000  Biso   1.000  Co
  Co10     1.0000 0.50000  0.71984  0.25000  Biso   1.000  Co
  Co11     1.0000 0.00000  0.78016  0.75000  Biso   1.000  Co
  Co12     1.0000 0.50000  0.28016  0.75000  Biso   1.000  Co
