data_image0
_cell_length_a       27.2448
_cell_length_b       27.2448
_cell_length_c       19.2254
_cell_angle_alpha    90
_cell_angle_beta     90
_cell_angle_gamma    90

_symmetry_space_group_name_H-M    "P 1"
_symmetry_int_tables_number       1

loop_
  _symmetry_equiv_pos_as_xyz
  'x, y, z'

loop_
  _atom_site_label
  _atom_site_occupancy
  _atom_site_fract_x
  _atom_site_fract_y
  _atom_site_fract_z
  _atom_site_thermal_displace_type
  _atom_site_B_iso_or_equiv
  _atom_site_type_symbol
  C1       1.0000 0.19270  0.15740  0.25080  Biso   1.000  C
  H1       1.0000 0.20300  0.13950  0.28930  Biso   1.000  H
  C2       1.0000 0.32550  0.14460  0.03450  Biso   1.000  C
  H2       1.0000 0.34950  0.15860  0.06250  Biso   1.000  H
  H3       1.0000 0.19560  0.08940  0.95860  Biso   1.000  H
  C3       1.0000 0.36080  0.10170  0.23830  Biso   1.000  C
  H4       1.0000 0.36280  0.06770  0.23930  Biso   1.000  H
  C4       1.0000 0.37040  0.11120  0.21710  Biso   1.000  C
  H5       1.0000 0.38610  0.09150  0.18460  Biso   1.000  H
  C5       1.0000 0.21640  0.02780  0.22750  Biso   1.000  C
  H6       1.0000 0.19900  0.04870  0.25680  Biso   1.000  H
  C6       1.0000 0.20090  0.02440  0.19100  Biso   1.000  C
  H7       1.0000 0.17420  0.04430  0.20090  Biso   1.000  H
  N1       1.0000 0.32316  0.13076  0.21521  Biso   1.000  N
  N2       1.0000 0.24833  0.04064  0.17350  Biso   1.000  N
  N3       1.0000 0.21044  0.15277  0.18500  Biso   1.000  N
  N4       1.0000 0.28516  0.12090  0.05790  Biso   1.000  N
  Zn1      1.0000 0.26649  0.11025  0.15652  Biso   1.000  Zn
  C7       1.0000 0.69270  0.65740  0.75080  Biso   1.000  C
  H8       1.0000 0.70300  0.63950  0.78930  Biso   1.000  H
  C8       1.0000 0.82550  0.64460  0.53450  Biso   1.000  C
  H9       1.0000 0.84950  0.65860  0.56250  Biso   1.000  H
  H10      1.0000 0.69560  0.58940  0.45860  Biso   1.000  H
  C9       1.0000 0.86080  0.60170  0.73830  Biso   1.000  C
  H11      1.0000 0.86280  0.56770  0.73930  Biso   1.000  H
  C10      1.0000 0.87040  0.61120  0.71710  Biso   1.000  C
  H12      1.0000 0.88610  0.59150  0.68460  Biso   1.000  H
  C11      1.0000 0.71640  0.52780  0.72750  Biso   1.000  C
  H13      1.0000 0.69900  0.54870  0.75680  Biso   1.000  H
  C12      1.0000 0.70090  0.52440  0.69100  Biso   1.000  C
  H14      1.0000 0.67420  0.54430  0.70090  Biso   1.000  H
  N5       1.0000 0.82316  0.63076  0.71521  Biso   1.000  N
  N6       1.0000 0.74833  0.54064  0.67350  Biso   1.000  N
  N7       1.0000 0.71044  0.65277  0.68500  Biso   1.000  N
  N8       1.0000 0.78516  0.62090  0.55790  Biso   1.000  N
  Zn2      1.0000 0.76649  0.61025  0.65652  Biso   1.000  Zn
  C13      1.0000 0.80730  0.84260  0.25080  Biso   1.000  C
  H15      1.0000 0.79700  0.86050  0.28930  Biso   1.000  H
  C14      1.0000 0.67450  0.85540  0.03450  Biso   1.000  C
  H16      1.0000 0.65050  0.84140  0.06250  Biso   1.000  H
  H17      1.0000 0.80440  0.91060  0.95860  Biso   1.000  H
  C15      1.0000 0.63920  0.89830  0.23830  Biso   1.000  C
  H18      1.0000 0.63720  0.93230  0.23930  Biso   1.000  H
  C16      1.0000 0.62960  0.88880  0.21710  Biso   1.000  C
  H19      1.0000 0.61390  0.90850  0.18460  Biso   1.000  H
  C17      1.0000 0.78360  0.97220  0.22750  Biso   1.000  C
  H20      1.0000 0.80100  0.95130  0.25680  Biso   1.000  H
  C18      1.0000 0.79910  0.97560  0.19100  Biso   1.000  C
  H21      1.0000 0.82580  0.95570  0.20090  Biso   1.000  H
  N9       1.0000 0.67684  0.86924  0.21521  Biso   1.000  N
  N10      1.0000 0.75167  0.95936  0.17350  Biso   1.000  N
  N11      1.0000 0.78956  0.84723  0.18500  Biso   1.000  N
  N12      1.0000 0.71484  0.87910  0.05790  Biso   1.000  N
  Zn3      1.0000 0.73351  0.88975  0.15652  Biso   1.000  Zn
  C19      1.0000 0.30730  0.34260  0.75080  Biso   1.000  C
  H22      1.0000 0.29700  0.36050  0.78930  Biso   1.000  H
  C20      1.0000 0.17450  0.35540  0.53450  Biso   1.000  C
  H23      1.0000 0.15050  0.34140  0.56250  Biso   1.000  H
  H24      1.0000 0.30440  0.41060  0.45860  Biso   1.000  H
  C21      1.0000 0.13920  0.39830  0.73830  Biso   1.000  C
  H25      1.0000 0.13720  0.43230  0.73930  Biso   1.000  H
  C22      1.0000 0.12960  0.38880  0.71710  Biso   1.000  C
  H26      1.0000 0.11390  0.40850  0.68460  Biso   1.000  H
  C23      1.0000 0.28360  0.47220  0.72750  Biso   1.000  C
  H27      1.0000 0.30100  0.45130  0.75680  Biso   1.000  H
  C24      1.0000 0.29910  0.47560  0.69100  Biso   1.000  C
  H28      1.0000 0.32580  0.45570  0.70090  Biso   1.000  H
  N13      1.0000 0.17684  0.36924  0.71521  Biso   1.000  N
  N14      1.0000 0.25167  0.45936  0.67350  Biso   1.000  N
  N15      1.0000 0.28956  0.34723  0.68500  Biso   1.000  N
  N16      1.0000 0.21484  0.37910  0.55790  Biso   1.000  N
  Zn4      1.0000 0.23351  0.38975  0.65652  Biso   1.000  Zn
  C25      1.0000 0.84260  0.19270  0.25080  Biso   1.000  C
  H29      1.0000 0.86050  0.20300  0.28930  Biso   1.000  H
  C26      1.0000 0.85540  0.32550  0.03450  Biso   1.000  C
  H30      1.0000 0.84140  0.34950  0.06250  Biso   1.000  H
  H31      1.0000 0.91060  0.19560  0.95860  Biso   1.000  H
  C27      1.0000 0.89830  0.36080  0.23830  Biso   1.000  C
  H32      1.0000 0.93230  0.36280  0.23930  Biso   1.000  H
  C28      1.0000 0.88880  0.37040  0.21710  Biso   1.000  C
  H33      1.0000 0.90850  0.38610  0.18460  Biso   1.000  H
  C29      1.0000 0.97220  0.21640  0.22750  Biso   1.000  C
  H34      1.0000 0.95130  0.19900  0.25680  Biso   1.000  H
  C30      1.0000 0.97560  0.20090  0.19100  Biso   1.000  C
  H35      1.0000 0.95570  0.17420  0.20090  Biso   1.000  H
  N17      1.0000 0.86924  0.32316  0.21521  Biso   1.000  N
  N18      1.0000 0.95936  0.24833  0.17350  Biso   1.000  N
  N19      1.0000 0.84723  0.21044  0.18500  Biso   1.000  N
  N20      1.0000 0.87910  0.28516  0.05790  Biso   1.000  N
  Zn5      1.0000 0.88975  0.26649  0.15652  Biso   1.000  Zn
  C31      1.0000 0.34260  0.69270  0.75080  Biso   1.000  C
  H36      1.0000 0.36050  0.70300  0.78930  Biso   1.000  H
  C32      1.0000 0.35540  0.82550  0.53450  Biso   1.000  C
  H37      1.0000 0.34140  0.84950  0.56250  Biso   1.000  H
  H38      1.0000 0.41060  0.69560  0.45860  Biso   1.000  H
  C33      1.0000 0.39830  0.86080  0.73830  Biso   1.000  C
  H39      1.0000 0.43230  0.86280  0.73930  Biso   1.000  H
  C34      1.0000 0.38880  0.87040  0.71710  Biso   1.000  C
  H40      1.0000 0.40850  0.88610  0.68460  Biso   1.000  H
  C35      1.0000 0.47220  0.71640  0.72750  Biso   1.000  C
  H41      1.0000 0.45130  0.69900  0.75680  Biso   1.000  H
  C36      1.0000 0.47560  0.70090  0.69100  Biso   1.000  C
  H42      1.0000 0.45570  0.67420  0.70090  Biso   1.000  H
  N21      1.0000 0.36924  0.82316  0.71521  Biso   1.000  N
  N22      1.0000 0.45936  0.74833  0.67350  Biso   1.000  N
  N23      1.0000 0.34723  0.71044  0.68500  Biso   1.000  N
  N24      1.0000 0.37910  0.78516  0.55790  Biso   1.000  N
  Zn6      1.0000 0.38975  0.76649  0.65652  Biso   1.000  Zn
  C37      1.0000 0.15740  0.80730  0.25080  Biso   1.000  C
  H43      1.0000 0.13950  0.79700  0.28930  Biso   1.000  H
  C38      1.0000 0.14460  0.67450  0.03450  Biso   1.000  C
  H44      1.0000 0.15860  0.65050  0.06250  Biso   1.000  H
  H45      1.0000 0.08940  0.80440  0.95860  Biso   1.000  H
  C39      1.0000 0.10170  0.63920  0.23830  Biso   1.000  C
  H46      1.0000 0.06770  0.63720  0.23930  Biso   1.000  H
  C40      1.0000 0.11120  0.62960  0.21710  Biso   1.000  C
  H47      1.0000 0.09150  0.61390  0.18460  Biso   1.000  H
  C41      1.0000 0.02780  0.78360  0.22750  Biso   1.000  C
  H48      1.0000 0.04870  0.80100  0.25680  Biso   1.000  H
  C42      1.0000 0.02440  0.79910  0.19100  Biso   1.000  C
  H49      1.0000 0.04430  0.82580  0.20090  Biso   1.000  H
  N25      1.0000 0.13076  0.67684  0.21521  Biso   1.000  N
  N26      1.0000 0.04064  0.75167  0.17350  Biso   1.000  N
  N27      1.0000 0.15277  0.78956  0.18500  Biso   1.000  N
  N28      1.0000 0.12090  0.71484  0.05790  Biso   1.000  N
  Zn7      1.0000 0.11025  0.73351  0.15652  Biso   1.000  Zn
  C43      1.0000 0.65740  0.30730  0.75080  Biso   1.000  C
  H50      1.0000 0.63950  0.29700  0.78930  Biso   1.000  H
  C44      1.0000 0.64460  0.17450  0.53450  Biso   1.000  C
  H51      1.0000 0.65860  0.15050  0.56250  Biso   1.000  H
  H52      1.0000 0.58940  0.30440  0.45860  Biso   1.000  H
  C45      1.0000 0.60170  0.13920  0.73830  Biso   1.000  C
  H53      1.0000 0.56770  0.13720  0.73930  Biso   1.000  H
  C46      1.0000 0.61120  0.12960  0.71710  Biso   1.000  C
  H54      1.0000 0.59150  0.11390  0.68460  Biso   1.000  H
  C47      1.0000 0.52780  0.28360  0.72750  Biso   1.000  C
  H55      1.0000 0.54870  0.30100  0.75680  Biso   1.000  H
  C48      1.0000 0.52440  0.29910  0.69100  Biso   1.000  C
  H56      1.0000 0.54430  0.32580  0.70090  Biso   1.000  H
  N29      1.0000 0.63076  0.17684  0.71521  Biso   1.000  N
  N30      1.0000 0.54064  0.25167  0.67350  Biso   1.000  N
  N31      1.0000 0.65277  0.28956  0.68500  Biso   1.000  N
  N32      1.0000 0.62090  0.21484  0.55790  Biso   1.000  N
  Zn8      1.0000 0.61025  0.23351  0.65652  Biso   1.000  Zn
  C49      1.0000 0.80730  0.15740  0.74920  Biso   1.000  C
  H57      1.0000 0.79700  0.13950  0.71070  Biso   1.000  H
  C50      1.0000 0.67450  0.14460  0.96550  Biso   1.000  C
  H58      1.0000 0.65050  0.15860  0.93750  Biso   1.000  H
  H59      1.0000 0.80440  0.08940  0.04140  Biso   1.000  H
  C51      1.0000 0.63920  0.10170  0.76170  Biso   1.000  C
  H60      1.0000 0.63720  0.06770  0.76070  Biso   1.000  H
  C52      1.0000 0.62960  0.11120  0.78290  Biso   1.000  C
  H61      1.0000 0.61390  0.09150  0.81540  Biso   1.000  H
  C53      1.0000 0.78360  0.02780  0.77250  Biso   1.000  C
  H62      1.0000 0.80100  0.04870  0.74320  Biso   1.000  H
  C54      1.0000 0.79910  0.02440  0.80900  Biso   1.000  C
  H63      1.0000 0.82580  0.04430  0.79910  Biso   1.000  H
  N33      1.0000 0.67684  0.13076  0.78479  Biso   1.000  N
  N34      1.0000 0.75167  0.04064  0.82650  Biso   1.000  N
  N35      1.0000 0.78956  0.15277  0.81500  Biso   1.000  N
  N36      1.0000 0.71484  0.12090  0.94210  Biso   1.000  N
  Zn9      1.0000 0.73351  0.11025  0.84348  Biso   1.000  Zn
  C55      1.0000 0.30730  0.65740  0.24920  Biso   1.000  C
  H64      1.0000 0.29700  0.63950  0.21070  Biso   1.000  H
  C56      1.0000 0.17450  0.64460  0.46550  Biso   1.000  C
  H65      1.0000 0.15050  0.65860  0.43750  Biso   1.000  H
  H66      1.0000 0.30440  0.58940  0.54140  Biso   1.000  H
  C57      1.0000 0.13920  0.60170  0.26170  Biso   1.000  C
  H67      1.0000 0.13720  0.56770  0.26070  Biso   1.000  H
  C58      1.0000 0.12960  0.61120  0.28290  Biso   1.000  C
  H68      1.0000 0.11390  0.59150  0.31540  Biso   1.000  H
  C59      1.0000 0.28360  0.52780  0.27250  Biso   1.000  C
  H69      1.0000 0.30100  0.54870  0.24320  Biso   1.000  H
  C60      1.0000 0.29910  0.52440  0.30900  Biso   1.000  C
  H70      1.0000 0.32580  0.54430  0.29910  Biso   1.000  H
  N37      1.0000 0.17684  0.63076  0.28479  Biso   1.000  N
  N38      1.0000 0.25167  0.54064  0.32650  Biso   1.000  N
  N39      1.0000 0.28956  0.65277  0.31500  Biso   1.000  N
  N40      1.0000 0.21484  0.62090  0.44210  Biso   1.000  N
  Zn10     1.0000 0.23351  0.61025  0.34348  Biso   1.000  Zn
  C61      1.0000 0.19270  0.84260  0.74920  Biso   1.000  C
  H71      1.0000 0.20300  0.86050  0.71070  Biso   1.000  H
  C62      1.0000 0.32550  0.85540  0.96550  Biso   1.000  C
  H72      1.0000 0.34950  0.84140  0.93750  Biso   1.000  H
  H73      1.0000 0.19560  0.91060  0.04140  Biso   1.000  H
  C63      1.0000 0.36080  0.89830  0.76170  Biso   1.000  C
  H74      1.0000 0.36280  0.93230  0.76070  Biso   1.000  H
  C64      1.0000 0.37040  0.88880  0.78290  Biso   1.000  C
  H75      1.0000 0.38610  0.90850  0.81540  Biso   1.000  H
  C65      1.0000 0.21640  0.97220  0.77250  Biso   1.000  C
  H76      1.0000 0.19900  0.95130  0.74320  Biso   1.000  H
  C66      1.0000 0.20090  0.97560  0.80900  Biso   1.000  C
  H77      1.0000 0.17420  0.95570  0.79910  Biso   1.000  H
  N41      1.0000 0.32316  0.86924  0.78479  Biso   1.000  N
  N42      1.0000 0.24833  0.95936  0.82650  Biso   1.000  N
  N43      1.0000 0.21044  0.84723  0.81500  Biso   1.000  N
  N44      1.0000 0.28516  0.87910  0.94210  Biso   1.000  N
  Zn11     1.0000 0.26649  0.88975  0.84348  Biso   1.000  Zn
  C67      1.0000 0.69270  0.34260  0.24920  Biso   1.000  C
  H78      1.0000 0.70300  0.36050  0.21070  Biso   1.000  H
  C68      1.0000 0.82550  0.35540  0.46550  Biso   1.000  C
  H79      1.0000 0.84950  0.34140  0.43750  Biso   1.000  H
  H80      1.0000 0.69560  0.41060  0.54140  Biso   1.000  H
  C69      1.0000 0.86080  0.39830  0.26170  Biso   1.000  C
  H81      1.0000 0.86280  0.43230  0.26070  Biso   1.000  H
  C70      1.0000 0.87040  0.38880  0.28290  Biso   1.000  C
  H82      1.0000 0.88610  0.40850  0.31540  Biso   1.000  H
  C71      1.0000 0.71640  0.47220  0.27250  Biso   1.000  C
  H83      1.0000 0.69900  0.45130  0.24320  Biso   1.000  H
  C72      1.0000 0.70090  0.47560  0.30900  Biso   1.000  C
  H84      1.0000 0.67420  0.45570  0.29910  Biso   1.000  H
  N45      1.0000 0.82316  0.36924  0.28479  Biso   1.000  N
  N46      1.0000 0.74833  0.45936  0.32650  Biso   1.000  N
  N47      1.0000 0.71044  0.34723  0.31500  Biso   1.000  N
  N48      1.0000 0.78516  0.37910  0.44210  Biso   1.000  N
  Zn12     1.0000 0.76649  0.38975  0.34348  Biso   1.000  Zn
  C73      1.0000 0.15740  0.19270  0.74920  Biso   1.000  C
  H85      1.0000 0.13950  0.20300  0.71070  Biso   1.000  H
  C74      1.0000 0.14460  0.32550  0.96550  Biso   1.000  C
  H86      1.0000 0.15860  0.34950  0.93750  Biso   1.000  H
  H87      1.0000 0.08940  0.19560  0.04140  Biso   1.000  H
  C75      1.0000 0.10170  0.36080  0.76170  Biso   1.000  C
  H88      1.0000 0.06770  0.36280  0.76070  Biso   1.000  H
  C76      1.0000 0.11120  0.37040  0.78290  Biso   1.000  C
  H89      1.0000 0.09150  0.38610  0.81540  Biso   1.000  H
  C77      1.0000 0.02780  0.21640  0.77250  Biso   1.000  C
  H90      1.0000 0.04870  0.19900  0.74320  Biso   1.000  H
  C78      1.0000 0.02440  0.20090  0.80900  Biso   1.000  C
  H91      1.0000 0.04430  0.17420  0.79910  Biso   1.000  H
  N49      1.0000 0.13076  0.32316  0.78479  Biso   1.000  N
  N50      1.0000 0.04064  0.24833  0.82650  Biso   1.000  N
  N51      1.0000 0.15277  0.21044  0.81500  Biso   1.000  N
  N52      1.0000 0.12090  0.28516  0.94210  Biso   1.000  N
  Zn13     1.0000 0.11025  0.26649  0.84348  Biso   1.000  Zn
  C79      1.0000 0.65740  0.69270  0.24920  Biso   1.000  C
  H92      1.0000 0.63950  0.70300  0.21070  Biso   1.000  H
  C80      1.0000 0.64460  0.82550  0.46550  Biso   1.000  C
  H93      1.0000 0.65860  0.84950  0.43750  Biso   1.000  H
  H94      1.0000 0.58940  0.69560  0.54140  Biso   1.000  H
  C81      1.0000 0.60170  0.86080  0.26170  Biso   1.000  C
  H95      1.0000 0.56770  0.86280  0.26070  Biso   1.000  H
  C82      1.0000 0.61120  0.87040  0.28290  Biso   1.000  C
  H96      1.0000 0.59150  0.88610  0.31540  Biso   1.000  H
  C83      1.0000 0.52780  0.71640  0.27250  Biso   1.000  C
  H97      1.0000 0.54870  0.69900  0.24320  Biso   1.000  H
  C84      1.0000 0.52440  0.70090  0.30900  Biso   1.000  C
  H98      1.0000 0.54430  0.67420  0.29910  Biso   1.000  H
  N53      1.0000 0.63076  0.82316  0.28479  Biso   1.000  N
  N54      1.0000 0.54064  0.74833  0.32650  Biso   1.000  N
  N55      1.0000 0.65277  0.71044  0.31500  Biso   1.000  N
  N56      1.0000 0.62090  0.78516  0.44210  Biso   1.000  N
  Zn14     1.0000 0.61025  0.76649  0.34348  Biso   1.000  Zn
  C85      1.0000 0.84260  0.80730  0.74920  Biso   1.000  C
  H99      1.0000 0.86050  0.79700  0.71070  Biso   1.000  H
  C86      1.0000 0.85540  0.67450  0.96550  Biso   1.000  C
  H100     1.0000 0.84140  0.65050  0.93750  Biso   1.000  H
  H101     1.0000 0.91060  0.80440  0.04140  Biso   1.000  H
  C87      1.0000 0.89830  0.63920  0.76170  Biso   1.000  C
  H102     1.0000 0.93230  0.63720  0.76070  Biso   1.000  H
  C88      1.0000 0.88880  0.62960  0.78290  Biso   1.000  C
  H103     1.0000 0.90850  0.61390  0.81540  Biso   1.000  H
  C89      1.0000 0.97220  0.78360  0.77250  Biso   1.000  C
  H104     1.0000 0.95130  0.80100  0.74320  Biso   1.000  H
  C90      1.0000 0.97560  0.79910  0.80900  Biso   1.000  C
  H105     1.0000 0.95570  0.82580  0.79910  Biso   1.000  H
  N57      1.0000 0.86924  0.67684  0.78479  Biso   1.000  N
  N58      1.0000 0.95936  0.75167  0.82650  Biso   1.000  N
  N59      1.0000 0.84723  0.78956  0.81500  Biso   1.000  N
  N60      1.0000 0.87910  0.71484  0.94210  Biso   1.000  N
  Zn15     1.0000 0.88975  0.73351  0.84348  Biso   1.000  Zn
  C91      1.0000 0.34260  0.30730  0.24920  Biso   1.000  C
  H106     1.0000 0.36050  0.29700  0.21070  Biso   1.000  H
  C92      1.0000 0.35540  0.17450  0.46550  Biso   1.000  C
  H107     1.0000 0.34140  0.15050  0.43750  Biso   1.000  H
  H108     1.0000 0.41060  0.30440  0.54140  Biso   1.000  H
  C93      1.0000 0.39830  0.13920  0.26170  Biso   1.000  C
  H109     1.0000 0.43230  0.13720  0.26070  Biso   1.000  H
  C94      1.0000 0.38880  0.12960  0.28290  Biso   1.000  C
  H110     1.0000 0.40850  0.11390  0.31540  Biso   1.000  H
  C95      1.0000 0.47220  0.28360  0.27250  Biso   1.000  C
  H111     1.0000 0.45130  0.30100  0.24320  Biso   1.000  H
  C96      1.0000 0.47560  0.29910  0.30900  Biso   1.000  C
  H112     1.0000 0.45570  0.32580  0.29910  Biso   1.000  H
  N61      1.0000 0.36924  0.17684  0.28479  Biso   1.000  N
  N62      1.0000 0.45936  0.25167  0.32650  Biso   1.000  N
  N63      1.0000 0.34723  0.28956  0.31500  Biso   1.000  N
  N64      1.0000 0.37910  0.21484  0.44210  Biso   1.000  N
  Zn16     1.0000 0.38975  0.23351  0.34348  Biso   1.000  Zn
  C97      1.0000 0.80730  0.84260  0.74920  Biso   1.000  C
  H113     1.0000 0.79700  0.86050  0.71070  Biso   1.000  H
  C98      1.0000 0.67450  0.85540  0.96550  Biso   1.000  C
  H114     1.0000 0.65050  0.84140  0.93750  Biso   1.000  H
  H115     1.0000 0.80440  0.91060  0.04140  Biso   1.000  H
  C99      1.0000 0.63920  0.89830  0.76170  Biso   1.000  C
  H116     1.0000 0.63720  0.93230  0.76070  Biso   1.000  H
  C100     1.0000 0.62960  0.88880  0.78290  Biso   1.000  C
  H117     1.0000 0.61390  0.90850  0.81540  Biso   1.000  H
  C101     1.0000 0.78360  0.97220  0.77250  Biso   1.000  C
  H118     1.0000 0.80100  0.95130  0.74320  Biso   1.000  H
  C102     1.0000 0.79910  0.97560  0.80900  Biso   1.000  C
  H119     1.0000 0.82580  0.95570  0.79910  Biso   1.000  H
  N65      1.0000 0.67684  0.86924  0.78479  Biso   1.000  N
  N66      1.0000 0.75167  0.95936  0.82650  Biso   1.000  N
  N67      1.0000 0.78956  0.84723  0.81500  Biso   1.000  N
  N68      1.0000 0.71484  0.87910  0.94210  Biso   1.000  N
  Zn17     1.0000 0.73351  0.88975  0.84348  Biso   1.000  Zn
  C103     1.0000 0.30730  0.34260  0.24920  Biso   1.000  C
  H120     1.0000 0.29700  0.36050  0.21070  Biso   1.000  H
  C104     1.0000 0.17450  0.35540  0.46550  Biso   1.000  C
  H121     1.0000 0.15050  0.34140  0.43750  Biso   1.000  H
  H122     1.0000 0.30440  0.41060  0.54140  Biso   1.000  H
  C105     1.0000 0.13920  0.39830  0.26170  Biso   1.000  C
  H123     1.0000 0.13720  0.43230  0.26070  Biso   1.000  H
  C106     1.0000 0.12960  0.38880  0.28290  Biso   1.000  C
  H124     1.0000 0.11390  0.40850  0.31540  Biso   1.000  H
  C107     1.0000 0.28360  0.47220  0.27250  Biso   1.000  C
  H125     1.0000 0.30100  0.45130  0.24320  Biso   1.000  H
  C108     1.0000 0.29910  0.47560  0.30900  Biso   1.000  C
  H126     1.0000 0.32580  0.45570  0.29910  Biso   1.000  H
  N69      1.0000 0.17684  0.36924  0.28479  Biso   1.000  N
  N70      1.0000 0.25167  0.45936  0.32650  Biso   1.000  N
  N71      1.0000 0.28956  0.34723  0.31500  Biso   1.000  N
  N72      1.0000 0.21484  0.37910  0.44210  Biso   1.000  N
  Zn18     1.0000 0.23351  0.38975  0.34348  Biso   1.000  Zn
  C109     1.0000 0.19270  0.15740  0.74920  Biso   1.000  C
  H127     1.0000 0.20300  0.13950  0.71070  Biso   1.000  H
  C110     1.0000 0.32550  0.14460  0.96550  Biso   1.000  C
  H128     1.0000 0.34950  0.15860  0.93750  Biso   1.000  H
  H129     1.0000 0.19560  0.08940  0.04140  Biso   1.000  H
  C111     1.0000 0.36080  0.10170  0.76170  Biso   1.000  C
  H130     1.0000 0.36280  0.06770  0.76070  Biso   1.000  H
  C112     1.0000 0.37040  0.11120  0.78290  Biso   1.000  C
  H131     1.0000 0.38610  0.09150  0.81540  Biso   1.000  H
  C113     1.0000 0.21640  0.02780  0.77250  Biso   1.000  C
  H132     1.0000 0.19900  0.04870  0.74320  Biso   1.000  H
  C114     1.0000 0.20090  0.02440  0.80900  Biso   1.000  C
  H133     1.0000 0.17420  0.04430  0.79910  Biso   1.000  H
  N73      1.0000 0.32316  0.13076  0.78479  Biso   1.000  N
  N74      1.0000 0.24833  0.04064  0.82650  Biso   1.000  N
  N75      1.0000 0.21044  0.15277  0.81500  Biso   1.000  N
  N76      1.0000 0.28516  0.12090  0.94210  Biso   1.000  N
  Zn19     1.0000 0.26649  0.11025  0.84348  Biso   1.000  Zn
  C115     1.0000 0.69270  0.65740  0.24920  Biso   1.000  C
  H134     1.0000 0.70300  0.63950  0.21070  Biso   1.000  H
  C116     1.0000 0.82550  0.64460  0.46550  Biso   1.000  C
  H135     1.0000 0.84950  0.65860  0.43750  Biso   1.000  H
  H136     1.0000 0.69560  0.58940  0.54140  Biso   1.000  H
  C117     1.0000 0.86080  0.60170  0.26170  Biso   1.000  C
  H137     1.0000 0.86280  0.56770  0.26070  Biso   1.000  H
  C118     1.0000 0.87040  0.61120  0.28290  Biso   1.000  C
  H138     1.0000 0.88610  0.59150  0.31540  Biso   1.000  H
  C119     1.0000 0.71640  0.52780  0.27250  Biso   1.000  C
  H139     1.0000 0.69900  0.54870  0.24320  Biso   1.000  H
  C120     1.0000 0.70090  0.52440  0.30900  Biso   1.000  C
  H140     1.0000 0.67420  0.54430  0.29910  Biso   1.000  H
  N77      1.0000 0.82316  0.63076  0.28479  Biso   1.000  N
  N78      1.0000 0.74833  0.54064  0.32650  Biso   1.000  N
  N79      1.0000 0.71044  0.65277  0.31500  Biso   1.000  N
  N80      1.0000 0.78516  0.62090  0.44210  Biso   1.000  N
  Zn20     1.0000 0.76649  0.61025  0.34348  Biso   1.000  Zn
  C121     1.0000 0.15740  0.80730  0.74920  Biso   1.000  C
  H141     1.0000 0.13950  0.79700  0.71070  Biso   1.000  H
  C122     1.0000 0.14460  0.67450  0.96550  Biso   1.000  C
  H142     1.0000 0.15860  0.65050  0.93750  Biso   1.000  H
  H143     1.0000 0.08940  0.80440  0.04140  Biso   1.000  H
  C123     1.0000 0.10170  0.63920  0.76170  Biso   1.000  C
  H144     1.0000 0.06770  0.63720  0.76070  Biso   1.000  H
  C124     1.0000 0.11120  0.62960  0.78290  Biso   1.000  C
  H145     1.0000 0.09150  0.61390  0.81540  Biso   1.000  H
  C125     1.0000 0.02780  0.78360  0.77250  Biso   1.000  C
  H146     1.0000 0.04870  0.80100  0.74320  Biso   1.000  H
  C126     1.0000 0.02440  0.79910  0.80900  Biso   1.000  C
  H147     1.0000 0.04430  0.82580  0.79910  Biso   1.000  H
  N81      1.0000 0.13076  0.67684  0.78479  Biso   1.000  N
  N82      1.0000 0.04064  0.75167  0.82650  Biso   1.000  N
  N83      1.0000 0.15277  0.78956  0.81500  Biso   1.000  N
  N84      1.0000 0.12090  0.71484  0.94210  Biso   1.000  N
  Zn21     1.0000 0.11025  0.73351  0.84348  Biso   1.000  Zn
  C127     1.0000 0.65740  0.30730  0.24920  Biso   1.000  C
  H148     1.0000 0.63950  0.29700  0.21070  Biso   1.000  H
  C128     1.0000 0.64460  0.17450  0.46550  Biso   1.000  C
  H149     1.0000 0.65860  0.15050  0.43750  Biso   1.000  H
  H150     1.0000 0.58940  0.30440  0.54140  Biso   1.000  H
  C129     1.0000 0.60170  0.13920  0.26170  Biso   1.000  C
  H151     1.0000 0.56770  0.13720  0.26070  Biso   1.000  H
  C130     1.0000 0.61120  0.12960  0.28290  Biso   1.000  C
  H152     1.0000 0.59150  0.11390  0.31540  Biso   1.000  H
  C131     1.0000 0.52780  0.28360  0.27250  Biso   1.000  C
  H153     1.0000 0.54870  0.30100  0.24320  Biso   1.000  H
  C132     1.0000 0.52440  0.29910  0.30900  Biso   1.000  C
  H154     1.0000 0.54430  0.32580  0.29910  Biso   1.000  H
  N85      1.0000 0.63076  0.17684  0.28479  Biso   1.000  N
  N86      1.0000 0.54064  0.25167  0.32650  Biso   1.000  N
  N87      1.0000 0.65277  0.28956  0.31500  Biso   1.000  N
  N88      1.0000 0.62090  0.21484  0.44210  Biso   1.000  N
  Zn22     1.0000 0.61025  0.23351  0.34348  Biso   1.000  Zn
  C133     1.0000 0.84260  0.19270  0.74920  Biso   1.000  C
  H155     1.0000 0.86050  0.20300  0.71070  Biso   1.000  H
  C134     1.0000 0.85540  0.32550  0.96550  Biso   1.000  C
  H156     1.0000 0.84140  0.34950  0.93750  Biso   1.000  H
  H157     1.0000 0.91060  0.19560  0.04140  Biso   1.000  H
  C135     1.0000 0.89830  0.36080  0.76170  Biso   1.000  C
  H158     1.0000 0.93230  0.36280  0.76070  Biso   1.000  H
  C136     1.0000 0.88880  0.37040  0.78290  Biso   1.000  C
  H159     1.0000 0.90850  0.38610  0.81540  Biso   1.000  H
  C137     1.0000 0.97220  0.21640  0.77250  Biso   1.000  C
  H160     1.0000 0.95130  0.19900  0.74320  Biso   1.000  H
  C138     1.0000 0.97560  0.20090  0.80900  Biso   1.000  C
  H161     1.0000 0.95570  0.17420  0.79910  Biso   1.000  H
  N89      1.0000 0.86924  0.32316  0.78479  Biso   1.000  N
  N90      1.0000 0.95936  0.24833  0.82650  Biso   1.000  N
  N91      1.0000 0.84723  0.21044  0.81500  Biso   1.000  N
  N92      1.0000 0.87910  0.28516  0.94210  Biso   1.000  N
  Zn23     1.0000 0.88975  0.26649  0.84348  Biso   1.000  Zn
  C139     1.0000 0.34260  0.69270  0.24920  Biso   1.000  C
  H162     1.0000 0.36050  0.70300  0.21070  Biso   1.000  H
  C140     1.0000 0.35540  0.82550  0.46550  Biso   1.000  C
  H163     1.0000 0.34140  0.84950  0.43750  Biso   1.000  H
  H164     1.0000 0.41060  0.69560  0.54140  Biso   1.000  H
  C141     1.0000 0.39830  0.86080  0.26170  Biso   1.000  C
  H165     1.0000 0.43230  0.86280  0.26070  Biso   1.000  H
  C142     1.0000 0.38880  0.87040  0.28290  Biso   1.000  C
  H166     1.0000 0.40850  0.88610  0.31540  Biso   1.000  H
  C143     1.0000 0.47220  0.71640  0.27250  Biso   1.000  C
  H167     1.0000 0.45130  0.69900  0.24320  Biso   1.000  H
  C144     1.0000 0.47560  0.70090  0.30900  Biso   1.000  C
  H168     1.0000 0.45570  0.67420  0.29910  Biso   1.000  H
  N93      1.0000 0.36924  0.82316  0.28479  Biso   1.000  N
  N94      1.0000 0.45936  0.74833  0.32650  Biso   1.000  N
  N95      1.0000 0.34723  0.71044  0.31500  Biso   1.000  N
  N96      1.0000 0.37910  0.78516  0.44210  Biso   1.000  N
  Zn24     1.0000 0.38975  0.76649  0.34348  Biso   1.000  Zn
  C145     1.0000 0.19270  0.84260  0.25080  Biso   1.000  C
  H169     1.0000 0.20300  0.86050  0.28930  Biso   1.000  H
  C146     1.0000 0.32550  0.85540  0.03450  Biso   1.000  C
  H170     1.0000 0.34950  0.84140  0.06250  Biso   1.000  H
  H171     1.0000 0.19560  0.91060  0.95860  Biso   1.000  H
  C147     1.0000 0.36080  0.89830  0.23830  Biso   1.000  C
  H172     1.0000 0.36280  0.93230  0.23930  Biso   1.000  H
  C148     1.0000 0.37040  0.88880  0.21710  Biso   1.000  C
  H173     1.0000 0.38610  0.90850  0.18460  Biso   1.000  H
  C149     1.0000 0.21640  0.97220  0.22750  Biso   1.000  C
  H174     1.0000 0.19900  0.95130  0.25680  Biso   1.000  H
  C150     1.0000 0.20090  0.97560  0.19100  Biso   1.000  C
  H175     1.0000 0.17420  0.95570  0.20090  Biso   1.000  H
  N97      1.0000 0.32316  0.86924  0.21521  Biso   1.000  N
  N98      1.0000 0.24833  0.95936  0.17350  Biso   1.000  N
  N99      1.0000 0.21044  0.84723  0.18500  Biso   1.000  N
  N100     1.0000 0.28516  0.87910  0.05790  Biso   1.000  N
  Zn25     1.0000 0.26649  0.88975  0.15652  Biso   1.000  Zn
  C151     1.0000 0.69270  0.34260  0.75080  Biso   1.000  C
  H176     1.0000 0.70300  0.36050  0.78930  Biso   1.000  H
  C152     1.0000 0.82550  0.35540  0.53450  Biso   1.000  C
  H177     1.0000 0.84950  0.34140  0.56250  Biso   1.000  H
  H178     1.0000 0.69560  0.41060  0.45860  Biso   1.000  H
  C153     1.0000 0.86080  0.39830  0.73830  Biso   1.000  C
  H179     1.0000 0.86280  0.43230  0.73930  Biso   1.000  H
  C154     1.0000 0.87040  0.38880  0.71710  Biso   1.000  C
  H180     1.0000 0.88610  0.40850  0.68460  Biso   1.000  H
  C155     1.0000 0.71640  0.47220  0.72750  Biso   1.000  C
  H181     1.0000 0.69900  0.45130  0.75680  Biso   1.000  H
  C156     1.0000 0.70090  0.47560  0.69100  Biso   1.000  C
  H182     1.0000 0.67420  0.45570  0.70090  Biso   1.000  H
  N101     1.0000 0.82316  0.36924  0.71521  Biso   1.000  N
  N102     1.0000 0.74833  0.45936  0.67350  Biso   1.000  N
  N103     1.0000 0.71044  0.34723  0.68500  Biso   1.000  N
  N104     1.0000 0.78516  0.37910  0.55790  Biso   1.000  N
  Zn26     1.0000 0.76649  0.38975  0.65652  Biso   1.000  Zn
  C157     1.0000 0.80730  0.15740  0.25080  Biso   1.000  C
  H183     1.0000 0.79700  0.13950  0.28930  Biso   1.000  H
  C158     1.0000 0.67450  0.14460  0.03450  Biso   1.000  C
  H184     1.0000 0.65050  0.15860  0.06250  Biso   1.000  H
  H185     1.0000 0.80440  0.08940  0.95860  Biso   1.000  H
  C159     1.0000 0.63920  0.10170  0.23830  Biso   1.000  C
  H186     1.0000 0.63720  0.06770  0.23930  Biso   1.000  H
  C160     1.0000 0.62960  0.11120  0.21710  Biso   1.000  C
  H187     1.0000 0.61390  0.09150  0.18460  Biso   1.000  H
  C161     1.0000 0.78360  0.02780  0.22750  Biso   1.000  C
  H188     1.0000 0.80100  0.04870  0.25680  Biso   1.000  H
  C162     1.0000 0.79910  0.02440  0.19100  Biso   1.000  C
  H189     1.0000 0.82580  0.04430  0.20090  Biso   1.000  H
  N105     1.0000 0.67684  0.13076  0.21521  Biso   1.000  N
  N106     1.0000 0.75167  0.04064  0.17350  Biso   1.000  N
  N107     1.0000 0.78956  0.15277  0.18500  Biso   1.000  N
  N108     1.0000 0.71484  0.12090  0.05790  Biso   1.000  N
  Zn27     1.0000 0.73351  0.11025  0.15652  Biso   1.000  Zn
  C163     1.0000 0.30730  0.65740  0.75080  Biso   1.000  C
  H190     1.0000 0.29700  0.63950  0.78930  Biso   1.000  H
  C164     1.0000 0.17450  0.64460  0.53450  Biso   1.000  C
  H191     1.0000 0.15050  0.65860  0.56250  Biso   1.000  H
  H192     1.0000 0.30440  0.58940  0.45860  Biso   1.000  H
  C165     1.0000 0.13920  0.60170  0.73830  Biso   1.000  C
  H193     1.0000 0.13720  0.56770  0.73930  Biso   1.000  H
  C166     1.0000 0.12960  0.61120  0.71710  Biso   1.000  C
  H194     1.0000 0.11390  0.59150  0.68460  Biso   1.000  H
  C167     1.0000 0.28360  0.52780  0.72750  Biso   1.000  C
  H195     1.0000 0.30100  0.54870  0.75680  Biso   1.000  H
  C168     1.0000 0.29910  0.52440  0.69100  Biso   1.000  C
  H196     1.0000 0.32580  0.54430  0.70090  Biso   1.000  H
  N109     1.0000 0.17684  0.63076  0.71521  Biso   1.000  N
  N110     1.0000 0.25167  0.54064  0.67350  Biso   1.000  N
  N111     1.0000 0.28956  0.65277  0.68500  Biso   1.000  N
  N112     1.0000 0.21484  0.62090  0.55790  Biso   1.000  N
  Zn28     1.0000 0.23351  0.61025  0.65652  Biso   1.000  Zn
  C169     1.0000 0.84260  0.80730  0.25080  Biso   1.000  C
  H197     1.0000 0.86050  0.79700  0.28930  Biso   1.000  H
  C170     1.0000 0.85540  0.67450  0.03450  Biso   1.000  C
  H198     1.0000 0.84140  0.65050  0.06250  Biso   1.000  H
  H199     1.0000 0.91060  0.80440  0.95860  Biso   1.000  H
  C171     1.0000 0.89830  0.63920  0.23830  Biso   1.000  C
  H200     1.0000 0.93230  0.63720  0.23930  Biso   1.000  H
  C172     1.0000 0.88880  0.62960  0.21710  Biso   1.000  C
  H201     1.0000 0.90850  0.61390  0.18460  Biso   1.000  H
  C173     1.0000 0.97220  0.78360  0.22750  Biso   1.000  C
  H202     1.0000 0.95130  0.80100  0.25680  Biso   1.000  H
  C174     1.0000 0.97560  0.79910  0.19100  Biso   1.000  C
  H203     1.0000 0.95570  0.82580  0.20090  Biso   1.000  H
  N113     1.0000 0.86924  0.67684  0.21521  Biso   1.000  N
  N114     1.0000 0.95936  0.75167  0.17350  Biso   1.000  N
  N115     1.0000 0.84723  0.78956  0.18500  Biso   1.000  N
  N116     1.0000 0.87910  0.71484  0.05790  Biso   1.000  N
  Zn29     1.0000 0.88975  0.73351  0.15652  Biso   1.000  Zn
  C175     1.0000 0.34260  0.30730  0.75080  Biso   1.000  C
  H204     1.0000 0.36050  0.29700  0.78930  Biso   1.000  H
  C176     1.0000 0.35540  0.17450  0.53450  Biso   1.000  C
  H205     1.0000 0.34140  0.15050  0.56250  Biso   1.000  H
  H206     1.0000 0.41060  0.30440  0.45860  Biso   1.000  H
  C177     1.0000 0.39830  0.13920  0.73830  Biso   1.000  C
  H207     1.0000 0.43230  0.13720  0.73930  Biso   1.000  H
  C178     1.0000 0.38880  0.12960  0.71710  Biso   1.000  C
  H208     1.0000 0.40850  0.11390  0.68460  Biso   1.000  H
  C179     1.0000 0.47220  0.28360  0.72750  Biso   1.000  C
  H209     1.0000 0.45130  0.30100  0.75680  Biso   1.000  H
  C180     1.0000 0.47560  0.29910  0.69100  Biso   1.000  C
  H210     1.0000 0.45570  0.32580  0.70090  Biso   1.000  H
  N117     1.0000 0.36924  0.17684  0.71521  Biso   1.000  N
  N118     1.0000 0.45936  0.25167  0.67350  Biso   1.000  N
  N119     1.0000 0.34723  0.28956  0.68500  Biso   1.000  N
  N120     1.0000 0.37910  0.21484  0.55790  Biso   1.000  N
  Zn30     1.0000 0.38975  0.23351  0.65652  Biso   1.000  Zn
  C181     1.0000 0.15740  0.19270  0.25080  Biso   1.000  C
  H211     1.0000 0.13950  0.20300  0.28930  Biso   1.000  H
  C182     1.0000 0.14460  0.32550  0.03450  Biso   1.000  C
  H212     1.0000 0.15860  0.34950  0.06250  Biso   1.000  H
  H213     1.0000 0.08940  0.19560  0.95860  Biso   1.000  H
  C183     1.0000 0.10170  0.36080  0.23830  Biso   1.000  C
  H214     1.0000 0.06770  0.36280  0.23930  Biso   1.000  H
  C184     1.0000 0.11120  0.37040  0.21710  Biso   1.000  C
  H215     1.0000 0.09150  0.38610  0.18460  Biso   1.000  H
  C185     1.0000 0.02780  0.21640  0.22750  Biso   1.000  C
  H216     1.0000 0.04870  0.19900  0.25680  Biso   1.000  H
  C186     1.0000 0.02440  0.20090  0.19100  Biso   1.000  C
  H217     1.0000 0.04430  0.17420  0.20090  Biso   1.000  H
  N121     1.0000 0.13076  0.32316  0.21521  Biso   1.000  N
  N122     1.0000 0.04064  0.24833  0.17350  Biso   1.000  N
  N123     1.0000 0.15277  0.21044  0.18500  Biso   1.000  N
  N124     1.0000 0.12090  0.28516  0.05790  Biso   1.000  N
  Zn31     1.0000 0.11025  0.26649  0.15652  Biso   1.000  Zn
  C187     1.0000 0.65740  0.69270  0.75080  Biso   1.000  C
  H218     1.0000 0.63950  0.70300  0.78930  Biso   1.000  H
  C188     1.0000 0.64460  0.82550  0.53450  Biso   1.000  C
  H219     1.0000 0.65860  0.84950  0.56250  Biso   1.000  H
  H220     1.0000 0.58940  0.69560  0.45860  Biso   1.000  H
  C189     1.0000 0.60170  0.86080  0.73830  Biso   1.000  C
  H221     1.0000 0.56770  0.86280  0.73930  Biso   1.000  H
  C190     1.0000 0.61120  0.87040  0.71710  Biso   1.000  C
  H222     1.0000 0.59150  0.88610  0.68460  Biso   1.000  H
  C191     1.0000 0.52780  0.71640  0.72750  Biso   1.000  C
  H223     1.0000 0.54870  0.69900  0.75680  Biso   1.000  H
  C192     1.0000 0.52440  0.70090  0.69100  Biso   1.000  C
  H224     1.0000 0.54430  0.67420  0.70090  Biso   1.000  H
  N125     1.0000 0.63076  0.82316  0.71521  Biso   1.000  N
  N126     1.0000 0.54064  0.74833  0.67350  Biso   1.000  N
  N127     1.0000 0.65277  0.71044  0.68500  Biso   1.000  N
  N128     1.0000 0.62090  0.78516  0.55790  Biso   1.000  N
  Zn32     1.0000 0.61025  0.76649  0.65652  Biso   1.000  Zn
  C193     1.0000 0.32762  0.17238  0.25000  Biso   1.000  C
  H225     1.0000 0.30350  0.19650  0.25000  Biso   1.000  H
  C194     1.0000 0.67238  0.82762  0.25000  Biso   1.000  C
  H226     1.0000 0.69650  0.80350  0.25000  Biso   1.000  H
  C195     1.0000 0.82762  0.32762  0.25000  Biso   1.000  C
  H227     1.0000 0.80350  0.30350  0.25000  Biso   1.000  H
  C196     1.0000 0.17238  0.67238  0.25000  Biso   1.000  C
  H228     1.0000 0.19650  0.69650  0.25000  Biso   1.000  H
  C197     1.0000 0.67238  0.17238  0.75000  Biso   1.000  C
  H229     1.0000 0.69650  0.19650  0.75000  Biso   1.000  H
  C198     1.0000 0.32762  0.82762  0.75000  Biso   1.000  C
  H230     1.0000 0.30350  0.80350  0.75000  Biso   1.000  H
  C199     1.0000 0.17238  0.32762  0.75000  Biso   1.000  C
  H231     1.0000 0.19650  0.30350  0.75000  Biso   1.000  H
  C200     1.0000 0.82762  0.67238  0.75000  Biso   1.000  C
  H232     1.0000 0.80350  0.69650  0.75000  Biso   1.000  H
  C201     1.0000 0.67238  0.82762  0.75000  Biso   1.000  C
  H233     1.0000 0.69650  0.80350  0.75000  Biso   1.000  H
  C202     1.0000 0.17238  0.32762  0.25000  Biso   1.000  C
  H234     1.0000 0.19650  0.30350  0.25000  Biso   1.000  H
  C203     1.0000 0.32762  0.17238  0.75000  Biso   1.000  C
  H235     1.0000 0.30350  0.19650  0.75000  Biso   1.000  H
  C204     1.0000 0.17238  0.67238  0.75000  Biso   1.000  C
  H236     1.0000 0.19650  0.69650  0.75000  Biso   1.000  H
  C205     1.0000 0.82762  0.32762  0.75000  Biso   1.000  C
  H237     1.0000 0.80350  0.30350  0.75000  Biso   1.000  H
  C206     1.0000 0.32762  0.82762  0.25000  Biso   1.000  C
  H238     1.0000 0.30350  0.80350  0.25000  Biso   1.000  H
  C207     1.0000 0.67238  0.17238  0.25000  Biso   1.000  C
  H239     1.0000 0.69650  0.19650  0.25000  Biso   1.000  H
  C208     1.0000 0.82762  0.67238  0.25000  Biso   1.000  C
  H240     1.0000 0.80350  0.69650  0.25000  Biso   1.000  H
  C209     1.0000 0.26800  0.00000  0.15360  Biso   1.000  C
  H241     1.0000 0.29580  0.00000  0.12550  Biso   1.000  H
  C210     1.0000 0.76800  0.50000  0.65360  Biso   1.000  C
  H242     1.0000 0.79580  0.50000  0.62550  Biso   1.000  H
  C211     1.0000 0.73200  0.00000  0.15360  Biso   1.000  C
  H243     1.0000 0.70420  0.00000  0.12550  Biso   1.000  H
  C212     1.0000 0.23200  0.50000  0.65360  Biso   1.000  C
  H244     1.0000 0.20420  0.50000  0.62550  Biso   1.000  H
  C213     1.0000 0.00000  0.26800  0.15360  Biso   1.000  C
  H245     1.0000 0.00000  0.29580  0.12550  Biso   1.000  H
  C214     1.0000 0.50000  0.76800  0.65360  Biso   1.000  C
  H246     1.0000 0.50000  0.79580  0.62550  Biso   1.000  H
  C215     1.0000 0.00000  0.73200  0.15360  Biso   1.000  C
  H247     1.0000 0.00000  0.70420  0.12550  Biso   1.000  H
  C216     1.0000 0.50000  0.23200  0.65360  Biso   1.000  C
  H248     1.0000 0.50000  0.20420  0.62550  Biso   1.000  H
  C217     1.0000 0.73200  0.00000  0.84640  Biso   1.000  C
  H249     1.0000 0.70420  0.00000  0.87450  Biso   1.000  H
  C218     1.0000 0.23200  0.50000  0.34640  Biso   1.000  C
  H250     1.0000 0.20420  0.50000  0.37450  Biso   1.000  H
  C219     1.0000 0.26800  0.00000  0.84640  Biso   1.000  C
  H251     1.0000 0.29580  0.00000  0.87450  Biso   1.000  H
  C220     1.0000 0.76800  0.50000  0.34640  Biso   1.000  C
  H252     1.0000 0.79580  0.50000  0.37450  Biso   1.000  H
  C221     1.0000 0.00000  0.26800  0.84640  Biso   1.000  C
  H253     1.0000 0.00000  0.29580  0.87450  Biso   1.000  H
  C222     1.0000 0.50000  0.76800  0.34640  Biso   1.000  C
  H254     1.0000 0.50000  0.79580  0.37450  Biso   1.000  H
  C223     1.0000 0.00000  0.73200  0.84640  Biso   1.000  C
  H255     1.0000 0.00000  0.70420  0.87450  Biso   1.000  H
  C224     1.0000 0.50000  0.23200  0.34640  Biso   1.000  C
  H256     1.0000 0.50000  0.20420  0.37450  Biso   1.000  H
  C225     1.0000 0.18685  0.18685  0.14900  Biso   1.000  C
  H257     1.0000 0.19360  0.19360  0.10260  Biso   1.000  H
  C226     1.0000 0.68685  0.68685  0.64900  Biso   1.000  C
  H258     1.0000 0.69360  0.69360  0.60260  Biso   1.000  H
  C227     1.0000 0.81315  0.81315  0.14900  Biso   1.000  C
  H259     1.0000 0.80640  0.80640  0.10260  Biso   1.000  H
  C228     1.0000 0.31315  0.31315  0.64900  Biso   1.000  C
  H260     1.0000 0.30640  0.30640  0.60260  Biso   1.000  H
  C229     1.0000 0.81315  0.18685  0.14900  Biso   1.000  C
  H261     1.0000 0.80640  0.19360  0.10260  Biso   1.000  H
  C230     1.0000 0.31315  0.68685  0.64900  Biso   1.000  C
  H262     1.0000 0.30640  0.69360  0.60260  Biso   1.000  H
  C231     1.0000 0.18685  0.81315  0.14900  Biso   1.000  C
  H263     1.0000 0.19360  0.80640  0.10260  Biso   1.000  H
  C232     1.0000 0.68685  0.31315  0.64900  Biso   1.000  C
  H264     1.0000 0.69360  0.30640  0.60260  Biso   1.000  H
  C233     1.0000 0.81315  0.18685  0.85100  Biso   1.000  C
  H265     1.0000 0.80640  0.19360  0.89740  Biso   1.000  H
  C234     1.0000 0.31315  0.68685  0.35100  Biso   1.000  C
  H266     1.0000 0.30640  0.69360  0.39740  Biso   1.000  H
  C235     1.0000 0.18685  0.81315  0.85100  Biso   1.000  C
  H267     1.0000 0.19360  0.80640  0.89740  Biso   1.000  H
  C236     1.0000 0.68685  0.31315  0.35100  Biso   1.000  C
  H268     1.0000 0.69360  0.30640  0.39740  Biso   1.000  H
  C237     1.0000 0.18685  0.18685  0.85100  Biso   1.000  C
  H269     1.0000 0.19360  0.19360  0.89740  Biso   1.000  H
  C238     1.0000 0.68685  0.68685  0.35100  Biso   1.000  C
  H270     1.0000 0.69360  0.69360  0.39740  Biso   1.000  H
  C239     1.0000 0.81315  0.81315  0.85100  Biso   1.000  C
  H271     1.0000 0.80640  0.80640  0.89740  Biso   1.000  H
  C240     1.0000 0.31315  0.31315  0.35100  Biso   1.000  C
  H272     1.0000 0.30640  0.30640  0.39740  Biso   1.000  H
  C241     1.0000 0.26190  0.10700  0.00000  Biso   1.000  C
  C242     1.0000 0.21340  0.08100  0.00000  Biso   1.000  C
  H273     1.0000 0.21880  0.04620  0.00000  Biso   1.000  H
  C243     1.0000 0.76190  0.60700  0.50000  Biso   1.000  C
  C244     1.0000 0.71340  0.58100  0.50000  Biso   1.000  C
  H274     1.0000 0.71880  0.54620  0.50000  Biso   1.000  H
  C245     1.0000 0.73810  0.89300  0.00000  Biso   1.000  C
  C246     1.0000 0.78660  0.91900  0.00000  Biso   1.000  C
  H275     1.0000 0.78120  0.95380  0.00000  Biso   1.000  H
  C247     1.0000 0.23810  0.39300  0.50000  Biso   1.000  C
  C248     1.0000 0.28660  0.41900  0.50000  Biso   1.000  C
  H276     1.0000 0.28120  0.45380  0.50000  Biso   1.000  H
  C249     1.0000 0.89300  0.26190  0.00000  Biso   1.000  C
  C250     1.0000 0.91900  0.21340  0.00000  Biso   1.000  C
  H277     1.0000 0.95380  0.21880  0.00000  Biso   1.000  H
  C251     1.0000 0.39300  0.76190  0.50000  Biso   1.000  C
  C252     1.0000 0.41900  0.71340  0.50000  Biso   1.000  C
  H278     1.0000 0.45380  0.71880  0.50000  Biso   1.000  H
  C253     1.0000 0.10700  0.73810  0.00000  Biso   1.000  C
  C254     1.0000 0.08100  0.78660  0.00000  Biso   1.000  C
  H279     1.0000 0.04620  0.78120  0.00000  Biso   1.000  H
  C255     1.0000 0.60700  0.23810  0.50000  Biso   1.000  C
  C256     1.0000 0.58100  0.28660  0.50000  Biso   1.000  C
  H280     1.0000 0.54620  0.28120  0.50000  Biso   1.000  H
  C257     1.0000 0.73810  0.10700  0.00000  Biso   1.000  C
  C258     1.0000 0.78660  0.08100  0.00000  Biso   1.000  C
  H281     1.0000 0.78120  0.04620  0.00000  Biso   1.000  H
  C259     1.0000 0.23810  0.60700  0.50000  Biso   1.000  C
  C260     1.0000 0.28660  0.58100  0.50000  Biso   1.000  C
  H282     1.0000 0.28120  0.54620  0.50000  Biso   1.000  H
  C261     1.0000 0.26190  0.89300  0.00000  Biso   1.000  C
  C262     1.0000 0.21340  0.91900  0.00000  Biso   1.000  C
  H283     1.0000 0.21880  0.95380  0.00000  Biso   1.000  H
  C263     1.0000 0.76190  0.39300  0.50000  Biso   1.000  C
  C264     1.0000 0.71340  0.41900  0.50000  Biso   1.000  C
  H284     1.0000 0.71880  0.45380  0.50000  Biso   1.000  H
  C265     1.0000 0.10700  0.26190  0.00000  Biso   1.000  C
  C266     1.0000 0.08100  0.21340  0.00000  Biso   1.000  C
  H285     1.0000 0.04620  0.21880  0.00000  Biso   1.000  H
  C267     1.0000 0.60700  0.76190  0.50000  Biso   1.000  C
  C268     1.0000 0.58100  0.71340  0.50000  Biso   1.000  C
  H286     1.0000 0.54620  0.71880  0.50000  Biso   1.000  H
  C269     1.0000 0.89300  0.73810  0.00000  Biso   1.000  C
  C270     1.0000 0.91900  0.78660  0.00000  Biso   1.000  C
  H287     1.0000 0.95380  0.78120  0.00000  Biso   1.000  H
  C271     1.0000 0.39300  0.23810  0.50000  Biso   1.000  C
  C272     1.0000 0.41900  0.28660  0.50000  Biso   1.000  C
  H288     1.0000 0.45380  0.28120  0.50000  Biso   1.000  H
