data_image0
_cell_length_a       26.084
_cell_length_b       26.084
_cell_length_c       19.4082
_cell_angle_alpha    90
_cell_angle_beta     90
_cell_angle_gamma    120

_symmetry_space_group_name_H-M    "P 1"
_symmetry_int_tables_number       1

loop_
  _symmetry_equiv_pos_as_xyz
  'x, y, z'

loop_
  _atom_site_label
  _atom_site_occupancy
  _atom_site_fract_x
  _atom_site_fract_y
  _atom_site_fract_z
  _atom_site_thermal_displace_type
  _atom_site_B_iso_or_equiv
  _atom_site_type_symbol
  Zn1      1.0000 0.43520  0.33202  0.40427  Biso   1.000  Zn
  N1       1.0000 0.37930  0.33480  0.47480  Biso   1.000  N
  N2       1.0000 0.37220  0.34110  0.44980  Biso   1.000  N
  C1       1.0000 0.31820  0.29570  0.47440  Biso   1.000  C
  C2       1.0000 0.22860  0.20570  0.47590  Biso   1.000  C
  H1       1.0000 0.20480  0.16600  0.46050  Biso   1.000  H
  C3       1.0000 0.28480  0.23930  0.45050  Biso   1.000  C
  H2       1.0000 0.30010  0.22380  0.41710  Biso   1.000  H
  Cl1      1.0000 0.17780  0.13600  0.45300  Biso   1.000  Cl
  N3       1.0000 0.51580  0.39930  0.42880  Biso   1.000  N
  O1       1.0000 0.46660  0.45250  0.37740  Biso   1.000  O
  O2       1.0000 0.47560  0.44280  0.32200  Biso   1.000  O
  C4       1.0000 0.54370  0.40120  0.48110  Biso   1.000  C
  H3       1.0000 0.53100  0.37130  0.51540  Biso   1.000  H
  C5       1.0000 0.56190  0.38710  0.46090  Biso   1.000  C
  H4       1.0000 0.55550  0.35010  0.47770  Biso   1.000  H
  N4       1.0000 0.40540  0.32230  0.30830  Biso   1.000  N
  O3       1.0000 0.51020  0.32490  0.30470  Biso   1.000  O
  C6       1.0000 0.35640  0.32110  0.28630  Biso   1.000  C
  H5       1.0000 0.32650  0.32040  0.31480  Biso   1.000  H
  N5       1.0000 0.43140  0.25870  0.43940  Biso   1.000  N
  C7       1.0000 0.42550  0.23900  0.50580  Biso   1.000  C
  C8       1.0000 0.41530  0.23390  0.62510  Biso   1.000  C
  H6       1.0000 0.41230  0.24950  0.66810  Biso   1.000  H
  C9       1.0000 0.41950  0.26540  0.56650  Biso   1.000  C
  H7       1.0000 0.41840  0.30120  0.56680  Biso   1.000  H
  Cl2      1.0000 0.40740  0.28000  0.69750  Biso   1.000  Cl
  Zn2      1.0000 0.66798  0.10318  0.40427  Biso   1.000  Zn
  N6       1.0000 0.66520  0.04450  0.47480  Biso   1.000  N
  N7       1.0000 0.65890  0.03110  0.44980  Biso   1.000  N
  C10      1.0000 0.70430  0.02250  0.47440  Biso   1.000  C
  C11      1.0000 0.79430  0.02290  0.47590  Biso   1.000  C
  H8       1.0000 0.83400  0.03880  0.46050  Biso   1.000  H
  C12      1.0000 0.76070  0.04550  0.45050  Biso   1.000  C
  H9       1.0000 0.77620  0.07630  0.41710  Biso   1.000  H
  Cl3      1.0000 0.86400  0.04180  0.45300  Biso   1.000  Cl
  N8       1.0000 0.60070  0.11650  0.42880  Biso   1.000  N
  O4       1.0000 0.54750  0.01410  0.37740  Biso   1.000  O
  O5       1.0000 0.55720  0.03280  0.32200  Biso   1.000  O
  C13      1.0000 0.59880  0.14250  0.48110  Biso   1.000  C
  H10      1.0000 0.62870  0.15970  0.51540  Biso   1.000  H
  C14      1.0000 0.61290  0.17480  0.46090  Biso   1.000  C
  H11      1.0000 0.64990  0.20540  0.47770  Biso   1.000  H
  N9       1.0000 0.67770  0.08310  0.30830  Biso   1.000  N
  O6       1.0000 0.67510  0.18530  0.30470  Biso   1.000  O
  C15      1.0000 0.67890  0.03530  0.28630  Biso   1.000  C
  H12      1.0000 0.67960  0.00610  0.31480  Biso   1.000  H
  N10      1.0000 0.74130  0.17270  0.43940  Biso   1.000  N
  C16      1.0000 0.76100  0.18650  0.50580  Biso   1.000  C
  C17      1.0000 0.76610  0.18140  0.62510  Biso   1.000  C
  H13      1.0000 0.75050  0.16280  0.66810  Biso   1.000  H
  C18      1.0000 0.73460  0.15410  0.56650  Biso   1.000  C
  H14      1.0000 0.69880  0.11720  0.56680  Biso   1.000  H
  Cl4      1.0000 0.72000  0.12740  0.69750  Biso   1.000  Cl
  Zn3      1.0000 0.89682  0.56480  0.40427  Biso   1.000  Zn
  N11      1.0000 0.95550  0.62070  0.47480  Biso   1.000  N
  N12      1.0000 0.96890  0.62780  0.44980  Biso   1.000  N
  C19      1.0000 0.97750  0.68180  0.47440  Biso   1.000  C
  C20      1.0000 0.97710  0.77140  0.47590  Biso   1.000  C
  H15      1.0000 0.96120  0.79520  0.46050  Biso   1.000  H
  C21      1.0000 0.95450  0.71520  0.45050  Biso   1.000  C
  H16      1.0000 0.92370  0.69990  0.41710  Biso   1.000  H
  Cl5      1.0000 0.95820  0.82220  0.45300  Biso   1.000  Cl
  N13      1.0000 0.88350  0.48420  0.42880  Biso   1.000  N
  O7       1.0000 0.98590  0.53340  0.37740  Biso   1.000  O
  O8       1.0000 0.96720  0.52440  0.32200  Biso   1.000  O
  C22      1.0000 0.85750  0.45630  0.48110  Biso   1.000  C
  H17      1.0000 0.84030  0.46900  0.51540  Biso   1.000  H
  C23      1.0000 0.82520  0.43810  0.46090  Biso   1.000  C
  H18      1.0000 0.79460  0.44450  0.47770  Biso   1.000  H
  N14      1.0000 0.91690  0.59460  0.30830  Biso   1.000  N
  O9       1.0000 0.81470  0.48980  0.30470  Biso   1.000  O
  C24      1.0000 0.96470  0.64360  0.28630  Biso   1.000  C
  H19      1.0000 0.99390  0.67350  0.31480  Biso   1.000  H
  N15      1.0000 0.82730  0.56860  0.43940  Biso   1.000  N
  C25      1.0000 0.81350  0.57450  0.50580  Biso   1.000  C
  C26      1.0000 0.81860  0.58470  0.62510  Biso   1.000  C
  H20      1.0000 0.83720  0.58770  0.66810  Biso   1.000  H
  C27      1.0000 0.84590  0.58050  0.56650  Biso   1.000  C
  H21      1.0000 0.88280  0.58160  0.56680  Biso   1.000  H
  Cl6      1.0000 0.87260  0.59260  0.69750  Biso   1.000  Cl
  Zn4      1.0000 0.56480  0.66798  0.90427  Biso   1.000  Zn
  N16      1.0000 0.62070  0.66520  0.97480  Biso   1.000  N
  N17      1.0000 0.62780  0.65890  0.94980  Biso   1.000  N
  C28      1.0000 0.68180  0.70430  0.97440  Biso   1.000  C
  C29      1.0000 0.77140  0.79430  0.97590  Biso   1.000  C
  H22      1.0000 0.79520  0.83400  0.96050  Biso   1.000  H
  C30      1.0000 0.71520  0.76070  0.95050  Biso   1.000  C
  H23      1.0000 0.69990  0.77620  0.91710  Biso   1.000  H
  Cl7      1.0000 0.82220  0.86400  0.95300  Biso   1.000  Cl
  N18      1.0000 0.48420  0.60070  0.92880  Biso   1.000  N
  O10      1.0000 0.53340  0.54750  0.87740  Biso   1.000  O
  O11      1.0000 0.52440  0.55720  0.82200  Biso   1.000  O
  C31      1.0000 0.45630  0.59880  0.98110  Biso   1.000  C
  H24      1.0000 0.46900  0.62870  0.01540  Biso   1.000  H
  C32      1.0000 0.43810  0.61290  0.96090  Biso   1.000  C
  H25      1.0000 0.44450  0.64990  0.97770  Biso   1.000  H
  N19      1.0000 0.59460  0.67770  0.80830  Biso   1.000  N
  O12      1.0000 0.48980  0.67510  0.80470  Biso   1.000  O
  C33      1.0000 0.64360  0.67890  0.78630  Biso   1.000  C
  H26      1.0000 0.67350  0.67960  0.81480  Biso   1.000  H
  N20      1.0000 0.56860  0.74130  0.93940  Biso   1.000  N
  C34      1.0000 0.57450  0.76100  0.00580  Biso   1.000  C
  C35      1.0000 0.58470  0.76610  0.12510  Biso   1.000  C
  H27      1.0000 0.58770  0.75050  0.16810  Biso   1.000  H
  C36      1.0000 0.58050  0.73460  0.06650  Biso   1.000  C
  H28      1.0000 0.58160  0.69880  0.06680  Biso   1.000  H
  Cl8      1.0000 0.59260  0.72000  0.19750  Biso   1.000  Cl
  Zn5      1.0000 0.33202  0.89682  0.90427  Biso   1.000  Zn
  N21      1.0000 0.33480  0.95550  0.97480  Biso   1.000  N
  N22      1.0000 0.34110  0.96890  0.94980  Biso   1.000  N
  C37      1.0000 0.29570  0.97750  0.97440  Biso   1.000  C
  C38      1.0000 0.20570  0.97710  0.97590  Biso   1.000  C
  H29      1.0000 0.16600  0.96120  0.96050  Biso   1.000  H
  C39      1.0000 0.23930  0.95450  0.95050  Biso   1.000  C
  H30      1.0000 0.22380  0.92370  0.91710  Biso   1.000  H
  Cl9      1.0000 0.13600  0.95820  0.95300  Biso   1.000  Cl
  N23      1.0000 0.39930  0.88350  0.92880  Biso   1.000  N
  O13      1.0000 0.45250  0.98590  0.87740  Biso   1.000  O
  O14      1.0000 0.44280  0.96720  0.82200  Biso   1.000  O
  C40      1.0000 0.40120  0.85750  0.98110  Biso   1.000  C
  H31      1.0000 0.37130  0.84030  0.01540  Biso   1.000  H
  C41      1.0000 0.38710  0.82520  0.96090  Biso   1.000  C
  H32      1.0000 0.35010  0.79460  0.97770  Biso   1.000  H
  N24      1.0000 0.32230  0.91690  0.80830  Biso   1.000  N
  O15      1.0000 0.32490  0.81470  0.80470  Biso   1.000  O
  C42      1.0000 0.32110  0.96470  0.78630  Biso   1.000  C
  H33      1.0000 0.32040  0.99390  0.81480  Biso   1.000  H
  N25      1.0000 0.25870  0.82730  0.93940  Biso   1.000  N
  C43      1.0000 0.23900  0.81350  0.00580  Biso   1.000  C
  C44      1.0000 0.23390  0.81860  0.12510  Biso   1.000  C
  H34      1.0000 0.24950  0.83720  0.16810  Biso   1.000  H
  C45      1.0000 0.26540  0.84590  0.06650  Biso   1.000  C
  H35      1.0000 0.30120  0.88280  0.06680  Biso   1.000  H
  Cl10     1.0000 0.28000  0.87260  0.19750  Biso   1.000  Cl
  Zn6      1.0000 0.10318  0.43520  0.90427  Biso   1.000  Zn
  N26      1.0000 0.04450  0.37930  0.97480  Biso   1.000  N
  N27      1.0000 0.03110  0.37220  0.94980  Biso   1.000  N
  C46      1.0000 0.02250  0.31820  0.97440  Biso   1.000  C
  C47      1.0000 0.02290  0.22860  0.97590  Biso   1.000  C
  H36      1.0000 0.03880  0.20480  0.96050  Biso   1.000  H
  C48      1.0000 0.04550  0.28480  0.95050  Biso   1.000  C
  H37      1.0000 0.07630  0.30010  0.91710  Biso   1.000  H
  Cl11     1.0000 0.04180  0.17780  0.95300  Biso   1.000  Cl
  N28      1.0000 0.11650  0.51580  0.92880  Biso   1.000  N
  O16      1.0000 0.01410  0.46660  0.87740  Biso   1.000  O
  O17      1.0000 0.03280  0.47560  0.82200  Biso   1.000  O
  C49      1.0000 0.14250  0.54370  0.98110  Biso   1.000  C
  H38      1.0000 0.15970  0.53100  0.01540  Biso   1.000  H
  C50      1.0000 0.17480  0.56190  0.96090  Biso   1.000  C
  H39      1.0000 0.20540  0.55550  0.97770  Biso   1.000  H
  N29      1.0000 0.08310  0.40540  0.80830  Biso   1.000  N
  O18      1.0000 0.18530  0.51020  0.80470  Biso   1.000  O
  C51      1.0000 0.03530  0.35640  0.78630  Biso   1.000  C
  H40      1.0000 0.00610  0.32650  0.81480  Biso   1.000  H
  N30      1.0000 0.17270  0.43140  0.93940  Biso   1.000  N
  C52      1.0000 0.18650  0.42550  0.00580  Biso   1.000  C
  C53      1.0000 0.18140  0.41530  0.12510  Biso   1.000  C
  H41      1.0000 0.16280  0.41230  0.16810  Biso   1.000  H
  C54      1.0000 0.15410  0.41950  0.06650  Biso   1.000  C
  H42      1.0000 0.11720  0.41840  0.06680  Biso   1.000  H
  Cl12     1.0000 0.12740  0.40740  0.19750  Biso   1.000  Cl
  Zn7      1.0000 0.33202  0.43520  0.59573  Biso   1.000  Zn
  N31      1.0000 0.33480  0.37930  0.52520  Biso   1.000  N
  N32      1.0000 0.34110  0.37220  0.55020  Biso   1.000  N
  C55      1.0000 0.29570  0.31820  0.52560  Biso   1.000  C
  C56      1.0000 0.20570  0.22860  0.52410  Biso   1.000  C
  H43      1.0000 0.16600  0.20480  0.53950  Biso   1.000  H
  C57      1.0000 0.23930  0.28480  0.54950  Biso   1.000  C
  H44      1.0000 0.22380  0.30010  0.58290  Biso   1.000  H
  Cl13     1.0000 0.13600  0.17780  0.54700  Biso   1.000  Cl
  N33      1.0000 0.39930  0.51580  0.57120  Biso   1.000  N
  O19      1.0000 0.45250  0.46660  0.62260  Biso   1.000  O
  O20      1.0000 0.44280  0.47560  0.67800  Biso   1.000  O
  C58      1.0000 0.40120  0.54370  0.51890  Biso   1.000  C
  H45      1.0000 0.37130  0.53100  0.48460  Biso   1.000  H
  C59      1.0000 0.38710  0.56190  0.53910  Biso   1.000  C
  H46      1.0000 0.35010  0.55550  0.52230  Biso   1.000  H
  N34      1.0000 0.32230  0.40540  0.69170  Biso   1.000  N
  O21      1.0000 0.32490  0.51020  0.69530  Biso   1.000  O
  C60      1.0000 0.32110  0.35640  0.71370  Biso   1.000  C
  H47      1.0000 0.32040  0.32650  0.68520  Biso   1.000  H
  N35      1.0000 0.25870  0.43140  0.56060  Biso   1.000  N
  C61      1.0000 0.23900  0.42550  0.49420  Biso   1.000  C
  C62      1.0000 0.23390  0.41530  0.37490  Biso   1.000  C
  H48      1.0000 0.24950  0.41230  0.33190  Biso   1.000  H
  C63      1.0000 0.26540  0.41950  0.43350  Biso   1.000  C
  H49      1.0000 0.30120  0.41840  0.43320  Biso   1.000  H
  Cl14     1.0000 0.28000  0.40740  0.30250  Biso   1.000  Cl
  Zn8      1.0000 0.10318  0.66798  0.59573  Biso   1.000  Zn
  N36      1.0000 0.04450  0.66520  0.52520  Biso   1.000  N
  N37      1.0000 0.03110  0.65890  0.55020  Biso   1.000  N
  C64      1.0000 0.02250  0.70430  0.52560  Biso   1.000  C
  C65      1.0000 0.02290  0.79430  0.52410  Biso   1.000  C
  H50      1.0000 0.03880  0.83400  0.53950  Biso   1.000  H
  C66      1.0000 0.04550  0.76070  0.54950  Biso   1.000  C
  H51      1.0000 0.07630  0.77620  0.58290  Biso   1.000  H
  Cl15     1.0000 0.04180  0.86400  0.54700  Biso   1.000  Cl
  N38      1.0000 0.11650  0.60070  0.57120  Biso   1.000  N
  O22      1.0000 0.01410  0.54750  0.62260  Biso   1.000  O
  O23      1.0000 0.03280  0.55720  0.67800  Biso   1.000  O
  C67      1.0000 0.14250  0.59880  0.51890  Biso   1.000  C
  H52      1.0000 0.15970  0.62870  0.48460  Biso   1.000  H
  C68      1.0000 0.17480  0.61290  0.53910  Biso   1.000  C
  H53      1.0000 0.20540  0.64990  0.52230  Biso   1.000  H
  N39      1.0000 0.08310  0.67770  0.69170  Biso   1.000  N
  O24      1.0000 0.18530  0.67510  0.69530  Biso   1.000  O
  C69      1.0000 0.03530  0.67890  0.71370  Biso   1.000  C
  H54      1.0000 0.00610  0.67960  0.68520  Biso   1.000  H
  N40      1.0000 0.17270  0.74130  0.56060  Biso   1.000  N
  C70      1.0000 0.18650  0.76100  0.49420  Biso   1.000  C
  C71      1.0000 0.18140  0.76610  0.37490  Biso   1.000  C
  H55      1.0000 0.16280  0.75050  0.33190  Biso   1.000  H
  C72      1.0000 0.15410  0.73460  0.43350  Biso   1.000  C
  H56      1.0000 0.11720  0.69880  0.43320  Biso   1.000  H
  Cl16     1.0000 0.12740  0.72000  0.30250  Biso   1.000  Cl
  Zn9      1.0000 0.56480  0.89682  0.59573  Biso   1.000  Zn
  N41      1.0000 0.62070  0.95550  0.52520  Biso   1.000  N
  N42      1.0000 0.62780  0.96890  0.55020  Biso   1.000  N
  C73      1.0000 0.68180  0.97750  0.52560  Biso   1.000  C
  C74      1.0000 0.77140  0.97710  0.52410  Biso   1.000  C
  H57      1.0000 0.79520  0.96120  0.53950  Biso   1.000  H
  C75      1.0000 0.71520  0.95450  0.54950  Biso   1.000  C
  H58      1.0000 0.69990  0.92370  0.58290  Biso   1.000  H
  Cl17     1.0000 0.82220  0.95820  0.54700  Biso   1.000  Cl
  N43      1.0000 0.48420  0.88350  0.57120  Biso   1.000  N
  O25      1.0000 0.53340  0.98590  0.62260  Biso   1.000  O
  O26      1.0000 0.52440  0.96720  0.67800  Biso   1.000  O
  C76      1.0000 0.45630  0.85750  0.51890  Biso   1.000  C
  H59      1.0000 0.46900  0.84030  0.48460  Biso   1.000  H
  C77      1.0000 0.43810  0.82520  0.53910  Biso   1.000  C
  H60      1.0000 0.44450  0.79460  0.52230  Biso   1.000  H
  N44      1.0000 0.59460  0.91690  0.69170  Biso   1.000  N
  O27      1.0000 0.48980  0.81470  0.69530  Biso   1.000  O
  C78      1.0000 0.64360  0.96470  0.71370  Biso   1.000  C
  H61      1.0000 0.67350  0.99390  0.68520  Biso   1.000  H
  N45      1.0000 0.56860  0.82730  0.56060  Biso   1.000  N
  C79      1.0000 0.57450  0.81350  0.49420  Biso   1.000  C
  C80      1.0000 0.58470  0.81860  0.37490  Biso   1.000  C
  H62      1.0000 0.58770  0.83720  0.33190  Biso   1.000  H
  C81      1.0000 0.58050  0.84590  0.43350  Biso   1.000  C
  H63      1.0000 0.58160  0.88280  0.43320  Biso   1.000  H
  Cl18     1.0000 0.59260  0.87260  0.30250  Biso   1.000  Cl
  Zn10     1.0000 0.66798  0.56480  0.09573  Biso   1.000  Zn
  N46      1.0000 0.66520  0.62070  0.02520  Biso   1.000  N
  N47      1.0000 0.65890  0.62780  0.05020  Biso   1.000  N
  C82      1.0000 0.70430  0.68180  0.02560  Biso   1.000  C
  C83      1.0000 0.79430  0.77140  0.02410  Biso   1.000  C
  H64      1.0000 0.83400  0.79520  0.03950  Biso   1.000  H
  C84      1.0000 0.76070  0.71520  0.04950  Biso   1.000  C
  H65      1.0000 0.77620  0.69990  0.08290  Biso   1.000  H
  Cl19     1.0000 0.86400  0.82220  0.04700  Biso   1.000  Cl
  N48      1.0000 0.60070  0.48420  0.07120  Biso   1.000  N
  O28      1.0000 0.54750  0.53340  0.12260  Biso   1.000  O
  O29      1.0000 0.55720  0.52440  0.17800  Biso   1.000  O
  C85      1.0000 0.59880  0.45630  0.01890  Biso   1.000  C
  H66      1.0000 0.62870  0.46900  0.98460  Biso   1.000  H
  C86      1.0000 0.61290  0.43810  0.03910  Biso   1.000  C
  H67      1.0000 0.64990  0.44450  0.02230  Biso   1.000  H
  N49      1.0000 0.67770  0.59460  0.19170  Biso   1.000  N
  O30      1.0000 0.67510  0.48980  0.19530  Biso   1.000  O
  C87      1.0000 0.67890  0.64360  0.21370  Biso   1.000  C
  H68      1.0000 0.67960  0.67350  0.18520  Biso   1.000  H
  N50      1.0000 0.74130  0.56860  0.06060  Biso   1.000  N
  C88      1.0000 0.76100  0.57450  0.99420  Biso   1.000  C
  C89      1.0000 0.76610  0.58470  0.87490  Biso   1.000  C
  H69      1.0000 0.75050  0.58770  0.83190  Biso   1.000  H
  C90      1.0000 0.73460  0.58050  0.93350  Biso   1.000  C
  H70      1.0000 0.69880  0.58160  0.93320  Biso   1.000  H
  Cl20     1.0000 0.72000  0.59260  0.80250  Biso   1.000  Cl
  Zn11     1.0000 0.89682  0.33202  0.09573  Biso   1.000  Zn
  N51      1.0000 0.95550  0.33480  0.02520  Biso   1.000  N
  N52      1.0000 0.96890  0.34110  0.05020  Biso   1.000  N
  C91      1.0000 0.97750  0.29570  0.02560  Biso   1.000  C
  C92      1.0000 0.97710  0.20570  0.02410  Biso   1.000  C
  H71      1.0000 0.96120  0.16600  0.03950  Biso   1.000  H
  C93      1.0000 0.95450  0.23930  0.04950  Biso   1.000  C
  H72      1.0000 0.92370  0.22380  0.08290  Biso   1.000  H
  Cl21     1.0000 0.95820  0.13600  0.04700  Biso   1.000  Cl
  N53      1.0000 0.88350  0.39930  0.07120  Biso   1.000  N
  O31      1.0000 0.98590  0.45250  0.12260  Biso   1.000  O
  O32      1.0000 0.96720  0.44280  0.17800  Biso   1.000  O
  C94      1.0000 0.85750  0.40120  0.01890  Biso   1.000  C
  H73      1.0000 0.84030  0.37130  0.98460  Biso   1.000  H
  C95      1.0000 0.82520  0.38710  0.03910  Biso   1.000  C
  H74      1.0000 0.79460  0.35010  0.02230  Biso   1.000  H
  N54      1.0000 0.91690  0.32230  0.19170  Biso   1.000  N
  O33      1.0000 0.81470  0.32490  0.19530  Biso   1.000  O
  C96      1.0000 0.96470  0.32110  0.21370  Biso   1.000  C
  H75      1.0000 0.99390  0.32040  0.18520  Biso   1.000  H
  N55      1.0000 0.82730  0.25870  0.06060  Biso   1.000  N
  C97      1.0000 0.81350  0.23900  0.99420  Biso   1.000  C
  C98      1.0000 0.81860  0.23390  0.87490  Biso   1.000  C
  H76      1.0000 0.83720  0.24950  0.83190  Biso   1.000  H
  C99      1.0000 0.84590  0.26540  0.93350  Biso   1.000  C
  H77      1.0000 0.88280  0.30120  0.93320  Biso   1.000  H
  Cl22     1.0000 0.87260  0.28000  0.80250  Biso   1.000  Cl
  Zn12     1.0000 0.43520  0.10318  0.09573  Biso   1.000  Zn
  N56      1.0000 0.37930  0.04450  0.02520  Biso   1.000  N
  N57      1.0000 0.37220  0.03110  0.05020  Biso   1.000  N
  C100     1.0000 0.31820  0.02250  0.02560  Biso   1.000  C
  C101     1.0000 0.22860  0.02290  0.02410  Biso   1.000  C
  H78      1.0000 0.20480  0.03880  0.03950  Biso   1.000  H
  C102     1.0000 0.28480  0.04550  0.04950  Biso   1.000  C
  H79      1.0000 0.30010  0.07630  0.08290  Biso   1.000  H
  Cl23     1.0000 0.17780  0.04180  0.04700  Biso   1.000  Cl
  N58      1.0000 0.51580  0.11650  0.07120  Biso   1.000  N
  O34      1.0000 0.46660  0.01410  0.12260  Biso   1.000  O
  O35      1.0000 0.47560  0.03280  0.17800  Biso   1.000  O
  C103     1.0000 0.54370  0.14250  0.01890  Biso   1.000  C
  H80      1.0000 0.53100  0.15970  0.98460  Biso   1.000  H
  C104     1.0000 0.56190  0.17480  0.03910  Biso   1.000  C
  H81      1.0000 0.55550  0.20540  0.02230  Biso   1.000  H
  N59      1.0000 0.40540  0.08310  0.19170  Biso   1.000  N
  O36      1.0000 0.51020  0.18530  0.19530  Biso   1.000  O
  C105     1.0000 0.35640  0.03530  0.21370  Biso   1.000  C
  H82      1.0000 0.32650  0.00610  0.18520  Biso   1.000  H
  N60      1.0000 0.43140  0.17270  0.06060  Biso   1.000  N
  C106     1.0000 0.42550  0.18650  0.99420  Biso   1.000  C
  C107     1.0000 0.41530  0.18140  0.87490  Biso   1.000  C
  H83      1.0000 0.41230  0.16280  0.83190  Biso   1.000  H
  C108     1.0000 0.41950  0.15410  0.93350  Biso   1.000  C
  H84      1.0000 0.41840  0.11720  0.93320  Biso   1.000  H
  Cl24     1.0000 0.40740  0.12740  0.80250  Biso   1.000  Cl
  Zn13     1.0000 0.56480  0.66798  0.59573  Biso   1.000  Zn
  N61      1.0000 0.62070  0.66520  0.52520  Biso   1.000  N
  N62      1.0000 0.62780  0.65890  0.55020  Biso   1.000  N
  C109     1.0000 0.68180  0.70430  0.52560  Biso   1.000  C
  C110     1.0000 0.77140  0.79430  0.52410  Biso   1.000  C
  H85      1.0000 0.79520  0.83400  0.53950  Biso   1.000  H
  C111     1.0000 0.71520  0.76070  0.54950  Biso   1.000  C
  H86      1.0000 0.69990  0.77620  0.58290  Biso   1.000  H
  Cl25     1.0000 0.82220  0.86400  0.54700  Biso   1.000  Cl
  N63      1.0000 0.48420  0.60070  0.57120  Biso   1.000  N
  O37      1.0000 0.53340  0.54750  0.62260  Biso   1.000  O
  O38      1.0000 0.52440  0.55720  0.67800  Biso   1.000  O
  C112     1.0000 0.45630  0.59880  0.51890  Biso   1.000  C
  H87      1.0000 0.46900  0.62870  0.48460  Biso   1.000  H
  C113     1.0000 0.43810  0.61290  0.53910  Biso   1.000  C
  H88      1.0000 0.44450  0.64990  0.52230  Biso   1.000  H
  N64      1.0000 0.59460  0.67770  0.69170  Biso   1.000  N
  O39      1.0000 0.48980  0.67510  0.69530  Biso   1.000  O
  C114     1.0000 0.64360  0.67890  0.71370  Biso   1.000  C
  H89      1.0000 0.67350  0.67960  0.68520  Biso   1.000  H
  N65      1.0000 0.56860  0.74130  0.56060  Biso   1.000  N
  C115     1.0000 0.57450  0.76100  0.49420  Biso   1.000  C
  C116     1.0000 0.58470  0.76610  0.37490  Biso   1.000  C
  H90      1.0000 0.58770  0.75050  0.33190  Biso   1.000  H
  C117     1.0000 0.58050  0.73460  0.43350  Biso   1.000  C
  H91      1.0000 0.58160  0.69880  0.43320  Biso   1.000  H
  Cl26     1.0000 0.59260  0.72000  0.30250  Biso   1.000  Cl
  Zn14     1.0000 0.33202  0.89682  0.59573  Biso   1.000  Zn
  N66      1.0000 0.33480  0.95550  0.52520  Biso   1.000  N
  N67      1.0000 0.34110  0.96890  0.55020  Biso   1.000  N
  C118     1.0000 0.29570  0.97750  0.52560  Biso   1.000  C
  C119     1.0000 0.20570  0.97710  0.52410  Biso   1.000  C
  H92      1.0000 0.16600  0.96120  0.53950  Biso   1.000  H
  C120     1.0000 0.23930  0.95450  0.54950  Biso   1.000  C
  H93      1.0000 0.22380  0.92370  0.58290  Biso   1.000  H
  Cl27     1.0000 0.13600  0.95820  0.54700  Biso   1.000  Cl
  N68      1.0000 0.39930  0.88350  0.57120  Biso   1.000  N
  O40      1.0000 0.45250  0.98590  0.62260  Biso   1.000  O
  O41      1.0000 0.44280  0.96720  0.67800  Biso   1.000  O
  C121     1.0000 0.40120  0.85750  0.51890  Biso   1.000  C
  H94      1.0000 0.37130  0.84030  0.48460  Biso   1.000  H
  C122     1.0000 0.38710  0.82520  0.53910  Biso   1.000  C
  H95      1.0000 0.35010  0.79460  0.52230  Biso   1.000  H
  N69      1.0000 0.32230  0.91690  0.69170  Biso   1.000  N
  O42      1.0000 0.32490  0.81470  0.69530  Biso   1.000  O
  C123     1.0000 0.32110  0.96470  0.71370  Biso   1.000  C
  H96      1.0000 0.32040  0.99390  0.68520  Biso   1.000  H
  N70      1.0000 0.25870  0.82730  0.56060  Biso   1.000  N
  C124     1.0000 0.23900  0.81350  0.49420  Biso   1.000  C
  C125     1.0000 0.23390  0.81860  0.37490  Biso   1.000  C
  H97      1.0000 0.24950  0.83720  0.33190  Biso   1.000  H
  C126     1.0000 0.26540  0.84590  0.43350  Biso   1.000  C
  H98      1.0000 0.30120  0.88280  0.43320  Biso   1.000  H
  Cl28     1.0000 0.28000  0.87260  0.30250  Biso   1.000  Cl
  Zn15     1.0000 0.10318  0.43520  0.59573  Biso   1.000  Zn
  N71      1.0000 0.04450  0.37930  0.52520  Biso   1.000  N
  N72      1.0000 0.03110  0.37220  0.55020  Biso   1.000  N
  C127     1.0000 0.02250  0.31820  0.52560  Biso   1.000  C
  C128     1.0000 0.02290  0.22860  0.52410  Biso   1.000  C
  H99      1.0000 0.03880  0.20480  0.53950  Biso   1.000  H
  C129     1.0000 0.04550  0.28480  0.54950  Biso   1.000  C
  H100     1.0000 0.07630  0.30010  0.58290  Biso   1.000  H
  Cl29     1.0000 0.04180  0.17780  0.54700  Biso   1.000  Cl
  N73      1.0000 0.11650  0.51580  0.57120  Biso   1.000  N
  O43      1.0000 0.01410  0.46660  0.62260  Biso   1.000  O
  O44      1.0000 0.03280  0.47560  0.67800  Biso   1.000  O
  C130     1.0000 0.14250  0.54370  0.51890  Biso   1.000  C
  H101     1.0000 0.15970  0.53100  0.48460  Biso   1.000  H
  C131     1.0000 0.17480  0.56190  0.53910  Biso   1.000  C
  H102     1.0000 0.20540  0.55550  0.52230  Biso   1.000  H
  N74      1.0000 0.08310  0.40540  0.69170  Biso   1.000  N
  O45      1.0000 0.18530  0.51020  0.69530  Biso   1.000  O
  C132     1.0000 0.03530  0.35640  0.71370  Biso   1.000  C
  H103     1.0000 0.00610  0.32650  0.68520  Biso   1.000  H
  N75      1.0000 0.17270  0.43140  0.56060  Biso   1.000  N
  C133     1.0000 0.18650  0.42550  0.49420  Biso   1.000  C
  C134     1.0000 0.18140  0.41530  0.37490  Biso   1.000  C
  H104     1.0000 0.16280  0.41230  0.33190  Biso   1.000  H
  C135     1.0000 0.15410  0.41950  0.43350  Biso   1.000  C
  H105     1.0000 0.11720  0.41840  0.43320  Biso   1.000  H
  Cl30     1.0000 0.12740  0.40740  0.30250  Biso   1.000  Cl
  Zn16     1.0000 0.43520  0.33202  0.09573  Biso   1.000  Zn
  N76      1.0000 0.37930  0.33480  0.02520  Biso   1.000  N
  N77      1.0000 0.37220  0.34110  0.05020  Biso   1.000  N
  C136     1.0000 0.31820  0.29570  0.02560  Biso   1.000  C
  C137     1.0000 0.22860  0.20570  0.02410  Biso   1.000  C
  H106     1.0000 0.20480  0.16600  0.03950  Biso   1.000  H
  C138     1.0000 0.28480  0.23930  0.04950  Biso   1.000  C
  H107     1.0000 0.30010  0.22380  0.08290  Biso   1.000  H
  Cl31     1.0000 0.17780  0.13600  0.04700  Biso   1.000  Cl
  N78      1.0000 0.51580  0.39930  0.07120  Biso   1.000  N
  O46      1.0000 0.46660  0.45250  0.12260  Biso   1.000  O
  O47      1.0000 0.47560  0.44280  0.17800  Biso   1.000  O
  C139     1.0000 0.54370  0.40120  0.01890  Biso   1.000  C
  H108     1.0000 0.53100  0.37130  0.98460  Biso   1.000  H
  C140     1.0000 0.56190  0.38710  0.03910  Biso   1.000  C
  H109     1.0000 0.55550  0.35010  0.02230  Biso   1.000  H
  N79      1.0000 0.40540  0.32230  0.19170  Biso   1.000  N
  O48      1.0000 0.51020  0.32490  0.19530  Biso   1.000  O
  C141     1.0000 0.35640  0.32110  0.21370  Biso   1.000  C
  H110     1.0000 0.32650  0.32040  0.18520  Biso   1.000  H
  N80      1.0000 0.43140  0.25870  0.06060  Biso   1.000  N
  C142     1.0000 0.42550  0.23900  0.99420  Biso   1.000  C
  C143     1.0000 0.41530  0.23390  0.87490  Biso   1.000  C
  H111     1.0000 0.41230  0.24950  0.83190  Biso   1.000  H
  C144     1.0000 0.41950  0.26540  0.93350  Biso   1.000  C
  H112     1.0000 0.41840  0.30120  0.93320  Biso   1.000  H
  Cl32     1.0000 0.40740  0.28000  0.80250  Biso   1.000  Cl
  Zn17     1.0000 0.66798  0.10318  0.09573  Biso   1.000  Zn
  N81      1.0000 0.66520  0.04450  0.02520  Biso   1.000  N
  N82      1.0000 0.65890  0.03110  0.05020  Biso   1.000  N
  C145     1.0000 0.70430  0.02250  0.02560  Biso   1.000  C
  C146     1.0000 0.79430  0.02290  0.02410  Biso   1.000  C
  H113     1.0000 0.83400  0.03880  0.03950  Biso   1.000  H
  C147     1.0000 0.76070  0.04550  0.04950  Biso   1.000  C
  H114     1.0000 0.77620  0.07630  0.08290  Biso   1.000  H
  Cl33     1.0000 0.86400  0.04180  0.04700  Biso   1.000  Cl
  N83      1.0000 0.60070  0.11650  0.07120  Biso   1.000  N
  O49      1.0000 0.54750  0.01410  0.12260  Biso   1.000  O
  O50      1.0000 0.55720  0.03280  0.17800  Biso   1.000  O
  C148     1.0000 0.59880  0.14250  0.01890  Biso   1.000  C
  H115     1.0000 0.62870  0.15970  0.98460  Biso   1.000  H
  C149     1.0000 0.61290  0.17480  0.03910  Biso   1.000  C
  H116     1.0000 0.64990  0.20540  0.02230  Biso   1.000  H
  N84      1.0000 0.67770  0.08310  0.19170  Biso   1.000  N
  O51      1.0000 0.67510  0.18530  0.19530  Biso   1.000  O
  C150     1.0000 0.67890  0.03530  0.21370  Biso   1.000  C
  H117     1.0000 0.67960  0.00610  0.18520  Biso   1.000  H
  N85      1.0000 0.74130  0.17270  0.06060  Biso   1.000  N
  C151     1.0000 0.76100  0.18650  0.99420  Biso   1.000  C
  C152     1.0000 0.76610  0.18140  0.87490  Biso   1.000  C
  H118     1.0000 0.75050  0.16280  0.83190  Biso   1.000  H
  C153     1.0000 0.73460  0.15410  0.93350  Biso   1.000  C
  H119     1.0000 0.69880  0.11720  0.93320  Biso   1.000  H
  Cl34     1.0000 0.72000  0.12740  0.80250  Biso   1.000  Cl
  Zn18     1.0000 0.89682  0.56480  0.09573  Biso   1.000  Zn
  N86      1.0000 0.95550  0.62070  0.02520  Biso   1.000  N
  N87      1.0000 0.96890  0.62780  0.05020  Biso   1.000  N
  C154     1.0000 0.97750  0.68180  0.02560  Biso   1.000  C
  C155     1.0000 0.97710  0.77140  0.02410  Biso   1.000  C
  H120     1.0000 0.96120  0.79520  0.03950  Biso   1.000  H
  C156     1.0000 0.95450  0.71520  0.04950  Biso   1.000  C
  H121     1.0000 0.92370  0.69990  0.08290  Biso   1.000  H
  Cl35     1.0000 0.95820  0.82220  0.04700  Biso   1.000  Cl
  N88      1.0000 0.88350  0.48420  0.07120  Biso   1.000  N
  O52      1.0000 0.98590  0.53340  0.12260  Biso   1.000  O
  O53      1.0000 0.96720  0.52440  0.17800  Biso   1.000  O
  C157     1.0000 0.85750  0.45630  0.01890  Biso   1.000  C
  H122     1.0000 0.84030  0.46900  0.98460  Biso   1.000  H
  C158     1.0000 0.82520  0.43810  0.03910  Biso   1.000  C
  H123     1.0000 0.79460  0.44450  0.02230  Biso   1.000  H
  N89      1.0000 0.91690  0.59460  0.19170  Biso   1.000  N
  O54      1.0000 0.81470  0.48980  0.19530  Biso   1.000  O
  C159     1.0000 0.96470  0.64360  0.21370  Biso   1.000  C
  H124     1.0000 0.99390  0.67350  0.18520  Biso   1.000  H
  N90      1.0000 0.82730  0.56860  0.06060  Biso   1.000  N
  C160     1.0000 0.81350  0.57450  0.99420  Biso   1.000  C
  C161     1.0000 0.81860  0.58470  0.87490  Biso   1.000  C
  H125     1.0000 0.83720  0.58770  0.83190  Biso   1.000  H
  C162     1.0000 0.84590  0.58050  0.93350  Biso   1.000  C
  H126     1.0000 0.88280  0.58160  0.93320  Biso   1.000  H
  Cl36     1.0000 0.87260  0.59260  0.80250  Biso   1.000  Cl
  Zn19     1.0000 0.66798  0.56480  0.40427  Biso   1.000  Zn
  N91      1.0000 0.66520  0.62070  0.47480  Biso   1.000  N
  N92      1.0000 0.65890  0.62780  0.44980  Biso   1.000  N
  C163     1.0000 0.70430  0.68180  0.47440  Biso   1.000  C
  C164     1.0000 0.79430  0.77140  0.47590  Biso   1.000  C
  H127     1.0000 0.83400  0.79520  0.46050  Biso   1.000  H
  C165     1.0000 0.76070  0.71520  0.45050  Biso   1.000  C
  H128     1.0000 0.77620  0.69990  0.41710  Biso   1.000  H
  Cl37     1.0000 0.86400  0.82220  0.45300  Biso   1.000  Cl
  N93      1.0000 0.60070  0.48420  0.42880  Biso   1.000  N
  O55      1.0000 0.54750  0.53340  0.37740  Biso   1.000  O
  O56      1.0000 0.55720  0.52440  0.32200  Biso   1.000  O
  C166     1.0000 0.59880  0.45630  0.48110  Biso   1.000  C
  H129     1.0000 0.62870  0.46900  0.51540  Biso   1.000  H
  C167     1.0000 0.61290  0.43810  0.46090  Biso   1.000  C
  H130     1.0000 0.64990  0.44450  0.47770  Biso   1.000  H
  N94      1.0000 0.67770  0.59460  0.30830  Biso   1.000  N
  O57      1.0000 0.67510  0.48980  0.30470  Biso   1.000  O
  C168     1.0000 0.67890  0.64360  0.28630  Biso   1.000  C
  H131     1.0000 0.67960  0.67350  0.31480  Biso   1.000  H
  N95      1.0000 0.74130  0.56860  0.43940  Biso   1.000  N
  C169     1.0000 0.76100  0.57450  0.50580  Biso   1.000  C
  C170     1.0000 0.76610  0.58470  0.62510  Biso   1.000  C
  H132     1.0000 0.75050  0.58770  0.66810  Biso   1.000  H
  C171     1.0000 0.73460  0.58050  0.56650  Biso   1.000  C
  H133     1.0000 0.69880  0.58160  0.56680  Biso   1.000  H
  Cl38     1.0000 0.72000  0.59260  0.69750  Biso   1.000  Cl
  Zn20     1.0000 0.89682  0.33202  0.40427  Biso   1.000  Zn
  N96      1.0000 0.95550  0.33480  0.47480  Biso   1.000  N
  N97      1.0000 0.96890  0.34110  0.44980  Biso   1.000  N
  C172     1.0000 0.97750  0.29570  0.47440  Biso   1.000  C
  C173     1.0000 0.97710  0.20570  0.47590  Biso   1.000  C
  H134     1.0000 0.96120  0.16600  0.46050  Biso   1.000  H
  C174     1.0000 0.95450  0.23930  0.45050  Biso   1.000  C
  H135     1.0000 0.92370  0.22380  0.41710  Biso   1.000  H
  Cl39     1.0000 0.95820  0.13600  0.45300  Biso   1.000  Cl
  N98      1.0000 0.88350  0.39930  0.42880  Biso   1.000  N
  O58      1.0000 0.98590  0.45250  0.37740  Biso   1.000  O
  O59      1.0000 0.96720  0.44280  0.32200  Biso   1.000  O
  C175     1.0000 0.85750  0.40120  0.48110  Biso   1.000  C
  H136     1.0000 0.84030  0.37130  0.51540  Biso   1.000  H
  C176     1.0000 0.82520  0.38710  0.46090  Biso   1.000  C
  H137     1.0000 0.79460  0.35010  0.47770  Biso   1.000  H
  N99      1.0000 0.91690  0.32230  0.30830  Biso   1.000  N
  O60      1.0000 0.81470  0.32490  0.30470  Biso   1.000  O
  C177     1.0000 0.96470  0.32110  0.28630  Biso   1.000  C
  H138     1.0000 0.99390  0.32040  0.31480  Biso   1.000  H
  N100     1.0000 0.82730  0.25870  0.43940  Biso   1.000  N
  C178     1.0000 0.81350  0.23900  0.50580  Biso   1.000  C
  C179     1.0000 0.81860  0.23390  0.62510  Biso   1.000  C
  H139     1.0000 0.83720  0.24950  0.66810  Biso   1.000  H
  C180     1.0000 0.84590  0.26540  0.56650  Biso   1.000  C
  H140     1.0000 0.88280  0.30120  0.56680  Biso   1.000  H
  Cl40     1.0000 0.87260  0.28000  0.69750  Biso   1.000  Cl
  Zn21     1.0000 0.43520  0.10318  0.40427  Biso   1.000  Zn
  N101     1.0000 0.37930  0.04450  0.47480  Biso   1.000  N
  N102     1.0000 0.37220  0.03110  0.44980  Biso   1.000  N
  C181     1.0000 0.31820  0.02250  0.47440  Biso   1.000  C
  C182     1.0000 0.22860  0.02290  0.47590  Biso   1.000  C
  H141     1.0000 0.20480  0.03880  0.46050  Biso   1.000  H
  C183     1.0000 0.28480  0.04550  0.45050  Biso   1.000  C
  H142     1.0000 0.30010  0.07630  0.41710  Biso   1.000  H
  Cl41     1.0000 0.17780  0.04180  0.45300  Biso   1.000  Cl
  N103     1.0000 0.51580  0.11650  0.42880  Biso   1.000  N
  O61      1.0000 0.46660  0.01410  0.37740  Biso   1.000  O
  O62      1.0000 0.47560  0.03280  0.32200  Biso   1.000  O
  C184     1.0000 0.54370  0.14250  0.48110  Biso   1.000  C
  H143     1.0000 0.53100  0.15970  0.51540  Biso   1.000  H
  C185     1.0000 0.56190  0.17480  0.46090  Biso   1.000  C
  H144     1.0000 0.55550  0.20540  0.47770  Biso   1.000  H
  N104     1.0000 0.40540  0.08310  0.30830  Biso   1.000  N
  O63      1.0000 0.51020  0.18530  0.30470  Biso   1.000  O
  C186     1.0000 0.35640  0.03530  0.28630  Biso   1.000  C
  H145     1.0000 0.32650  0.00610  0.31480  Biso   1.000  H
  N105     1.0000 0.43140  0.17270  0.43940  Biso   1.000  N
  C187     1.0000 0.42550  0.18650  0.50580  Biso   1.000  C
  C188     1.0000 0.41530  0.18140  0.62510  Biso   1.000  C
  H146     1.0000 0.41230  0.16280  0.66810  Biso   1.000  H
  C189     1.0000 0.41950  0.15410  0.56650  Biso   1.000  C
  H147     1.0000 0.41840  0.11720  0.56680  Biso   1.000  H
  Cl42     1.0000 0.40740  0.12740  0.69750  Biso   1.000  Cl
  Zn22     1.0000 0.33202  0.43520  0.90427  Biso   1.000  Zn
  N106     1.0000 0.33480  0.37930  0.97480  Biso   1.000  N
  N107     1.0000 0.34110  0.37220  0.94980  Biso   1.000  N
  C190     1.0000 0.29570  0.31820  0.97440  Biso   1.000  C
  C191     1.0000 0.20570  0.22860  0.97590  Biso   1.000  C
  H148     1.0000 0.16600  0.20480  0.96050  Biso   1.000  H
  C192     1.0000 0.23930  0.28480  0.95050  Biso   1.000  C
  H149     1.0000 0.22380  0.30010  0.91710  Biso   1.000  H
  Cl43     1.0000 0.13600  0.17780  0.95300  Biso   1.000  Cl
  N108     1.0000 0.39930  0.51580  0.92880  Biso   1.000  N
  O64      1.0000 0.45250  0.46660  0.87740  Biso   1.000  O
  O65      1.0000 0.44280  0.47560  0.82200  Biso   1.000  O
  C193     1.0000 0.40120  0.54370  0.98110  Biso   1.000  C
  H150     1.0000 0.37130  0.53100  0.01540  Biso   1.000  H
  C194     1.0000 0.38710  0.56190  0.96090  Biso   1.000  C
  H151     1.0000 0.35010  0.55550  0.97770  Biso   1.000  H
  N109     1.0000 0.32230  0.40540  0.80830  Biso   1.000  N
  O66      1.0000 0.32490  0.51020  0.80470  Biso   1.000  O
  C195     1.0000 0.32110  0.35640  0.78630  Biso   1.000  C
  H152     1.0000 0.32040  0.32650  0.81480  Biso   1.000  H
  N110     1.0000 0.25870  0.43140  0.93940  Biso   1.000  N
  C196     1.0000 0.23900  0.42550  0.00580  Biso   1.000  C
  C197     1.0000 0.23390  0.41530  0.12510  Biso   1.000  C
  H153     1.0000 0.24950  0.41230  0.16810  Biso   1.000  H
  C198     1.0000 0.26540  0.41950  0.06650  Biso   1.000  C
  H154     1.0000 0.30120  0.41840  0.06680  Biso   1.000  H
  Cl44     1.0000 0.28000  0.40740  0.19750  Biso   1.000  Cl
  Zn23     1.0000 0.10318  0.66798  0.90427  Biso   1.000  Zn
  N111     1.0000 0.04450  0.66520  0.97480  Biso   1.000  N
  N112     1.0000 0.03110  0.65890  0.94980  Biso   1.000  N
  C199     1.0000 0.02250  0.70430  0.97440  Biso   1.000  C
  C200     1.0000 0.02290  0.79430  0.97590  Biso   1.000  C
  H155     1.0000 0.03880  0.83400  0.96050  Biso   1.000  H
  C201     1.0000 0.04550  0.76070  0.95050  Biso   1.000  C
  H156     1.0000 0.07630  0.77620  0.91710  Biso   1.000  H
  Cl45     1.0000 0.04180  0.86400  0.95300  Biso   1.000  Cl
  N113     1.0000 0.11650  0.60070  0.92880  Biso   1.000  N
  O67      1.0000 0.01410  0.54750  0.87740  Biso   1.000  O
  O68      1.0000 0.03280  0.55720  0.82200  Biso   1.000  O
  C202     1.0000 0.14250  0.59880  0.98110  Biso   1.000  C
  H157     1.0000 0.15970  0.62870  0.01540  Biso   1.000  H
  C203     1.0000 0.17480  0.61290  0.96090  Biso   1.000  C
  H158     1.0000 0.20540  0.64990  0.97770  Biso   1.000  H
  N114     1.0000 0.08310  0.67770  0.80830  Biso   1.000  N
  O69      1.0000 0.18530  0.67510  0.80470  Biso   1.000  O
  C204     1.0000 0.03530  0.67890  0.78630  Biso   1.000  C
  H159     1.0000 0.00610  0.67960  0.81480  Biso   1.000  H
  N115     1.0000 0.17270  0.74130  0.93940  Biso   1.000  N
  C205     1.0000 0.18650  0.76100  0.00580  Biso   1.000  C
  C206     1.0000 0.18140  0.76610  0.12510  Biso   1.000  C
  H160     1.0000 0.16280  0.75050  0.16810  Biso   1.000  H
  C207     1.0000 0.15410  0.73460  0.06650  Biso   1.000  C
  H161     1.0000 0.11720  0.69880  0.06680  Biso   1.000  H
  Cl46     1.0000 0.12740  0.72000  0.19750  Biso   1.000  Cl
  Zn24     1.0000 0.56480  0.89682  0.90427  Biso   1.000  Zn
  N116     1.0000 0.62070  0.95550  0.97480  Biso   1.000  N
  N117     1.0000 0.62780  0.96890  0.94980  Biso   1.000  N
  C208     1.0000 0.68180  0.97750  0.97440  Biso   1.000  C
  C209     1.0000 0.77140  0.97710  0.97590  Biso   1.000  C
  H162     1.0000 0.79520  0.96120  0.96050  Biso   1.000  H
  C210     1.0000 0.71520  0.95450  0.95050  Biso   1.000  C
  H163     1.0000 0.69990  0.92370  0.91710  Biso   1.000  H
  Cl47     1.0000 0.82220  0.95820  0.95300  Biso   1.000  Cl
  N118     1.0000 0.48420  0.88350  0.92880  Biso   1.000  N
  O70      1.0000 0.53340  0.98590  0.87740  Biso   1.000  O
  O71      1.0000 0.52440  0.96720  0.82200  Biso   1.000  O
  C211     1.0000 0.45630  0.85750  0.98110  Biso   1.000  C
  H164     1.0000 0.46900  0.84030  0.01540  Biso   1.000  H
  C212     1.0000 0.43810  0.82520  0.96090  Biso   1.000  C
  H165     1.0000 0.44450  0.79460  0.97770  Biso   1.000  H
  N119     1.0000 0.59460  0.91690  0.80830  Biso   1.000  N
  O72      1.0000 0.48980  0.81470  0.80470  Biso   1.000  O
  C213     1.0000 0.64360  0.96470  0.78630  Biso   1.000  C
  H166     1.0000 0.67350  0.99390  0.81480  Biso   1.000  H
  N120     1.0000 0.56860  0.82730  0.93940  Biso   1.000  N
  C214     1.0000 0.57450  0.81350  0.00580  Biso   1.000  C
  C215     1.0000 0.58470  0.81860  0.12510  Biso   1.000  C
  H167     1.0000 0.58770  0.83720  0.16810  Biso   1.000  H
  C216     1.0000 0.58050  0.84590  0.06650  Biso   1.000  C
  H168     1.0000 0.58160  0.88280  0.06680  Biso   1.000  H
  Cl48     1.0000 0.59260  0.87260  0.19750  Biso   1.000  Cl
  C217     1.0000 0.38350  0.38350  0.50000  Biso   1.000  C
  H169     1.0000 0.41990  0.41990  0.50000  Biso   1.000  H
  C218     1.0000 0.61650  0.00000  0.50000  Biso   1.000  C
  H170     1.0000 0.58010  0.00000  0.50000  Biso   1.000  H
  C219     1.0000 0.00000  0.61650  0.50000  Biso   1.000  C
  H171     1.0000 0.00000  0.58010  0.50000  Biso   1.000  H
  C220     1.0000 0.61650  0.61650  0.00000  Biso   1.000  C
  H172     1.0000 0.58010  0.58010  0.00000  Biso   1.000  H
  C221     1.0000 0.38350  0.00000  0.00000  Biso   1.000  C
  H173     1.0000 0.41990  0.00000  0.00000  Biso   1.000  H
  C222     1.0000 0.00000  0.38350  0.00000  Biso   1.000  C
  H174     1.0000 0.00000  0.41990  0.00000  Biso   1.000  H
  C223     1.0000 0.61650  0.61650  0.50000  Biso   1.000  C
  H175     1.0000 0.58010  0.58010  0.50000  Biso   1.000  H
  C224     1.0000 0.38350  0.00000  0.50000  Biso   1.000  C
  H176     1.0000 0.41990  0.00000  0.50000  Biso   1.000  H
  C225     1.0000 0.00000  0.38350  0.50000  Biso   1.000  C
  H177     1.0000 0.00000  0.41990  0.50000  Biso   1.000  H
  C226     1.0000 0.38350  0.38350  0.00000  Biso   1.000  C
  H178     1.0000 0.41990  0.41990  0.00000  Biso   1.000  H
  C227     1.0000 0.61650  0.00000  0.00000  Biso   1.000  C
  H179     1.0000 0.58010  0.00000  0.00000  Biso   1.000  H
  C228     1.0000 0.00000  0.61650  0.00000  Biso   1.000  C
  H180     1.0000 0.00000  0.58010  0.00000  Biso   1.000  H
  C229     1.0000 0.54780  0.45220  0.40830  Biso   1.000  C
  N121     1.0000 0.52880  0.47120  0.33300  Biso   1.000  N
  N122     1.0000 0.51890  0.48110  0.38100  Biso   1.000  N
  C230     1.0000 0.54780  0.09560  0.40830  Biso   1.000  C
  N123     1.0000 0.52880  0.05760  0.33300  Biso   1.000  N
  N124     1.0000 0.51890  0.03780  0.38100  Biso   1.000  N
  C231     1.0000 0.90440  0.45220  0.40830  Biso   1.000  C
  N125     1.0000 0.94240  0.47120  0.33300  Biso   1.000  N
  N126     1.0000 0.96220  0.48110  0.38100  Biso   1.000  N
  C232     1.0000 0.45220  0.54780  0.90830  Biso   1.000  C
  N127     1.0000 0.47120  0.52880  0.83300  Biso   1.000  N
  N128     1.0000 0.48110  0.51890  0.88100  Biso   1.000  N
  C233     1.0000 0.45220  0.90440  0.90830  Biso   1.000  C
  N129     1.0000 0.47120  0.94240  0.83300  Biso   1.000  N
  N130     1.0000 0.48110  0.96220  0.88100  Biso   1.000  N
  C234     1.0000 0.09560  0.54780  0.90830  Biso   1.000  C
  N131     1.0000 0.05760  0.52880  0.83300  Biso   1.000  N
  N132     1.0000 0.03780  0.51890  0.88100  Biso   1.000  N
  C235     1.0000 0.45220  0.54780  0.59170  Biso   1.000  C
  N133     1.0000 0.47120  0.52880  0.66700  Biso   1.000  N
  N134     1.0000 0.48110  0.51890  0.61900  Biso   1.000  N
  C236     1.0000 0.09560  0.54780  0.59170  Biso   1.000  C
  N135     1.0000 0.05760  0.52880  0.66700  Biso   1.000  N
  N136     1.0000 0.03780  0.51890  0.61900  Biso   1.000  N
  C237     1.0000 0.45220  0.90440  0.59170  Biso   1.000  C
  N137     1.0000 0.47120  0.94240  0.66700  Biso   1.000  N
  N138     1.0000 0.48110  0.96220  0.61900  Biso   1.000  N
  C238     1.0000 0.54780  0.45220  0.09170  Biso   1.000  C
  N139     1.0000 0.52880  0.47120  0.16700  Biso   1.000  N
  N140     1.0000 0.51890  0.48110  0.11900  Biso   1.000  N
  C239     1.0000 0.90440  0.45220  0.09170  Biso   1.000  C
  N141     1.0000 0.94240  0.47120  0.16700  Biso   1.000  N
  N142     1.0000 0.96220  0.48110  0.11900  Biso   1.000  N
  C240     1.0000 0.54780  0.09560  0.09170  Biso   1.000  C
  N143     1.0000 0.52880  0.05760  0.16700  Biso   1.000  N
  N144     1.0000 0.51890  0.03780  0.11900  Biso   1.000  N
  C241     1.0000 0.43210  0.32290  0.25000  Biso   1.000  C
  N145     1.0000 0.48740  0.32400  0.25000  Biso   1.000  N
  C242     1.0000 0.67710  0.10920  0.25000  Biso   1.000  C
  N146     1.0000 0.67600  0.16340  0.25000  Biso   1.000  N
  C243     1.0000 0.89080  0.56790  0.25000  Biso   1.000  C
  N147     1.0000 0.83660  0.51260  0.25000  Biso   1.000  N
  C244     1.0000 0.56790  0.67710  0.75000  Biso   1.000  C
  N148     1.0000 0.51260  0.67600  0.75000  Biso   1.000  N
  C245     1.0000 0.32290  0.89080  0.75000  Biso   1.000  C
  N149     1.0000 0.32400  0.83660  0.75000  Biso   1.000  N
  C246     1.0000 0.10920  0.43210  0.75000  Biso   1.000  C
  N150     1.0000 0.16340  0.48740  0.75000  Biso   1.000  N
  C247     1.0000 0.32290  0.43210  0.75000  Biso   1.000  C
  N151     1.0000 0.32400  0.48740  0.75000  Biso   1.000  N
  C248     1.0000 0.10920  0.67710  0.75000  Biso   1.000  C
  N152     1.0000 0.16340  0.67600  0.75000  Biso   1.000  N
  C249     1.0000 0.56790  0.89080  0.75000  Biso   1.000  C
  N153     1.0000 0.51260  0.83660  0.75000  Biso   1.000  N
  C250     1.0000 0.67710  0.56790  0.25000  Biso   1.000  C
  N154     1.0000 0.67600  0.51260  0.25000  Biso   1.000  N
  C251     1.0000 0.89080  0.32290  0.25000  Biso   1.000  C
  N155     1.0000 0.83660  0.32400  0.25000  Biso   1.000  N
  C252     1.0000 0.43210  0.10920  0.25000  Biso   1.000  C
  N156     1.0000 0.48740  0.16340  0.25000  Biso   1.000  N
  C253     1.0000 0.43500  0.21750  0.40380  Biso   1.000  C
  H181     1.0000 0.43980  0.21990  0.35520  Biso   1.000  H
  C254     1.0000 0.78250  0.21750  0.40380  Biso   1.000  C
  H182     1.0000 0.78010  0.21990  0.35520  Biso   1.000  H
  C255     1.0000 0.78250  0.56500  0.40380  Biso   1.000  C
  H183     1.0000 0.78010  0.56020  0.35520  Biso   1.000  H
  C256     1.0000 0.56500  0.78250  0.90380  Biso   1.000  C
  H184     1.0000 0.56020  0.78010  0.85520  Biso   1.000  H
  C257     1.0000 0.21750  0.78250  0.90380  Biso   1.000  C
  H185     1.0000 0.21990  0.78010  0.85520  Biso   1.000  H
  C258     1.0000 0.21750  0.43500  0.90380  Biso   1.000  C
  H186     1.0000 0.21990  0.43980  0.85520  Biso   1.000  H
  C259     1.0000 0.21750  0.43500  0.59620  Biso   1.000  C
  H187     1.0000 0.21990  0.43980  0.64480  Biso   1.000  H
  C260     1.0000 0.21750  0.78250  0.59620  Biso   1.000  C
  H188     1.0000 0.21990  0.78010  0.64480  Biso   1.000  H
  C261     1.0000 0.56500  0.78250  0.59620  Biso   1.000  C
  H189     1.0000 0.56020  0.78010  0.64480  Biso   1.000  H
  C262     1.0000 0.78250  0.56500  0.09620  Biso   1.000  C
  H190     1.0000 0.78010  0.56020  0.14480  Biso   1.000  H
  C263     1.0000 0.78250  0.21750  0.09620  Biso   1.000  C
  H191     1.0000 0.78010  0.21990  0.14480  Biso   1.000  H
  C264     1.0000 0.43500  0.21750  0.09620  Biso   1.000  C
  H192     1.0000 0.43980  0.21990  0.14480  Biso   1.000  H
