data_image0
_cell_length_a       26.084
_cell_length_b       26.084
_cell_length_c       19.4082
_cell_angle_alpha    90
_cell_angle_beta     90
_cell_angle_gamma    120

_symmetry_space_group_name_H-M    "P 1"
_symmetry_int_tables_number       1

loop_
  _symmetry_equiv_pos_as_xyz
  'x, y, z'

loop_
  _atom_site_label
  _atom_site_occupancy
  _atom_site_fract_x
  _atom_site_fract_y
  _atom_site_fract_z
  _atom_site_thermal_displace_type
  _atom_site_B_iso_or_equiv
  _atom_site_type_symbol
  Zn1      1.0000 0.43519  0.33203  0.40422  Biso   1.000  Zn
  N1       1.0000 0.37840  0.33490  0.47690  Biso   1.000  N
  N2       1.0000 0.37310  0.34170  0.45080  Biso   1.000  N
  C1       1.0000 0.31760  0.29530  0.47590  Biso   1.000  C
  C2       1.0000 0.22860  0.20500  0.47450  Biso   1.000  C
  H1       1.0000 0.20480  0.16580  0.45750  Biso   1.000  H
  C3       1.0000 0.28460  0.23920  0.45160  Biso   1.000  C
  H2       1.0000 0.30080  0.22420  0.41890  Biso   1.000  H
  Cl1      1.0000 0.17840  0.13480  0.45600  Biso   1.000  Cl
  Cl2      1.0000 0.16060  0.16140  0.39700  Biso   1.000  Cl
  N3       1.0000 0.51560  0.39830  0.42970  Biso   1.000  N
  O1       1.0000 0.46720  0.45230  0.37700  Biso   1.000  O
  O2       1.0000 0.47550  0.44190  0.31600  Biso   1.000  O
  C4       1.0000 0.53000  0.40600  0.50800  Biso   1.000  C
  H3       1.0000 0.50800  0.38130  0.54570  Biso   1.000  H
  C5       1.0000 0.55650  0.38840  0.46690  Biso   1.000  C
  H4       1.0000 0.54900  0.35240  0.48780  Biso   1.000  H
  N4       1.0000 0.40560  0.32230  0.30900  Biso   1.000  N
  O3       1.0000 0.50990  0.32500  0.30520  Biso   1.000  O
  C6       1.0000 0.35640  0.32180  0.28660  Biso   1.000  C
  H5       1.0000 0.32670  0.32150  0.31510  Biso   1.000  H
  N5       1.0000 0.43130  0.25890  0.43960  Biso   1.000  N
  C7       1.0000 0.42520  0.23930  0.50590  Biso   1.000  C
  C8       1.0000 0.42180  0.23530  0.62580  Biso   1.000  C
  H6       1.0000 0.42430  0.25300  0.66940  Biso   1.000  H
  C9       1.0000 0.41830  0.26660  0.56490  Biso   1.000  C
  H7       1.0000 0.41250  0.29980  0.56510  Biso   1.000  H
  Cl3      1.0000 0.40550  0.27930  0.69760  Biso   1.000  Cl
  Zn2      1.0000 0.66797  0.10316  0.40422  Biso   1.000  Zn
  N6       1.0000 0.66510  0.04350  0.47690  Biso   1.000  N
  N7       1.0000 0.65830  0.03140  0.45080  Biso   1.000  N
  C10      1.0000 0.70470  0.02230  0.47590  Biso   1.000  C
  C11      1.0000 0.79500  0.02360  0.47450  Biso   1.000  C
  H8       1.0000 0.83420  0.03900  0.45750  Biso   1.000  H
  C12      1.0000 0.76080  0.04540  0.45160  Biso   1.000  C
  H9       1.0000 0.77580  0.07660  0.41890  Biso   1.000  H
  Cl4      1.0000 0.86520  0.04360  0.45600  Biso   1.000  Cl
  Cl5      1.0000 0.83860  0.99920  0.39700  Biso   1.000  Cl
  N8       1.0000 0.60170  0.11730  0.42970  Biso   1.000  N
  O4       1.0000 0.54770  0.01490  0.37700  Biso   1.000  O
  O5       1.0000 0.55810  0.03360  0.31600  Biso   1.000  O
  C13      1.0000 0.59400  0.12400  0.50800  Biso   1.000  C
  H10      1.0000 0.61870  0.12670  0.54570  Biso   1.000  H
  C14      1.0000 0.61160  0.16810  0.46690  Biso   1.000  C
  H11      1.0000 0.64760  0.19660  0.48780  Biso   1.000  H
  N9       1.0000 0.67770  0.08330  0.30900  Biso   1.000  N
  O6       1.0000 0.67500  0.18490  0.30520  Biso   1.000  O
  C15      1.0000 0.67820  0.03460  0.28660  Biso   1.000  C
  H12      1.0000 0.67850  0.00520  0.31510  Biso   1.000  H
  N10      1.0000 0.74110  0.17240  0.43960  Biso   1.000  N
  C16      1.0000 0.76070  0.18590  0.50590  Biso   1.000  C
  C17      1.0000 0.76470  0.18650  0.62580  Biso   1.000  C
  H13      1.0000 0.74700  0.17130  0.66940  Biso   1.000  H
  C18      1.0000 0.73340  0.15170  0.56490  Biso   1.000  C
  H14      1.0000 0.70020  0.11270  0.56510  Biso   1.000  H
  Cl6      1.0000 0.72070  0.12620  0.69760  Biso   1.000  Cl
  Zn3      1.0000 0.89684  0.56481  0.40422  Biso   1.000  Zn
  N11      1.0000 0.95650  0.62160  0.47690  Biso   1.000  N
  N12      1.0000 0.96860  0.62690  0.45080  Biso   1.000  N
  C19      1.0000 0.97770  0.68240  0.47590  Biso   1.000  C
  C20      1.0000 0.97640  0.77140  0.47450  Biso   1.000  C
  H15      1.0000 0.96100  0.79520  0.45750  Biso   1.000  H
  C21      1.0000 0.95460  0.71540  0.45160  Biso   1.000  C
  H16      1.0000 0.92340  0.69920  0.41890  Biso   1.000  H
  Cl7      1.0000 0.95640  0.82160  0.45600  Biso   1.000  Cl
  Cl8      1.0000 0.00080  0.83940  0.39700  Biso   1.000  Cl
  N13      1.0000 0.88270  0.48440  0.42970  Biso   1.000  N
  O7       1.0000 0.98510  0.53280  0.37700  Biso   1.000  O
  O8       1.0000 0.96640  0.52450  0.31600  Biso   1.000  O
  C22      1.0000 0.87600  0.47000  0.50800  Biso   1.000  C
  H17      1.0000 0.87330  0.49200  0.54570  Biso   1.000  H
  C23      1.0000 0.83190  0.44350  0.46690  Biso   1.000  C
  H18      1.0000 0.80340  0.45100  0.48780  Biso   1.000  H
  N14      1.0000 0.91670  0.59440  0.30900  Biso   1.000  N
  O9       1.0000 0.81510  0.49010  0.30520  Biso   1.000  O
  C24      1.0000 0.96540  0.64360  0.28660  Biso   1.000  C
  H19      1.0000 0.99480  0.67330  0.31510  Biso   1.000  H
  N15      1.0000 0.82760  0.56870  0.43960  Biso   1.000  N
  C25      1.0000 0.81410  0.57480  0.50590  Biso   1.000  C
  C26      1.0000 0.81350  0.57820  0.62580  Biso   1.000  C
  H20      1.0000 0.82870  0.57570  0.66940  Biso   1.000  H
  C27      1.0000 0.84830  0.58170  0.56490  Biso   1.000  C
  H21      1.0000 0.88730  0.58750  0.56510  Biso   1.000  H
  Cl9      1.0000 0.87380  0.59450  0.69760  Biso   1.000  Cl
  Zn4      1.0000 0.56481  0.66797  0.90422  Biso   1.000  Zn
  N16      1.0000 0.62160  0.66510  0.97690  Biso   1.000  N
  N17      1.0000 0.62690  0.65830  0.95080  Biso   1.000  N
  C28      1.0000 0.68240  0.70470  0.97590  Biso   1.000  C
  C29      1.0000 0.77140  0.79500  0.97450  Biso   1.000  C
  H22      1.0000 0.79520  0.83420  0.95750  Biso   1.000  H
  C30      1.0000 0.71540  0.76080  0.95160  Biso   1.000  C
  H23      1.0000 0.69920  0.77580  0.91890  Biso   1.000  H
  Cl10     1.0000 0.82160  0.86520  0.95600  Biso   1.000  Cl
  Cl11     1.0000 0.83940  0.83860  0.89700  Biso   1.000  Cl
  N18      1.0000 0.48440  0.60170  0.92970  Biso   1.000  N
  O10      1.0000 0.53280  0.54770  0.87700  Biso   1.000  O
  O11      1.0000 0.52450  0.55810  0.81600  Biso   1.000  O
  C31      1.0000 0.47000  0.59400  0.00800  Biso   1.000  C
  H24      1.0000 0.49200  0.61870  0.04570  Biso   1.000  H
  C32      1.0000 0.44350  0.61160  0.96690  Biso   1.000  C
  H25      1.0000 0.45100  0.64760  0.98780  Biso   1.000  H
  N19      1.0000 0.59440  0.67770  0.80900  Biso   1.000  N
  O12      1.0000 0.49010  0.67500  0.80520  Biso   1.000  O
  C33      1.0000 0.64360  0.67820  0.78660  Biso   1.000  C
  H26      1.0000 0.67330  0.67850  0.81510  Biso   1.000  H
  N20      1.0000 0.56870  0.74110  0.93960  Biso   1.000  N
  C34      1.0000 0.57480  0.76070  0.00590  Biso   1.000  C
  C35      1.0000 0.57820  0.76470  0.12580  Biso   1.000  C
  H27      1.0000 0.57570  0.74700  0.16940  Biso   1.000  H
  C36      1.0000 0.58170  0.73340  0.06490  Biso   1.000  C
  H28      1.0000 0.58750  0.70020  0.06510  Biso   1.000  H
  Cl12     1.0000 0.59450  0.72070  0.19760  Biso   1.000  Cl
  Zn5      1.0000 0.33203  0.89684  0.90422  Biso   1.000  Zn
  N21      1.0000 0.33490  0.95650  0.97690  Biso   1.000  N
  N22      1.0000 0.34170  0.96860  0.95080  Biso   1.000  N
  C37      1.0000 0.29530  0.97770  0.97590  Biso   1.000  C
  C38      1.0000 0.20500  0.97640  0.97450  Biso   1.000  C
  H29      1.0000 0.16580  0.96100  0.95750  Biso   1.000  H
  C39      1.0000 0.23920  0.95460  0.95160  Biso   1.000  C
  H30      1.0000 0.22420  0.92340  0.91890  Biso   1.000  H
  Cl13     1.0000 0.13480  0.95640  0.95600  Biso   1.000  Cl
  Cl14     1.0000 0.16140  0.00080  0.89700  Biso   1.000  Cl
  N23      1.0000 0.39830  0.88270  0.92970  Biso   1.000  N
  O13      1.0000 0.45230  0.98510  0.87700  Biso   1.000  O
  O14      1.0000 0.44190  0.96640  0.81600  Biso   1.000  O
  C40      1.0000 0.40600  0.87600  0.00800  Biso   1.000  C
  H31      1.0000 0.38130  0.87330  0.04570  Biso   1.000  H
  C41      1.0000 0.38840  0.83190  0.96690  Biso   1.000  C
  H32      1.0000 0.35240  0.80340  0.98780  Biso   1.000  H
  N24      1.0000 0.32230  0.91670  0.80900  Biso   1.000  N
  O15      1.0000 0.32500  0.81510  0.80520  Biso   1.000  O
  C42      1.0000 0.32180  0.96540  0.78660  Biso   1.000  C
  H33      1.0000 0.32150  0.99480  0.81510  Biso   1.000  H
  N25      1.0000 0.25890  0.82760  0.93960  Biso   1.000  N
  C43      1.0000 0.23930  0.81410  0.00590  Biso   1.000  C
  C44      1.0000 0.23530  0.81350  0.12580  Biso   1.000  C
  H34      1.0000 0.25300  0.82870  0.16940  Biso   1.000  H
  C45      1.0000 0.26660  0.84830  0.06490  Biso   1.000  C
  H35      1.0000 0.29980  0.88730  0.06510  Biso   1.000  H
  Cl15     1.0000 0.27930  0.87380  0.19760  Biso   1.000  Cl
  Zn6      1.0000 0.10316  0.43519  0.90422  Biso   1.000  Zn
  N26      1.0000 0.04350  0.37840  0.97690  Biso   1.000  N
  N27      1.0000 0.03140  0.37310  0.95080  Biso   1.000  N
  C46      1.0000 0.02230  0.31760  0.97590  Biso   1.000  C
  C47      1.0000 0.02360  0.22860  0.97450  Biso   1.000  C
  H36      1.0000 0.03900  0.20480  0.95750  Biso   1.000  H
  C48      1.0000 0.04540  0.28460  0.95160  Biso   1.000  C
  H37      1.0000 0.07660  0.30080  0.91890  Biso   1.000  H
  Cl16     1.0000 0.04360  0.17840  0.95600  Biso   1.000  Cl
  Cl17     1.0000 0.99920  0.16060  0.89700  Biso   1.000  Cl
  N28      1.0000 0.11730  0.51560  0.92970  Biso   1.000  N
  O16      1.0000 0.01490  0.46720  0.87700  Biso   1.000  O
  O17      1.0000 0.03360  0.47550  0.81600  Biso   1.000  O
  C49      1.0000 0.12400  0.53000  0.00800  Biso   1.000  C
  H38      1.0000 0.12670  0.50800  0.04570  Biso   1.000  H
  C50      1.0000 0.16810  0.55650  0.96690  Biso   1.000  C
  H39      1.0000 0.19660  0.54900  0.98780  Biso   1.000  H
  N29      1.0000 0.08330  0.40560  0.80900  Biso   1.000  N
  O18      1.0000 0.18490  0.50990  0.80520  Biso   1.000  O
  C51      1.0000 0.03460  0.35640  0.78660  Biso   1.000  C
  H40      1.0000 0.00520  0.32670  0.81510  Biso   1.000  H
  N30      1.0000 0.17240  0.43130  0.93960  Biso   1.000  N
  C52      1.0000 0.18590  0.42520  0.00590  Biso   1.000  C
  C53      1.0000 0.18650  0.42180  0.12580  Biso   1.000  C
  H41      1.0000 0.17130  0.42430  0.16940  Biso   1.000  H
  C54      1.0000 0.15170  0.41830  0.06490  Biso   1.000  C
  H42      1.0000 0.11270  0.41250  0.06510  Biso   1.000  H
  Cl18     1.0000 0.12620  0.40550  0.19760  Biso   1.000  Cl
  Zn7      1.0000 0.33203  0.43519  0.59578  Biso   1.000  Zn
  N31      1.0000 0.33490  0.37840  0.52310  Biso   1.000  N
  N32      1.0000 0.34170  0.37310  0.54920  Biso   1.000  N
  C55      1.0000 0.29530  0.31760  0.52410  Biso   1.000  C
  C56      1.0000 0.20500  0.22860  0.52550  Biso   1.000  C
  H43      1.0000 0.16580  0.20480  0.54250  Biso   1.000  H
  C57      1.0000 0.23920  0.28460  0.54840  Biso   1.000  C
  H44      1.0000 0.22420  0.30080  0.58110  Biso   1.000  H
  Cl19     1.0000 0.13480  0.17840  0.54400  Biso   1.000  Cl
  Cl20     1.0000 0.16140  0.16060  0.60300  Biso   1.000  Cl
  N33      1.0000 0.39830  0.51560  0.57030  Biso   1.000  N
  O19      1.0000 0.45230  0.46720  0.62300  Biso   1.000  O
  O20      1.0000 0.44190  0.47550  0.68400  Biso   1.000  O
  C58      1.0000 0.40600  0.53000  0.49200  Biso   1.000  C
  H45      1.0000 0.38130  0.50800  0.45430  Biso   1.000  H
  C59      1.0000 0.38840  0.55650  0.53310  Biso   1.000  C
  H46      1.0000 0.35240  0.54900  0.51220  Biso   1.000  H
  N34      1.0000 0.32230  0.40560  0.69100  Biso   1.000  N
  O21      1.0000 0.32500  0.50990  0.69480  Biso   1.000  O
  C60      1.0000 0.32180  0.35640  0.71340  Biso   1.000  C
  H47      1.0000 0.32150  0.32670  0.68490  Biso   1.000  H
  N35      1.0000 0.25890  0.43130  0.56040  Biso   1.000  N
  C61      1.0000 0.23930  0.42520  0.49410  Biso   1.000  C
  C62      1.0000 0.23530  0.42180  0.37420  Biso   1.000  C
  H48      1.0000 0.25300  0.42430  0.33060  Biso   1.000  H
  C63      1.0000 0.26660  0.41830  0.43510  Biso   1.000  C
  H49      1.0000 0.29980  0.41250  0.43490  Biso   1.000  H
  Cl21     1.0000 0.27930  0.40550  0.30240  Biso   1.000  Cl
  Zn8      1.0000 0.10316  0.66797  0.59578  Biso   1.000  Zn
  N36      1.0000 0.04350  0.66510  0.52310  Biso   1.000  N
  N37      1.0000 0.03140  0.65830  0.54920  Biso   1.000  N
  C64      1.0000 0.02230  0.70470  0.52410  Biso   1.000  C
  C65      1.0000 0.02360  0.79500  0.52550  Biso   1.000  C
  H50      1.0000 0.03900  0.83420  0.54250  Biso   1.000  H
  C66      1.0000 0.04540  0.76080  0.54840  Biso   1.000  C
  H51      1.0000 0.07660  0.77580  0.58110  Biso   1.000  H
  Cl22     1.0000 0.04360  0.86520  0.54400  Biso   1.000  Cl
  Cl23     1.0000 0.99920  0.83860  0.60300  Biso   1.000  Cl
  N38      1.0000 0.11730  0.60170  0.57030  Biso   1.000  N
  O22      1.0000 0.01490  0.54770  0.62300  Biso   1.000  O
  O23      1.0000 0.03360  0.55810  0.68400  Biso   1.000  O
  C67      1.0000 0.12400  0.59400  0.49200  Biso   1.000  C
  H52      1.0000 0.12670  0.61870  0.45430  Biso   1.000  H
  C68      1.0000 0.16810  0.61160  0.53310  Biso   1.000  C
  H53      1.0000 0.19660  0.64760  0.51220  Biso   1.000  H
  N39      1.0000 0.08330  0.67770  0.69100  Biso   1.000  N
  O24      1.0000 0.18490  0.67500  0.69480  Biso   1.000  O
  C69      1.0000 0.03460  0.67820  0.71340  Biso   1.000  C
  H54      1.0000 0.00520  0.67850  0.68490  Biso   1.000  H
  N40      1.0000 0.17240  0.74110  0.56040  Biso   1.000  N
  C70      1.0000 0.18590  0.76070  0.49410  Biso   1.000  C
  C71      1.0000 0.18650  0.76470  0.37420  Biso   1.000  C
  H55      1.0000 0.17130  0.74700  0.33060  Biso   1.000  H
  C72      1.0000 0.15170  0.73340  0.43510  Biso   1.000  C
  H56      1.0000 0.11270  0.70020  0.43490  Biso   1.000  H
  Cl24     1.0000 0.12620  0.72070  0.30240  Biso   1.000  Cl
  Zn9      1.0000 0.56481  0.89684  0.59578  Biso   1.000  Zn
  N41      1.0000 0.62160  0.95650  0.52310  Biso   1.000  N
  N42      1.0000 0.62690  0.96860  0.54920  Biso   1.000  N
  C73      1.0000 0.68240  0.97770  0.52410  Biso   1.000  C
  C74      1.0000 0.77140  0.97640  0.52550  Biso   1.000  C
  H57      1.0000 0.79520  0.96100  0.54250  Biso   1.000  H
  C75      1.0000 0.71540  0.95460  0.54840  Biso   1.000  C
  H58      1.0000 0.69920  0.92340  0.58110  Biso   1.000  H
  Cl25     1.0000 0.82160  0.95640  0.54400  Biso   1.000  Cl
  Cl26     1.0000 0.83940  0.00080  0.60300  Biso   1.000  Cl
  N43      1.0000 0.48440  0.88270  0.57030  Biso   1.000  N
  O25      1.0000 0.53280  0.98510  0.62300  Biso   1.000  O
  O26      1.0000 0.52450  0.96640  0.68400  Biso   1.000  O
  C76      1.0000 0.47000  0.87600  0.49200  Biso   1.000  C
  H59      1.0000 0.49200  0.87330  0.45430  Biso   1.000  H
  C77      1.0000 0.44350  0.83190  0.53310  Biso   1.000  C
  H60      1.0000 0.45100  0.80340  0.51220  Biso   1.000  H
  N44      1.0000 0.59440  0.91670  0.69100  Biso   1.000  N
  O27      1.0000 0.49010  0.81510  0.69480  Biso   1.000  O
  C78      1.0000 0.64360  0.96540  0.71340  Biso   1.000  C
  H61      1.0000 0.67330  0.99480  0.68490  Biso   1.000  H
  N45      1.0000 0.56870  0.82760  0.56040  Biso   1.000  N
  C79      1.0000 0.57480  0.81410  0.49410  Biso   1.000  C
  C80      1.0000 0.57820  0.81350  0.37420  Biso   1.000  C
  H62      1.0000 0.57570  0.82870  0.33060  Biso   1.000  H
  C81      1.0000 0.58170  0.84830  0.43510  Biso   1.000  C
  H63      1.0000 0.58750  0.88730  0.43490  Biso   1.000  H
  Cl27     1.0000 0.59450  0.87380  0.30240  Biso   1.000  Cl
  Zn10     1.0000 0.66797  0.56481  0.09578  Biso   1.000  Zn
  N46      1.0000 0.66510  0.62160  0.02310  Biso   1.000  N
  N47      1.0000 0.65830  0.62690  0.04920  Biso   1.000  N
  C82      1.0000 0.70470  0.68240  0.02410  Biso   1.000  C
  C83      1.0000 0.79500  0.77140  0.02550  Biso   1.000  C
  H64      1.0000 0.83420  0.79520  0.04250  Biso   1.000  H
  C84      1.0000 0.76080  0.71540  0.04840  Biso   1.000  C
  H65      1.0000 0.77580  0.69920  0.08110  Biso   1.000  H
  Cl28     1.0000 0.86520  0.82160  0.04400  Biso   1.000  Cl
  Cl29     1.0000 0.83860  0.83940  0.10300  Biso   1.000  Cl
  N48      1.0000 0.60170  0.48440  0.07030  Biso   1.000  N
  O28      1.0000 0.54770  0.53280  0.12300  Biso   1.000  O
  O29      1.0000 0.55810  0.52450  0.18400  Biso   1.000  O
  C85      1.0000 0.59400  0.47000  0.99200  Biso   1.000  C
  H66      1.0000 0.61870  0.49200  0.95430  Biso   1.000  H
  C86      1.0000 0.61160  0.44350  0.03310  Biso   1.000  C
  H67      1.0000 0.64760  0.45100  0.01220  Biso   1.000  H
  N49      1.0000 0.67770  0.59440  0.19100  Biso   1.000  N
  O30      1.0000 0.67500  0.49010  0.19480  Biso   1.000  O
  C87      1.0000 0.67820  0.64360  0.21340  Biso   1.000  C
  H68      1.0000 0.67850  0.67330  0.18490  Biso   1.000  H
  N50      1.0000 0.74110  0.56870  0.06040  Biso   1.000  N
  C88      1.0000 0.76070  0.57480  0.99410  Biso   1.000  C
  C89      1.0000 0.76470  0.57820  0.87420  Biso   1.000  C
  H69      1.0000 0.74700  0.57570  0.83060  Biso   1.000  H
  C90      1.0000 0.73340  0.58170  0.93510  Biso   1.000  C
  H70      1.0000 0.70020  0.58750  0.93490  Biso   1.000  H
  Cl30     1.0000 0.72070  0.59450  0.80240  Biso   1.000  Cl
  Zn11     1.0000 0.89684  0.33203  0.09578  Biso   1.000  Zn
  N51      1.0000 0.95650  0.33490  0.02310  Biso   1.000  N
  N52      1.0000 0.96860  0.34170  0.04920  Biso   1.000  N
  C91      1.0000 0.97770  0.29530  0.02410  Biso   1.000  C
  C92      1.0000 0.97640  0.20500  0.02550  Biso   1.000  C
  H71      1.0000 0.96100  0.16580  0.04250  Biso   1.000  H
  C93      1.0000 0.95460  0.23920  0.04840  Biso   1.000  C
  H72      1.0000 0.92340  0.22420  0.08110  Biso   1.000  H
  Cl31     1.0000 0.95640  0.13480  0.04400  Biso   1.000  Cl
  Cl32     1.0000 0.00080  0.16140  0.10300  Biso   1.000  Cl
  N53      1.0000 0.88270  0.39830  0.07030  Biso   1.000  N
  O31      1.0000 0.98510  0.45230  0.12300  Biso   1.000  O
  O32      1.0000 0.96640  0.44190  0.18400  Biso   1.000  O
  C94      1.0000 0.87600  0.40600  0.99200  Biso   1.000  C
  H73      1.0000 0.87330  0.38130  0.95430  Biso   1.000  H
  C95      1.0000 0.83190  0.38840  0.03310  Biso   1.000  C
  H74      1.0000 0.80340  0.35240  0.01220  Biso   1.000  H
  N54      1.0000 0.91670  0.32230  0.19100  Biso   1.000  N
  O33      1.0000 0.81510  0.32500  0.19480  Biso   1.000  O
  C96      1.0000 0.96540  0.32180  0.21340  Biso   1.000  C
  H75      1.0000 0.99480  0.32150  0.18490  Biso   1.000  H
  N55      1.0000 0.82760  0.25890  0.06040  Biso   1.000  N
  C97      1.0000 0.81410  0.23930  0.99410  Biso   1.000  C
  C98      1.0000 0.81350  0.23530  0.87420  Biso   1.000  C
  H76      1.0000 0.82870  0.25300  0.83060  Biso   1.000  H
  C99      1.0000 0.84830  0.26660  0.93510  Biso   1.000  C
  H77      1.0000 0.88730  0.29980  0.93490  Biso   1.000  H
  Cl33     1.0000 0.87380  0.27930  0.80240  Biso   1.000  Cl
  Zn12     1.0000 0.43519  0.10316  0.09578  Biso   1.000  Zn
  N56      1.0000 0.37840  0.04350  0.02310  Biso   1.000  N
  N57      1.0000 0.37310  0.03140  0.04920  Biso   1.000  N
  C100     1.0000 0.31760  0.02230  0.02410  Biso   1.000  C
  C101     1.0000 0.22860  0.02360  0.02550  Biso   1.000  C
  H78      1.0000 0.20480  0.03900  0.04250  Biso   1.000  H
  C102     1.0000 0.28460  0.04540  0.04840  Biso   1.000  C
  H79      1.0000 0.30080  0.07660  0.08110  Biso   1.000  H
  Cl34     1.0000 0.17840  0.04360  0.04400  Biso   1.000  Cl
  Cl35     1.0000 0.16060  0.99920  0.10300  Biso   1.000  Cl
  N58      1.0000 0.51560  0.11730  0.07030  Biso   1.000  N
  O34      1.0000 0.46720  0.01490  0.12300  Biso   1.000  O
  O35      1.0000 0.47550  0.03360  0.18400  Biso   1.000  O
  C103     1.0000 0.53000  0.12400  0.99200  Biso   1.000  C
  H80      1.0000 0.50800  0.12670  0.95430  Biso   1.000  H
  C104     1.0000 0.55650  0.16810  0.03310  Biso   1.000  C
  H81      1.0000 0.54900  0.19660  0.01220  Biso   1.000  H
  N59      1.0000 0.40560  0.08330  0.19100  Biso   1.000  N
  O36      1.0000 0.50990  0.18490  0.19480  Biso   1.000  O
  C105     1.0000 0.35640  0.03460  0.21340  Biso   1.000  C
  H82      1.0000 0.32670  0.00520  0.18490  Biso   1.000  H
  N60      1.0000 0.43130  0.17240  0.06040  Biso   1.000  N
  C106     1.0000 0.42520  0.18590  0.99410  Biso   1.000  C
  C107     1.0000 0.42180  0.18650  0.87420  Biso   1.000  C
  H83      1.0000 0.42430  0.17130  0.83060  Biso   1.000  H
  C108     1.0000 0.41830  0.15170  0.93510  Biso   1.000  C
  H84      1.0000 0.41250  0.11270  0.93490  Biso   1.000  H
  Cl36     1.0000 0.40550  0.12620  0.80240  Biso   1.000  Cl
  Zn13     1.0000 0.56481  0.66797  0.59578  Biso   1.000  Zn
  N61      1.0000 0.62160  0.66510  0.52310  Biso   1.000  N
  N62      1.0000 0.62690  0.65830  0.54920  Biso   1.000  N
  C109     1.0000 0.68240  0.70470  0.52410  Biso   1.000  C
  C110     1.0000 0.77140  0.79500  0.52550  Biso   1.000  C
  H85      1.0000 0.79520  0.83420  0.54250  Biso   1.000  H
  C111     1.0000 0.71540  0.76080  0.54840  Biso   1.000  C
  H86      1.0000 0.69920  0.77580  0.58110  Biso   1.000  H
  Cl37     1.0000 0.82160  0.86520  0.54400  Biso   1.000  Cl
  Cl38     1.0000 0.83940  0.83860  0.60300  Biso   1.000  Cl
  N63      1.0000 0.48440  0.60170  0.57030  Biso   1.000  N
  O37      1.0000 0.53280  0.54770  0.62300  Biso   1.000  O
  O38      1.0000 0.52450  0.55810  0.68400  Biso   1.000  O
  C112     1.0000 0.47000  0.59400  0.49200  Biso   1.000  C
  H87      1.0000 0.49200  0.61870  0.45430  Biso   1.000  H
  C113     1.0000 0.44350  0.61160  0.53310  Biso   1.000  C
  H88      1.0000 0.45100  0.64760  0.51220  Biso   1.000  H
  N64      1.0000 0.59440  0.67770  0.69100  Biso   1.000  N
  O39      1.0000 0.49010  0.67500  0.69480  Biso   1.000  O
  C114     1.0000 0.64360  0.67820  0.71340  Biso   1.000  C
  H89      1.0000 0.67330  0.67850  0.68490  Biso   1.000  H
  N65      1.0000 0.56870  0.74110  0.56040  Biso   1.000  N
  C115     1.0000 0.57480  0.76070  0.49410  Biso   1.000  C
  C116     1.0000 0.57820  0.76470  0.37420  Biso   1.000  C
  H90      1.0000 0.57570  0.74700  0.33060  Biso   1.000  H
  C117     1.0000 0.58170  0.73340  0.43510  Biso   1.000  C
  H91      1.0000 0.58750  0.70020  0.43490  Biso   1.000  H
  Cl39     1.0000 0.59450  0.72070  0.30240  Biso   1.000  Cl
  Zn14     1.0000 0.33203  0.89684  0.59578  Biso   1.000  Zn
  N66      1.0000 0.33490  0.95650  0.52310  Biso   1.000  N
  N67      1.0000 0.34170  0.96860  0.54920  Biso   1.000  N
  C118     1.0000 0.29530  0.97770  0.52410  Biso   1.000  C
  C119     1.0000 0.20500  0.97640  0.52550  Biso   1.000  C
  H92      1.0000 0.16580  0.96100  0.54250  Biso   1.000  H
  C120     1.0000 0.23920  0.95460  0.54840  Biso   1.000  C
  H93      1.0000 0.22420  0.92340  0.58110  Biso   1.000  H
  Cl40     1.0000 0.13480  0.95640  0.54400  Biso   1.000  Cl
  Cl41     1.0000 0.16140  0.00080  0.60300  Biso   1.000  Cl
  N68      1.0000 0.39830  0.88270  0.57030  Biso   1.000  N
  O40      1.0000 0.45230  0.98510  0.62300  Biso   1.000  O
  O41      1.0000 0.44190  0.96640  0.68400  Biso   1.000  O
  C121     1.0000 0.40600  0.87600  0.49200  Biso   1.000  C
  H94      1.0000 0.38130  0.87330  0.45430  Biso   1.000  H
  C122     1.0000 0.38840  0.83190  0.53310  Biso   1.000  C
  H95      1.0000 0.35240  0.80340  0.51220  Biso   1.000  H
  N69      1.0000 0.32230  0.91670  0.69100  Biso   1.000  N
  O42      1.0000 0.32500  0.81510  0.69480  Biso   1.000  O
  C123     1.0000 0.32180  0.96540  0.71340  Biso   1.000  C
  H96      1.0000 0.32150  0.99480  0.68490  Biso   1.000  H
  N70      1.0000 0.25890  0.82760  0.56040  Biso   1.000  N
  C124     1.0000 0.23930  0.81410  0.49410  Biso   1.000  C
  C125     1.0000 0.23530  0.81350  0.37420  Biso   1.000  C
  H97      1.0000 0.25300  0.82870  0.33060  Biso   1.000  H
  C126     1.0000 0.26660  0.84830  0.43510  Biso   1.000  C
  H98      1.0000 0.29980  0.88730  0.43490  Biso   1.000  H
  Cl42     1.0000 0.27930  0.87380  0.30240  Biso   1.000  Cl
  Zn15     1.0000 0.10316  0.43519  0.59578  Biso   1.000  Zn
  N71      1.0000 0.04350  0.37840  0.52310  Biso   1.000  N
  N72      1.0000 0.03140  0.37310  0.54920  Biso   1.000  N
  C127     1.0000 0.02230  0.31760  0.52410  Biso   1.000  C
  C128     1.0000 0.02360  0.22860  0.52550  Biso   1.000  C
  H99      1.0000 0.03900  0.20480  0.54250  Biso   1.000  H
  C129     1.0000 0.04540  0.28460  0.54840  Biso   1.000  C
  H100     1.0000 0.07660  0.30080  0.58110  Biso   1.000  H
  Cl43     1.0000 0.04360  0.17840  0.54400  Biso   1.000  Cl
  Cl44     1.0000 0.99920  0.16060  0.60300  Biso   1.000  Cl
  N73      1.0000 0.11730  0.51560  0.57030  Biso   1.000  N
  O43      1.0000 0.01490  0.46720  0.62300  Biso   1.000  O
  O44      1.0000 0.03360  0.47550  0.68400  Biso   1.000  O
  C130     1.0000 0.12400  0.53000  0.49200  Biso   1.000  C
  H101     1.0000 0.12670  0.50800  0.45430  Biso   1.000  H
  C131     1.0000 0.16810  0.55650  0.53310  Biso   1.000  C
  H102     1.0000 0.19660  0.54900  0.51220  Biso   1.000  H
  N74      1.0000 0.08330  0.40560  0.69100  Biso   1.000  N
  O45      1.0000 0.18490  0.50990  0.69480  Biso   1.000  O
  C132     1.0000 0.03460  0.35640  0.71340  Biso   1.000  C
  H103     1.0000 0.00520  0.32670  0.68490  Biso   1.000  H
  N75      1.0000 0.17240  0.43130  0.56040  Biso   1.000  N
  C133     1.0000 0.18590  0.42520  0.49410  Biso   1.000  C
  C134     1.0000 0.18650  0.42180  0.37420  Biso   1.000  C
  H104     1.0000 0.17130  0.42430  0.33060  Biso   1.000  H
  C135     1.0000 0.15170  0.41830  0.43510  Biso   1.000  C
  H105     1.0000 0.11270  0.41250  0.43490  Biso   1.000  H
  Cl45     1.0000 0.12620  0.40550  0.30240  Biso   1.000  Cl
  Zn16     1.0000 0.43519  0.33203  0.09578  Biso   1.000  Zn
  N76      1.0000 0.37840  0.33490  0.02310  Biso   1.000  N
  N77      1.0000 0.37310  0.34170  0.04920  Biso   1.000  N
  C136     1.0000 0.31760  0.29530  0.02410  Biso   1.000  C
  C137     1.0000 0.22860  0.20500  0.02550  Biso   1.000  C
  H106     1.0000 0.20480  0.16580  0.04250  Biso   1.000  H
  C138     1.0000 0.28460  0.23920  0.04840  Biso   1.000  C
  H107     1.0000 0.30080  0.22420  0.08110  Biso   1.000  H
  Cl46     1.0000 0.17840  0.13480  0.04400  Biso   1.000  Cl
  Cl47     1.0000 0.16060  0.16140  0.10300  Biso   1.000  Cl
  N78      1.0000 0.51560  0.39830  0.07030  Biso   1.000  N
  O46      1.0000 0.46720  0.45230  0.12300  Biso   1.000  O
  O47      1.0000 0.47550  0.44190  0.18400  Biso   1.000  O
  C139     1.0000 0.53000  0.40600  0.99200  Biso   1.000  C
  H108     1.0000 0.50800  0.38130  0.95430  Biso   1.000  H
  C140     1.0000 0.55650  0.38840  0.03310  Biso   1.000  C
  H109     1.0000 0.54900  0.35240  0.01220  Biso   1.000  H
  N79      1.0000 0.40560  0.32230  0.19100  Biso   1.000  N
  O48      1.0000 0.50990  0.32500  0.19480  Biso   1.000  O
  C141     1.0000 0.35640  0.32180  0.21340  Biso   1.000  C
  H110     1.0000 0.32670  0.32150  0.18490  Biso   1.000  H
  N80      1.0000 0.43130  0.25890  0.06040  Biso   1.000  N
  C142     1.0000 0.42520  0.23930  0.99410  Biso   1.000  C
  C143     1.0000 0.42180  0.23530  0.87420  Biso   1.000  C
  H111     1.0000 0.42430  0.25300  0.83060  Biso   1.000  H
  C144     1.0000 0.41830  0.26660  0.93510  Biso   1.000  C
  H112     1.0000 0.41250  0.29980  0.93490  Biso   1.000  H
  Cl48     1.0000 0.40550  0.27930  0.80240  Biso   1.000  Cl
  Zn17     1.0000 0.66797  0.10316  0.09578  Biso   1.000  Zn
  N81      1.0000 0.66510  0.04350  0.02310  Biso   1.000  N
  N82      1.0000 0.65830  0.03140  0.04920  Biso   1.000  N
  C145     1.0000 0.70470  0.02230  0.02410  Biso   1.000  C
  C146     1.0000 0.79500  0.02360  0.02550  Biso   1.000  C
  H113     1.0000 0.83420  0.03900  0.04250  Biso   1.000  H
  C147     1.0000 0.76080  0.04540  0.04840  Biso   1.000  C
  H114     1.0000 0.77580  0.07660  0.08110  Biso   1.000  H
  Cl49     1.0000 0.86520  0.04360  0.04400  Biso   1.000  Cl
  Cl50     1.0000 0.83860  0.99920  0.10300  Biso   1.000  Cl
  N83      1.0000 0.60170  0.11730  0.07030  Biso   1.000  N
  O49      1.0000 0.54770  0.01490  0.12300  Biso   1.000  O
  O50      1.0000 0.55810  0.03360  0.18400  Biso   1.000  O
  C148     1.0000 0.59400  0.12400  0.99200  Biso   1.000  C
  H115     1.0000 0.61870  0.12670  0.95430  Biso   1.000  H
  C149     1.0000 0.61160  0.16810  0.03310  Biso   1.000  C
  H116     1.0000 0.64760  0.19660  0.01220  Biso   1.000  H
  N84      1.0000 0.67770  0.08330  0.19100  Biso   1.000  N
  O51      1.0000 0.67500  0.18490  0.19480  Biso   1.000  O
  C150     1.0000 0.67820  0.03460  0.21340  Biso   1.000  C
  H117     1.0000 0.67850  0.00520  0.18490  Biso   1.000  H
  N85      1.0000 0.74110  0.17240  0.06040  Biso   1.000  N
  C151     1.0000 0.76070  0.18590  0.99410  Biso   1.000  C
  C152     1.0000 0.76470  0.18650  0.87420  Biso   1.000  C
  H118     1.0000 0.74700  0.17130  0.83060  Biso   1.000  H
  C153     1.0000 0.73340  0.15170  0.93510  Biso   1.000  C
  H119     1.0000 0.70020  0.11270  0.93490  Biso   1.000  H
  Cl51     1.0000 0.72070  0.12620  0.80240  Biso   1.000  Cl
  Zn18     1.0000 0.89684  0.56481  0.09578  Biso   1.000  Zn
  N86      1.0000 0.95650  0.62160  0.02310  Biso   1.000  N
  N87      1.0000 0.96860  0.62690  0.04920  Biso   1.000  N
  C154     1.0000 0.97770  0.68240  0.02410  Biso   1.000  C
  C155     1.0000 0.97640  0.77140  0.02550  Biso   1.000  C
  H120     1.0000 0.96100  0.79520  0.04250  Biso   1.000  H
  C156     1.0000 0.95460  0.71540  0.04840  Biso   1.000  C
  H121     1.0000 0.92340  0.69920  0.08110  Biso   1.000  H
  Cl52     1.0000 0.95640  0.82160  0.04400  Biso   1.000  Cl
  Cl53     1.0000 0.00080  0.83940  0.10300  Biso   1.000  Cl
  N88      1.0000 0.88270  0.48440  0.07030  Biso   1.000  N
  O52      1.0000 0.98510  0.53280  0.12300  Biso   1.000  O
  O53      1.0000 0.96640  0.52450  0.18400  Biso   1.000  O
  C157     1.0000 0.87600  0.47000  0.99200  Biso   1.000  C
  H122     1.0000 0.87330  0.49200  0.95430  Biso   1.000  H
  C158     1.0000 0.83190  0.44350  0.03310  Biso   1.000  C
  H123     1.0000 0.80340  0.45100  0.01220  Biso   1.000  H
  N89      1.0000 0.91670  0.59440  0.19100  Biso   1.000  N
  O54      1.0000 0.81510  0.49010  0.19480  Biso   1.000  O
  C159     1.0000 0.96540  0.64360  0.21340  Biso   1.000  C
  H124     1.0000 0.99480  0.67330  0.18490  Biso   1.000  H
  N90      1.0000 0.82760  0.56870  0.06040  Biso   1.000  N
  C160     1.0000 0.81410  0.57480  0.99410  Biso   1.000  C
  C161     1.0000 0.81350  0.57820  0.87420  Biso   1.000  C
  H125     1.0000 0.82870  0.57570  0.83060  Biso   1.000  H
  C162     1.0000 0.84830  0.58170  0.93510  Biso   1.000  C
  H126     1.0000 0.88730  0.58750  0.93490  Biso   1.000  H
  Cl54     1.0000 0.87380  0.59450  0.80240  Biso   1.000  Cl
  Zn19     1.0000 0.66797  0.56481  0.40422  Biso   1.000  Zn
  N91      1.0000 0.66510  0.62160  0.47690  Biso   1.000  N
  N92      1.0000 0.65830  0.62690  0.45080  Biso   1.000  N
  C163     1.0000 0.70470  0.68240  0.47590  Biso   1.000  C
  C164     1.0000 0.79500  0.77140  0.47450  Biso   1.000  C
  H127     1.0000 0.83420  0.79520  0.45750  Biso   1.000  H
  C165     1.0000 0.76080  0.71540  0.45160  Biso   1.000  C
  H128     1.0000 0.77580  0.69920  0.41890  Biso   1.000  H
  Cl55     1.0000 0.86520  0.82160  0.45600  Biso   1.000  Cl
  Cl56     1.0000 0.83860  0.83940  0.39700  Biso   1.000  Cl
  N93      1.0000 0.60170  0.48440  0.42970  Biso   1.000  N
  O55      1.0000 0.54770  0.53280  0.37700  Biso   1.000  O
  O56      1.0000 0.55810  0.52450  0.31600  Biso   1.000  O
  C166     1.0000 0.59400  0.47000  0.50800  Biso   1.000  C
  H129     1.0000 0.61870  0.49200  0.54570  Biso   1.000  H
  C167     1.0000 0.61160  0.44350  0.46690  Biso   1.000  C
  H130     1.0000 0.64760  0.45100  0.48780  Biso   1.000  H
  N94      1.0000 0.67770  0.59440  0.30900  Biso   1.000  N
  O57      1.0000 0.67500  0.49010  0.30520  Biso   1.000  O
  C168     1.0000 0.67820  0.64360  0.28660  Biso   1.000  C
  H131     1.0000 0.67850  0.67330  0.31510  Biso   1.000  H
  N95      1.0000 0.74110  0.56870  0.43960  Biso   1.000  N
  C169     1.0000 0.76070  0.57480  0.50590  Biso   1.000  C
  C170     1.0000 0.76470  0.57820  0.62580  Biso   1.000  C
  H132     1.0000 0.74700  0.57570  0.66940  Biso   1.000  H
  C171     1.0000 0.73340  0.58170  0.56490  Biso   1.000  C
  H133     1.0000 0.70020  0.58750  0.56510  Biso   1.000  H
  Cl57     1.0000 0.72070  0.59450  0.69760  Biso   1.000  Cl
  Zn20     1.0000 0.89684  0.33203  0.40422  Biso   1.000  Zn
  N96      1.0000 0.95650  0.33490  0.47690  Biso   1.000  N
  N97      1.0000 0.96860  0.34170  0.45080  Biso   1.000  N
  C172     1.0000 0.97770  0.29530  0.47590  Biso   1.000  C
  C173     1.0000 0.97640  0.20500  0.47450  Biso   1.000  C
  H134     1.0000 0.96100  0.16580  0.45750  Biso   1.000  H
  C174     1.0000 0.95460  0.23920  0.45160  Biso   1.000  C
  H135     1.0000 0.92340  0.22420  0.41890  Biso   1.000  H
  Cl58     1.0000 0.95640  0.13480  0.45600  Biso   1.000  Cl
  Cl59     1.0000 0.00080  0.16140  0.39700  Biso   1.000  Cl
  N98      1.0000 0.88270  0.39830  0.42970  Biso   1.000  N
  O58      1.0000 0.98510  0.45230  0.37700  Biso   1.000  O
  O59      1.0000 0.96640  0.44190  0.31600  Biso   1.000  O
  C175     1.0000 0.87600  0.40600  0.50800  Biso   1.000  C
  H136     1.0000 0.87330  0.38130  0.54570  Biso   1.000  H
  C176     1.0000 0.83190  0.38840  0.46690  Biso   1.000  C
  H137     1.0000 0.80340  0.35240  0.48780  Biso   1.000  H
  N99      1.0000 0.91670  0.32230  0.30900  Biso   1.000  N
  O60      1.0000 0.81510  0.32500  0.30520  Biso   1.000  O
  C177     1.0000 0.96540  0.32180  0.28660  Biso   1.000  C
  H138     1.0000 0.99480  0.32150  0.31510  Biso   1.000  H
  N100     1.0000 0.82760  0.25890  0.43960  Biso   1.000  N
  C178     1.0000 0.81410  0.23930  0.50590  Biso   1.000  C
  C179     1.0000 0.81350  0.23530  0.62580  Biso   1.000  C
  H139     1.0000 0.82870  0.25300  0.66940  Biso   1.000  H
  C180     1.0000 0.84830  0.26660  0.56490  Biso   1.000  C
  H140     1.0000 0.88730  0.29980  0.56510  Biso   1.000  H
  Cl60     1.0000 0.87380  0.27930  0.69760  Biso   1.000  Cl
  Zn21     1.0000 0.43519  0.10316  0.40422  Biso   1.000  Zn
  N101     1.0000 0.37840  0.04350  0.47690  Biso   1.000  N
  N102     1.0000 0.37310  0.03140  0.45080  Biso   1.000  N
  C181     1.0000 0.31760  0.02230  0.47590  Biso   1.000  C
  C182     1.0000 0.22860  0.02360  0.47450  Biso   1.000  C
  H141     1.0000 0.20480  0.03900  0.45750  Biso   1.000  H
  C183     1.0000 0.28460  0.04540  0.45160  Biso   1.000  C
  H142     1.0000 0.30080  0.07660  0.41890  Biso   1.000  H
  Cl61     1.0000 0.17840  0.04360  0.45600  Biso   1.000  Cl
  Cl62     1.0000 0.16060  0.99920  0.39700  Biso   1.000  Cl
  N103     1.0000 0.51560  0.11730  0.42970  Biso   1.000  N
  O61      1.0000 0.46720  0.01490  0.37700  Biso   1.000  O
  O62      1.0000 0.47550  0.03360  0.31600  Biso   1.000  O
  C184     1.0000 0.53000  0.12400  0.50800  Biso   1.000  C
  H143     1.0000 0.50800  0.12670  0.54570  Biso   1.000  H
  C185     1.0000 0.55650  0.16810  0.46690  Biso   1.000  C
  H144     1.0000 0.54900  0.19660  0.48780  Biso   1.000  H
  N104     1.0000 0.40560  0.08330  0.30900  Biso   1.000  N
  O63      1.0000 0.50990  0.18490  0.30520  Biso   1.000  O
  C186     1.0000 0.35640  0.03460  0.28660  Biso   1.000  C
  H145     1.0000 0.32670  0.00520  0.31510  Biso   1.000  H
  N105     1.0000 0.43130  0.17240  0.43960  Biso   1.000  N
  C187     1.0000 0.42520  0.18590  0.50590  Biso   1.000  C
  C188     1.0000 0.42180  0.18650  0.62580  Biso   1.000  C
  H146     1.0000 0.42430  0.17130  0.66940  Biso   1.000  H
  C189     1.0000 0.41830  0.15170  0.56490  Biso   1.000  C
  H147     1.0000 0.41250  0.11270  0.56510  Biso   1.000  H
  Cl63     1.0000 0.40550  0.12620  0.69760  Biso   1.000  Cl
  Zn22     1.0000 0.33203  0.43519  0.90422  Biso   1.000  Zn
  N106     1.0000 0.33490  0.37840  0.97690  Biso   1.000  N
  N107     1.0000 0.34170  0.37310  0.95080  Biso   1.000  N
  C190     1.0000 0.29530  0.31760  0.97590  Biso   1.000  C
  C191     1.0000 0.20500  0.22860  0.97450  Biso   1.000  C
  H148     1.0000 0.16580  0.20480  0.95750  Biso   1.000  H
  C192     1.0000 0.23920  0.28460  0.95160  Biso   1.000  C
  H149     1.0000 0.22420  0.30080  0.91890  Biso   1.000  H
  Cl64     1.0000 0.13480  0.17840  0.95600  Biso   1.000  Cl
  Cl65     1.0000 0.16140  0.16060  0.89700  Biso   1.000  Cl
  N108     1.0000 0.39830  0.51560  0.92970  Biso   1.000  N
  O64      1.0000 0.45230  0.46720  0.87700  Biso   1.000  O
  O65      1.0000 0.44190  0.47550  0.81600  Biso   1.000  O
  C193     1.0000 0.40600  0.53000  0.00800  Biso   1.000  C
  H150     1.0000 0.38130  0.50800  0.04570  Biso   1.000  H
  C194     1.0000 0.38840  0.55650  0.96690  Biso   1.000  C
  H151     1.0000 0.35240  0.54900  0.98780  Biso   1.000  H
  N109     1.0000 0.32230  0.40560  0.80900  Biso   1.000  N
  O66      1.0000 0.32500  0.50990  0.80520  Biso   1.000  O
  C195     1.0000 0.32180  0.35640  0.78660  Biso   1.000  C
  H152     1.0000 0.32150  0.32670  0.81510  Biso   1.000  H
  N110     1.0000 0.25890  0.43130  0.93960  Biso   1.000  N
  C196     1.0000 0.23930  0.42520  0.00590  Biso   1.000  C
  C197     1.0000 0.23530  0.42180  0.12580  Biso   1.000  C
  H153     1.0000 0.25300  0.42430  0.16940  Biso   1.000  H
  C198     1.0000 0.26660  0.41830  0.06490  Biso   1.000  C
  H154     1.0000 0.29980  0.41250  0.06510  Biso   1.000  H
  Cl66     1.0000 0.27930  0.40550  0.19760  Biso   1.000  Cl
  Zn23     1.0000 0.10316  0.66797  0.90422  Biso   1.000  Zn
  N111     1.0000 0.04350  0.66510  0.97690  Biso   1.000  N
  N112     1.0000 0.03140  0.65830  0.95080  Biso   1.000  N
  C199     1.0000 0.02230  0.70470  0.97590  Biso   1.000  C
  C200     1.0000 0.02360  0.79500  0.97450  Biso   1.000  C
  H155     1.0000 0.03900  0.83420  0.95750  Biso   1.000  H
  C201     1.0000 0.04540  0.76080  0.95160  Biso   1.000  C
  H156     1.0000 0.07660  0.77580  0.91890  Biso   1.000  H
  Cl67     1.0000 0.04360  0.86520  0.95600  Biso   1.000  Cl
  Cl68     1.0000 0.99920  0.83860  0.89700  Biso   1.000  Cl
  N113     1.0000 0.11730  0.60170  0.92970  Biso   1.000  N
  O67      1.0000 0.01490  0.54770  0.87700  Biso   1.000  O
  O68      1.0000 0.03360  0.55810  0.81600  Biso   1.000  O
  C202     1.0000 0.12400  0.59400  0.00800  Biso   1.000  C
  H157     1.0000 0.12670  0.61870  0.04570  Biso   1.000  H
  C203     1.0000 0.16810  0.61160  0.96690  Biso   1.000  C
  H158     1.0000 0.19660  0.64760  0.98780  Biso   1.000  H
  N114     1.0000 0.08330  0.67770  0.80900  Biso   1.000  N
  O69      1.0000 0.18490  0.67500  0.80520  Biso   1.000  O
  C204     1.0000 0.03460  0.67820  0.78660  Biso   1.000  C
  H159     1.0000 0.00520  0.67850  0.81510  Biso   1.000  H
  N115     1.0000 0.17240  0.74110  0.93960  Biso   1.000  N
  C205     1.0000 0.18590  0.76070  0.00590  Biso   1.000  C
  C206     1.0000 0.18650  0.76470  0.12580  Biso   1.000  C
  H160     1.0000 0.17130  0.74700  0.16940  Biso   1.000  H
  C207     1.0000 0.15170  0.73340  0.06490  Biso   1.000  C
  H161     1.0000 0.11270  0.70020  0.06510  Biso   1.000  H
  Cl69     1.0000 0.12620  0.72070  0.19760  Biso   1.000  Cl
  Zn24     1.0000 0.56481  0.89684  0.90422  Biso   1.000  Zn
  N116     1.0000 0.62160  0.95650  0.97690  Biso   1.000  N
  N117     1.0000 0.62690  0.96860  0.95080  Biso   1.000  N
  C208     1.0000 0.68240  0.97770  0.97590  Biso   1.000  C
  C209     1.0000 0.77140  0.97640  0.97450  Biso   1.000  C
  H162     1.0000 0.79520  0.96100  0.95750  Biso   1.000  H
  C210     1.0000 0.71540  0.95460  0.95160  Biso   1.000  C
  H163     1.0000 0.69920  0.92340  0.91890  Biso   1.000  H
  Cl70     1.0000 0.82160  0.95640  0.95600  Biso   1.000  Cl
  Cl71     1.0000 0.83940  0.00080  0.89700  Biso   1.000  Cl
  N118     1.0000 0.48440  0.88270  0.92970  Biso   1.000  N
  O70      1.0000 0.53280  0.98510  0.87700  Biso   1.000  O
  O71      1.0000 0.52450  0.96640  0.81600  Biso   1.000  O
  C211     1.0000 0.47000  0.87600  0.00800  Biso   1.000  C
  H164     1.0000 0.49200  0.87330  0.04570  Biso   1.000  H
  C212     1.0000 0.44350  0.83190  0.96690  Biso   1.000  C
  H165     1.0000 0.45100  0.80340  0.98780  Biso   1.000  H
  N119     1.0000 0.59440  0.91670  0.80900  Biso   1.000  N
  O72      1.0000 0.49010  0.81510  0.80520  Biso   1.000  O
  C213     1.0000 0.64360  0.96540  0.78660  Biso   1.000  C
  H166     1.0000 0.67330  0.99480  0.81510  Biso   1.000  H
  N120     1.0000 0.56870  0.82760  0.93960  Biso   1.000  N
  C214     1.0000 0.57480  0.81410  0.00590  Biso   1.000  C
  C215     1.0000 0.57820  0.81350  0.12580  Biso   1.000  C
  H167     1.0000 0.57570  0.82870  0.16940  Biso   1.000  H
  C216     1.0000 0.58170  0.84830  0.06490  Biso   1.000  C
  H168     1.0000 0.58750  0.88730  0.06510  Biso   1.000  H
  Cl72     1.0000 0.59450  0.87380  0.19760  Biso   1.000  Cl
  C217     1.0000 0.38350  0.38350  0.50000  Biso   1.000  C
  H169     1.0000 0.41990  0.41990  0.50000  Biso   1.000  H
  C218     1.0000 0.61650  0.00000  0.50000  Biso   1.000  C
  H170     1.0000 0.58010  0.00000  0.50000  Biso   1.000  H
  C219     1.0000 0.00000  0.61650  0.50000  Biso   1.000  C
  H171     1.0000 0.00000  0.58010  0.50000  Biso   1.000  H
  C220     1.0000 0.61650  0.61650  0.00000  Biso   1.000  C
  H172     1.0000 0.58010  0.58010  0.00000  Biso   1.000  H
  C221     1.0000 0.38350  0.00000  0.00000  Biso   1.000  C
  H173     1.0000 0.41990  0.00000  0.00000  Biso   1.000  H
  C222     1.0000 0.00000  0.38350  0.00000  Biso   1.000  C
  H174     1.0000 0.00000  0.41990  0.00000  Biso   1.000  H
  C223     1.0000 0.61650  0.61650  0.50000  Biso   1.000  C
  H175     1.0000 0.58010  0.58010  0.50000  Biso   1.000  H
  C224     1.0000 0.38350  0.00000  0.50000  Biso   1.000  C
  H176     1.0000 0.41990  0.00000  0.50000  Biso   1.000  H
  C225     1.0000 0.00000  0.38350  0.50000  Biso   1.000  C
  H177     1.0000 0.00000  0.41990  0.50000  Biso   1.000  H
  C226     1.0000 0.38350  0.38350  0.00000  Biso   1.000  C
  H178     1.0000 0.41990  0.41990  0.00000  Biso   1.000  H
  C227     1.0000 0.61650  0.00000  0.00000  Biso   1.000  C
  H179     1.0000 0.58010  0.00000  0.00000  Biso   1.000  H
  C228     1.0000 0.00000  0.61650  0.00000  Biso   1.000  C
  H180     1.0000 0.00000  0.58010  0.00000  Biso   1.000  H
  C229     1.0000 0.54800  0.45200  0.40870  Biso   1.000  C
  N121     1.0000 0.52550  0.47450  0.33100  Biso   1.000  N
  N122     1.0000 0.51920  0.48080  0.38100  Biso   1.000  N
  C230     1.0000 0.54800  0.09600  0.40870  Biso   1.000  C
  N123     1.0000 0.52550  0.05100  0.33100  Biso   1.000  N
  N124     1.0000 0.51920  0.03840  0.38100  Biso   1.000  N
  C231     1.0000 0.90400  0.45200  0.40870  Biso   1.000  C
  N125     1.0000 0.94900  0.47450  0.33100  Biso   1.000  N
  N126     1.0000 0.96160  0.48080  0.38100  Biso   1.000  N
  C232     1.0000 0.45200  0.54800  0.90870  Biso   1.000  C
  N127     1.0000 0.47450  0.52550  0.83100  Biso   1.000  N
  N128     1.0000 0.48080  0.51920  0.88100  Biso   1.000  N
  C233     1.0000 0.45200  0.90400  0.90870  Biso   1.000  C
  N129     1.0000 0.47450  0.94900  0.83100  Biso   1.000  N
  N130     1.0000 0.48080  0.96160  0.88100  Biso   1.000  N
  C234     1.0000 0.09600  0.54800  0.90870  Biso   1.000  C
  N131     1.0000 0.05100  0.52550  0.83100  Biso   1.000  N
  N132     1.0000 0.03840  0.51920  0.88100  Biso   1.000  N
  C235     1.0000 0.45200  0.54800  0.59130  Biso   1.000  C
  N133     1.0000 0.47450  0.52550  0.66900  Biso   1.000  N
  N134     1.0000 0.48080  0.51920  0.61900  Biso   1.000  N
  C236     1.0000 0.09600  0.54800  0.59130  Biso   1.000  C
  N135     1.0000 0.05100  0.52550  0.66900  Biso   1.000  N
  N136     1.0000 0.03840  0.51920  0.61900  Biso   1.000  N
  C237     1.0000 0.45200  0.90400  0.59130  Biso   1.000  C
  N137     1.0000 0.47450  0.94900  0.66900  Biso   1.000  N
  N138     1.0000 0.48080  0.96160  0.61900  Biso   1.000  N
  C238     1.0000 0.54800  0.45200  0.09130  Biso   1.000  C
  N139     1.0000 0.52550  0.47450  0.16900  Biso   1.000  N
  N140     1.0000 0.51920  0.48080  0.11900  Biso   1.000  N
  C239     1.0000 0.90400  0.45200  0.09130  Biso   1.000  C
  N141     1.0000 0.94900  0.47450  0.16900  Biso   1.000  N
  N142     1.0000 0.96160  0.48080  0.11900  Biso   1.000  N
  C240     1.0000 0.54800  0.09600  0.09130  Biso   1.000  C
  N143     1.0000 0.52550  0.05100  0.16900  Biso   1.000  N
  N144     1.0000 0.51920  0.03840  0.11900  Biso   1.000  N
  C241     1.0000 0.43190  0.32230  0.25000  Biso   1.000  C
  N145     1.0000 0.48840  0.32470  0.25000  Biso   1.000  N
  C242     1.0000 0.67770  0.10960  0.25000  Biso   1.000  C
  N146     1.0000 0.67530  0.16370  0.25000  Biso   1.000  N
  C243     1.0000 0.89040  0.56810  0.25000  Biso   1.000  C
  N147     1.0000 0.83630  0.51160  0.25000  Biso   1.000  N
  C244     1.0000 0.56810  0.67770  0.75000  Biso   1.000  C
  N148     1.0000 0.51160  0.67530  0.75000  Biso   1.000  N
  C245     1.0000 0.32230  0.89040  0.75000  Biso   1.000  C
  N149     1.0000 0.32470  0.83630  0.75000  Biso   1.000  N
  C246     1.0000 0.10960  0.43190  0.75000  Biso   1.000  C
  N150     1.0000 0.16370  0.48840  0.75000  Biso   1.000  N
  C247     1.0000 0.32230  0.43190  0.75000  Biso   1.000  C
  N151     1.0000 0.32470  0.48840  0.75000  Biso   1.000  N
  C248     1.0000 0.10960  0.67770  0.75000  Biso   1.000  C
  N152     1.0000 0.16370  0.67530  0.75000  Biso   1.000  N
  C249     1.0000 0.56810  0.89040  0.75000  Biso   1.000  C
  N153     1.0000 0.51160  0.83630  0.75000  Biso   1.000  N
  C250     1.0000 0.67770  0.56810  0.25000  Biso   1.000  C
  N154     1.0000 0.67530  0.51160  0.25000  Biso   1.000  N
  C251     1.0000 0.89040  0.32230  0.25000  Biso   1.000  C
  N155     1.0000 0.83630  0.32470  0.25000  Biso   1.000  N
  C252     1.0000 0.43190  0.10960  0.25000  Biso   1.000  C
  N156     1.0000 0.48840  0.16370  0.25000  Biso   1.000  N
  C253     1.0000 0.43590  0.21795  0.40440  Biso   1.000  C
  H181     1.0000 0.44210  0.22105  0.35600  Biso   1.000  H
  C254     1.0000 0.78205  0.21795  0.40440  Biso   1.000  C
  H182     1.0000 0.77895  0.22105  0.35600  Biso   1.000  H
  C255     1.0000 0.78205  0.56410  0.40440  Biso   1.000  C
  H183     1.0000 0.77895  0.55790  0.35600  Biso   1.000  H
  C256     1.0000 0.56410  0.78205  0.90440  Biso   1.000  C
  H184     1.0000 0.55790  0.77895  0.85600  Biso   1.000  H
  C257     1.0000 0.21795  0.78205  0.90440  Biso   1.000  C
  H185     1.0000 0.22105  0.77895  0.85600  Biso   1.000  H
  C258     1.0000 0.21795  0.43590  0.90440  Biso   1.000  C
  H186     1.0000 0.22105  0.44210  0.85600  Biso   1.000  H
  C259     1.0000 0.21795  0.43590  0.59560  Biso   1.000  C
  H187     1.0000 0.22105  0.44210  0.64400  Biso   1.000  H
  C260     1.0000 0.21795  0.78205  0.59560  Biso   1.000  C
  H188     1.0000 0.22105  0.77895  0.64400  Biso   1.000  H
  C261     1.0000 0.56410  0.78205  0.59560  Biso   1.000  C
  H189     1.0000 0.55790  0.77895  0.64400  Biso   1.000  H
  C262     1.0000 0.78205  0.56410  0.09560  Biso   1.000  C
  H190     1.0000 0.77895  0.55790  0.14400  Biso   1.000  H
  C263     1.0000 0.78205  0.21795  0.09560  Biso   1.000  C
  H191     1.0000 0.77895  0.22105  0.14400  Biso   1.000  H
  C264     1.0000 0.43590  0.21795  0.09560  Biso   1.000  C
  H192     1.0000 0.44210  0.22105  0.14400  Biso   1.000  H
