data_image0
_cell_length_a       19.6939
_cell_length_b       27.4554
_cell_length_c       41.4894
_cell_angle_alpha    90
_cell_angle_beta     90
_cell_angle_gamma    90

_symmetry_space_group_name_H-M    "P 1"
_symmetry_int_tables_number       1

loop_
  _symmetry_equiv_pos_as_xyz
  'x, y, z'

loop_
  _atom_site_label
  _atom_site_occupancy
  _atom_site_fract_x
  _atom_site_fract_y
  _atom_site_fract_z
  _atom_site_thermal_displace_type
  _atom_site_B_iso_or_equiv
  _atom_site_type_symbol
  Cu1      1.0000 0.18298  0.46137  0.09190  Biso   1.000  Cu
  Cu2      1.0000 0.14292  0.39080  0.02289  Biso   1.000  Cu
  Cl1      1.0000 0.22981  0.38199  0.05883  Biso   1.000  Cl
  N1       1.0000 0.15010  0.49158  0.99683  Biso   1.000  N
  N2       1.0000 0.15810  0.46257  0.02231  Biso   1.000  N
  N3       1.0000 0.16800  0.48935  0.04824  Biso   1.000  N
  N4       1.0000 0.16530  0.53643  0.04057  Biso   1.000  N
  N5       1.0000 0.30960  0.65907  0.93444  Biso   1.000  N
  N6       1.0000 0.34050  0.67851  0.90876  Biso   1.000  N
  N7       1.0000 0.29810  0.68096  0.88483  Biso   1.000  N
  N8       1.0000 0.23760  0.66356  0.89345  Biso   1.000  N
  C1       1.0000 0.15410  0.53660  0.00893  Biso   1.000  C
  C2       1.0000 0.14120  0.58080  0.98832  Biso   1.000  C
  C3       1.0000 0.20270  0.59150  0.96674  Biso   1.000  C
  H1       1.0000 0.24300  0.59830  0.98030  Biso   1.000  H
  H2       1.0000 0.21280  0.56280  0.95320  Biso   1.000  H
  C4       1.0000 0.18770  0.63550  0.94531  Biso   1.000  C
  H3       1.0000 0.13420  0.59660  0.91010  Biso   1.000  H
  H4       1.0000 0.08560  0.61750  0.02400  Biso   1.000  H
  C5       1.0000 0.07870  0.56980  0.96687  Biso   1.000  C
  H5       1.0000 0.03910  0.56210  0.98060  Biso   1.000  H
  H6       1.0000 0.08830  0.54110  0.95310  Biso   1.000  H
  C6       1.0000 0.24580  0.65030  0.92433  Biso   1.000  C
  O1       1.0000 0.12190  0.32260  0.02230  Biso   1.000  O
  N9       1.0000 0.13650  0.24360  0.00820  Biso   1.000  N
  C7       1.0000 0.15630  0.28810  0.01330  Biso   1.000  C
  H7       1.0000 0.20310  0.29460  0.00970  Biso   1.000  H
  C8       1.0000 0.06600  0.22900  0.00760  Biso   1.000  C
  H8       1.0000 0.03950  0.25090  0.02140  Biso   1.000  H
  H9       1.0000 0.06190  0.19560  0.01560  Biso   1.000  H
  H10      1.0000 0.04880  0.23080  0.98550  Biso   1.000  H
  C9       1.0000 0.18730  0.20520  0.00260  Biso   1.000  C
  H11      1.0000 0.17870  0.18960  0.98180  Biso   1.000  H
  H12      1.0000 0.18440  0.18090  0.01980  Biso   1.000  H
  H13      1.0000 0.23280  0.21970  0.00250  Biso   1.000  H
  O2       1.0000 0.07680  0.40610  0.98660  Biso   1.000  O
  N10      1.0000 0.01530  0.40580  0.94070  Biso   1.000  N
  C10      1.0000 0.04990  0.38430  0.96390  Biso   1.000  C
  H14      1.0000 0.05440  0.34990  0.96310  Biso   1.000  H
  C11      1.0000 0.98610  0.37760  0.91410  Biso   1.000  C
  H15      1.0000 0.01960  0.35390  0.90640  Biso   1.000  H
  H16      1.0000 0.97390  0.39970  0.89640  Biso   1.000  H
  H17      1.0000 0.94550  0.36050  0.92160  Biso   1.000  H
  C12      1.0000 0.00570  0.45900  0.94160  Biso   1.000  C
  H18      1.0000 0.96900  0.46700  0.95660  Biso   1.000  H
  H19      1.0000 0.99380  0.47060  0.92000  Biso   1.000  H
  H20      1.0000 0.04780  0.47460  0.94870  Biso   1.000  H
  O3       1.0000 0.09270  0.38760  0.97810  Biso   1.000  O
  N11      1.0000 0.07110  0.43750  0.93570  Biso   1.000  N
  C13      1.0000 0.10490  0.41940  0.95910  Biso   1.000  C
  H21      1.0000 0.14820  0.43390  0.96200  Biso   1.000  H
  C14      1.0000 0.10350  0.44930  0.90480  Biso   1.000  C
  H22      1.0000 0.15300  0.44880  0.90730  Biso   1.000  H
  H23      1.0000 0.08910  0.48180  0.89780  Biso   1.000  H
  H24      1.0000 0.09000  0.42520  0.88850  Biso   1.000  H
  C15      1.0000 0.99870  0.44830  0.93680  Biso   1.000  C
  H25      1.0000 0.97280  0.41790  0.93520  Biso   1.000  H
  H26      1.0000 0.98680  0.46960  0.91870  Biso   1.000  H
  H27      1.0000 0.98780  0.46470  0.95710  Biso   1.000  H
  Cl2      1.0000 0.13550  0.31140  0.01440  Biso   1.000  Cl
  Cu3      1.0000 0.18298  0.96137  0.59190  Biso   1.000  Cu
  Cu4      1.0000 0.14292  0.89080  0.52289  Biso   1.000  Cu
  Cl3      1.0000 0.22981  0.88199  0.55883  Biso   1.000  Cl
  N12      1.0000 0.15010  0.99158  0.49683  Biso   1.000  N
  N13      1.0000 0.15810  0.96257  0.52231  Biso   1.000  N
  N14      1.0000 0.16800  0.98935  0.54824  Biso   1.000  N
  N15      1.0000 0.16530  0.03643  0.54057  Biso   1.000  N
  N16      1.0000 0.30960  0.15907  0.43444  Biso   1.000  N
  N17      1.0000 0.34050  0.17851  0.40876  Biso   1.000  N
  N18      1.0000 0.29810  0.18096  0.38483  Biso   1.000  N
  N19      1.0000 0.23760  0.16356  0.39345  Biso   1.000  N
  C16      1.0000 0.15410  0.03660  0.50893  Biso   1.000  C
  C17      1.0000 0.14120  0.08080  0.48832  Biso   1.000  C
  C18      1.0000 0.20270  0.09150  0.46674  Biso   1.000  C
  H28      1.0000 0.24300  0.09830  0.48030  Biso   1.000  H
  H29      1.0000 0.21280  0.06280  0.45320  Biso   1.000  H
  C19      1.0000 0.18770  0.13550  0.44531  Biso   1.000  C
  H30      1.0000 0.13420  0.09660  0.41010  Biso   1.000  H
  H31      1.0000 0.08560  0.11750  0.52400  Biso   1.000  H
  C20      1.0000 0.07870  0.06980  0.46687  Biso   1.000  C
  H32      1.0000 0.03910  0.06210  0.48060  Biso   1.000  H
  H33      1.0000 0.08830  0.04110  0.45310  Biso   1.000  H
  C21      1.0000 0.24580  0.15030  0.42433  Biso   1.000  C
  O4       1.0000 0.12190  0.82260  0.52230  Biso   1.000  O
  N20      1.0000 0.13650  0.74360  0.50820  Biso   1.000  N
  C22      1.0000 0.15630  0.78810  0.51330  Biso   1.000  C
  H34      1.0000 0.20310  0.79460  0.50970  Biso   1.000  H
  C23      1.0000 0.06600  0.72900  0.50760  Biso   1.000  C
  H35      1.0000 0.03950  0.75090  0.52140  Biso   1.000  H
  H36      1.0000 0.06190  0.69560  0.51560  Biso   1.000  H
  H37      1.0000 0.04880  0.73080  0.48550  Biso   1.000  H
  C24      1.0000 0.18730  0.70520  0.50260  Biso   1.000  C
  H38      1.0000 0.17870  0.68960  0.48180  Biso   1.000  H
  H39      1.0000 0.18440  0.68090  0.51980  Biso   1.000  H
  H40      1.0000 0.23280  0.71970  0.50250  Biso   1.000  H
  O5       1.0000 0.07680  0.90610  0.48660  Biso   1.000  O
  N21      1.0000 0.01530  0.90580  0.44070  Biso   1.000  N
  C25      1.0000 0.04990  0.88430  0.46390  Biso   1.000  C
  H41      1.0000 0.05440  0.84990  0.46310  Biso   1.000  H
  C26      1.0000 0.98610  0.87760  0.41410  Biso   1.000  C
  H42      1.0000 0.01960  0.85390  0.40640  Biso   1.000  H
  H43      1.0000 0.97390  0.89970  0.39640  Biso   1.000  H
  H44      1.0000 0.94550  0.86050  0.42160  Biso   1.000  H
  C27      1.0000 0.00570  0.95900  0.44160  Biso   1.000  C
  H45      1.0000 0.96900  0.96700  0.45660  Biso   1.000  H
  H46      1.0000 0.99380  0.97060  0.42000  Biso   1.000  H
  H47      1.0000 0.04780  0.97460  0.44870  Biso   1.000  H
  O6       1.0000 0.09270  0.88760  0.47810  Biso   1.000  O
  N22      1.0000 0.07110  0.93750  0.43570  Biso   1.000  N
  C28      1.0000 0.10490  0.91940  0.45910  Biso   1.000  C
  H48      1.0000 0.14820  0.93390  0.46200  Biso   1.000  H
  C29      1.0000 0.10350  0.94930  0.40480  Biso   1.000  C
  H49      1.0000 0.15300  0.94880  0.40730  Biso   1.000  H
  H50      1.0000 0.08910  0.98180  0.39780  Biso   1.000  H
  H51      1.0000 0.09000  0.92520  0.38850  Biso   1.000  H
  C30      1.0000 0.99870  0.94830  0.43680  Biso   1.000  C
  H52      1.0000 0.97280  0.91790  0.43520  Biso   1.000  H
  H53      1.0000 0.98680  0.96960  0.41870  Biso   1.000  H
  H54      1.0000 0.98780  0.96470  0.45710  Biso   1.000  H
  Cl4      1.0000 0.13550  0.81140  0.51440  Biso   1.000  Cl
  Cu5      1.0000 0.68298  0.46137  0.59190  Biso   1.000  Cu
  Cu6      1.0000 0.64292  0.39080  0.52289  Biso   1.000  Cu
  Cl5      1.0000 0.72981  0.38199  0.55883  Biso   1.000  Cl
  N23      1.0000 0.65010  0.49158  0.49683  Biso   1.000  N
  N24      1.0000 0.65810  0.46257  0.52231  Biso   1.000  N
  N25      1.0000 0.66800  0.48935  0.54824  Biso   1.000  N
  N26      1.0000 0.66530  0.53643  0.54057  Biso   1.000  N
  N27      1.0000 0.80960  0.65907  0.43444  Biso   1.000  N
  N28      1.0000 0.84050  0.67851  0.40876  Biso   1.000  N
  N29      1.0000 0.79810  0.68096  0.38483  Biso   1.000  N
  N30      1.0000 0.73760  0.66356  0.39345  Biso   1.000  N
  C31      1.0000 0.65410  0.53660  0.50893  Biso   1.000  C
  C32      1.0000 0.64120  0.58080  0.48832  Biso   1.000  C
  C33      1.0000 0.70270  0.59150  0.46674  Biso   1.000  C
  H55      1.0000 0.74300  0.59830  0.48030  Biso   1.000  H
  H56      1.0000 0.71280  0.56280  0.45320  Biso   1.000  H
  C34      1.0000 0.68770  0.63550  0.44531  Biso   1.000  C
  H57      1.0000 0.63420  0.59660  0.41010  Biso   1.000  H
  H58      1.0000 0.58560  0.61750  0.52400  Biso   1.000  H
  C35      1.0000 0.57870  0.56980  0.46687  Biso   1.000  C
  H59      1.0000 0.53910  0.56210  0.48060  Biso   1.000  H
  H60      1.0000 0.58830  0.54110  0.45310  Biso   1.000  H
  C36      1.0000 0.74580  0.65030  0.42433  Biso   1.000  C
  O7       1.0000 0.62190  0.32260  0.52230  Biso   1.000  O
  N31      1.0000 0.63650  0.24360  0.50820  Biso   1.000  N
  C37      1.0000 0.65630  0.28810  0.51330  Biso   1.000  C
  H61      1.0000 0.70310  0.29460  0.50970  Biso   1.000  H
  C38      1.0000 0.56600  0.22900  0.50760  Biso   1.000  C
  H62      1.0000 0.53950  0.25090  0.52140  Biso   1.000  H
  H63      1.0000 0.56190  0.19560  0.51560  Biso   1.000  H
  H64      1.0000 0.54880  0.23080  0.48550  Biso   1.000  H
  C39      1.0000 0.68730  0.20520  0.50260  Biso   1.000  C
  H65      1.0000 0.67870  0.18960  0.48180  Biso   1.000  H
  H66      1.0000 0.68440  0.18090  0.51980  Biso   1.000  H
  H67      1.0000 0.73280  0.21970  0.50250  Biso   1.000  H
  O8       1.0000 0.57680  0.40610  0.48660  Biso   1.000  O
  N32      1.0000 0.51530  0.40580  0.44070  Biso   1.000  N
  C40      1.0000 0.54990  0.38430  0.46390  Biso   1.000  C
  H68      1.0000 0.55440  0.34990  0.46310  Biso   1.000  H
  C41      1.0000 0.48610  0.37760  0.41410  Biso   1.000  C
  H69      1.0000 0.51960  0.35390  0.40640  Biso   1.000  H
  H70      1.0000 0.47390  0.39970  0.39640  Biso   1.000  H
  H71      1.0000 0.44550  0.36050  0.42160  Biso   1.000  H
  C42      1.0000 0.50570  0.45900  0.44160  Biso   1.000  C
  H72      1.0000 0.46900  0.46700  0.45660  Biso   1.000  H
  H73      1.0000 0.49380  0.47060  0.42000  Biso   1.000  H
  H74      1.0000 0.54780  0.47460  0.44870  Biso   1.000  H
  O9       1.0000 0.59270  0.38760  0.47810  Biso   1.000  O
  N33      1.0000 0.57110  0.43750  0.43570  Biso   1.000  N
  C43      1.0000 0.60490  0.41940  0.45910  Biso   1.000  C
  H75      1.0000 0.64820  0.43390  0.46200  Biso   1.000  H
  C44      1.0000 0.60350  0.44930  0.40480  Biso   1.000  C
  H76      1.0000 0.65300  0.44880  0.40730  Biso   1.000  H
  H77      1.0000 0.58910  0.48180  0.39780  Biso   1.000  H
  H78      1.0000 0.59000  0.42520  0.38850  Biso   1.000  H
  C45      1.0000 0.49870  0.44830  0.43680  Biso   1.000  C
  H79      1.0000 0.47280  0.41790  0.43520  Biso   1.000  H
  H80      1.0000 0.48680  0.46960  0.41870  Biso   1.000  H
  H81      1.0000 0.48780  0.46470  0.45710  Biso   1.000  H
  Cl6      1.0000 0.63550  0.31140  0.51440  Biso   1.000  Cl
  Cu7      1.0000 0.68298  0.96137  0.09190  Biso   1.000  Cu
  Cu8      1.0000 0.64292  0.89080  0.02289  Biso   1.000  Cu
  Cl7      1.0000 0.72981  0.88199  0.05883  Biso   1.000  Cl
  N34      1.0000 0.65010  0.99158  0.99683  Biso   1.000  N
  N35      1.0000 0.65810  0.96257  0.02231  Biso   1.000  N
  N36      1.0000 0.66800  0.98935  0.04824  Biso   1.000  N
  N37      1.0000 0.66530  0.03643  0.04057  Biso   1.000  N
  N38      1.0000 0.80960  0.15907  0.93444  Biso   1.000  N
  N39      1.0000 0.84050  0.17851  0.90876  Biso   1.000  N
  N40      1.0000 0.79810  0.18096  0.88483  Biso   1.000  N
  N41      1.0000 0.73760  0.16356  0.89345  Biso   1.000  N
  C46      1.0000 0.65410  0.03660  0.00893  Biso   1.000  C
  C47      1.0000 0.64120  0.08080  0.98832  Biso   1.000  C
  C48      1.0000 0.70270  0.09150  0.96674  Biso   1.000  C
  H82      1.0000 0.74300  0.09830  0.98030  Biso   1.000  H
  H83      1.0000 0.71280  0.06280  0.95320  Biso   1.000  H
  C49      1.0000 0.68770  0.13550  0.94531  Biso   1.000  C
  H84      1.0000 0.63420  0.09660  0.91010  Biso   1.000  H
  H85      1.0000 0.58560  0.11750  0.02400  Biso   1.000  H
  C50      1.0000 0.57870  0.06980  0.96687  Biso   1.000  C
  H86      1.0000 0.53910  0.06210  0.98060  Biso   1.000  H
  H87      1.0000 0.58830  0.04110  0.95310  Biso   1.000  H
  C51      1.0000 0.74580  0.15030  0.92433  Biso   1.000  C
  O10      1.0000 0.62190  0.82260  0.02230  Biso   1.000  O
  N42      1.0000 0.63650  0.74360  0.00820  Biso   1.000  N
  C52      1.0000 0.65630  0.78810  0.01330  Biso   1.000  C
  H88      1.0000 0.70310  0.79460  0.00970  Biso   1.000  H
  C53      1.0000 0.56600  0.72900  0.00760  Biso   1.000  C
  H89      1.0000 0.53950  0.75090  0.02140  Biso   1.000  H
  H90      1.0000 0.56190  0.69560  0.01560  Biso   1.000  H
  H91      1.0000 0.54880  0.73080  0.98550  Biso   1.000  H
  C54      1.0000 0.68730  0.70520  0.00260  Biso   1.000  C
  H92      1.0000 0.67870  0.68960  0.98180  Biso   1.000  H
  H93      1.0000 0.68440  0.68090  0.01980  Biso   1.000  H
  H94      1.0000 0.73280  0.71970  0.00250  Biso   1.000  H
  O11      1.0000 0.57680  0.90610  0.98660  Biso   1.000  O
  N43      1.0000 0.51530  0.90580  0.94070  Biso   1.000  N
  C55      1.0000 0.54990  0.88430  0.96390  Biso   1.000  C
  H95      1.0000 0.55440  0.84990  0.96310  Biso   1.000  H
  C56      1.0000 0.48610  0.87760  0.91410  Biso   1.000  C
  H96      1.0000 0.51960  0.85390  0.90640  Biso   1.000  H
  H97      1.0000 0.47390  0.89970  0.89640  Biso   1.000  H
  H98      1.0000 0.44550  0.86050  0.92160  Biso   1.000  H
  C57      1.0000 0.50570  0.95900  0.94160  Biso   1.000  C
  H99      1.0000 0.46900  0.96700  0.95660  Biso   1.000  H
  H100     1.0000 0.49380  0.97060  0.92000  Biso   1.000  H
  H101     1.0000 0.54780  0.97460  0.94870  Biso   1.000  H
  O12      1.0000 0.59270  0.88760  0.97810  Biso   1.000  O
  N44      1.0000 0.57110  0.93750  0.93570  Biso   1.000  N
  C58      1.0000 0.60490  0.91940  0.95910  Biso   1.000  C
  H102     1.0000 0.64820  0.93390  0.96200  Biso   1.000  H
  C59      1.0000 0.60350  0.94930  0.90480  Biso   1.000  C
  H103     1.0000 0.65300  0.94880  0.90730  Biso   1.000  H
  H104     1.0000 0.58910  0.98180  0.89780  Biso   1.000  H
  H105     1.0000 0.59000  0.92520  0.88850  Biso   1.000  H
  C60      1.0000 0.49870  0.94830  0.93680  Biso   1.000  C
  H106     1.0000 0.47280  0.91790  0.93520  Biso   1.000  H
  H107     1.0000 0.48680  0.96960  0.91870  Biso   1.000  H
  H108     1.0000 0.48780  0.96470  0.95710  Biso   1.000  H
  Cl8      1.0000 0.63550  0.81140  0.01440  Biso   1.000  Cl
  Cu9      1.0000 0.56702  0.28863  0.09190  Biso   1.000  Cu
  Cu10     1.0000 0.60708  0.35920  0.02289  Biso   1.000  Cu
  Cl9      1.0000 0.52019  0.36801  0.05883  Biso   1.000  Cl
  N45      1.0000 0.59990  0.25842  0.99683  Biso   1.000  N
  N46      1.0000 0.59190  0.28743  0.02231  Biso   1.000  N
  N47      1.0000 0.58200  0.26065  0.04824  Biso   1.000  N
  N48      1.0000 0.58470  0.21357  0.04057  Biso   1.000  N
  N49      1.0000 0.44040  0.09093  0.93444  Biso   1.000  N
  N50      1.0000 0.40950  0.07149  0.90876  Biso   1.000  N
  N51      1.0000 0.45190  0.06904  0.88483  Biso   1.000  N
  N52      1.0000 0.51240  0.08644  0.89345  Biso   1.000  N
  C61      1.0000 0.59590  0.21340  0.00893  Biso   1.000  C
  C62      1.0000 0.60880  0.16920  0.98832  Biso   1.000  C
  C63      1.0000 0.54730  0.15850  0.96674  Biso   1.000  C
  H109     1.0000 0.50700  0.15170  0.98030  Biso   1.000  H
  H110     1.0000 0.53720  0.18720  0.95320  Biso   1.000  H
  C64      1.0000 0.56230  0.11450  0.94531  Biso   1.000  C
  H111     1.0000 0.61580  0.15340  0.91010  Biso   1.000  H
  H112     1.0000 0.66440  0.13250  0.02400  Biso   1.000  H
  C65      1.0000 0.67130  0.18020  0.96687  Biso   1.000  C
  H113     1.0000 0.71090  0.18790  0.98060  Biso   1.000  H
  H114     1.0000 0.66170  0.20890  0.95310  Biso   1.000  H
  C66      1.0000 0.50420  0.09970  0.92433  Biso   1.000  C
  O13      1.0000 0.62810  0.42740  0.02230  Biso   1.000  O
  N53      1.0000 0.61350  0.50640  0.00820  Biso   1.000  N
  C67      1.0000 0.59370  0.46190  0.01330  Biso   1.000  C
  H115     1.0000 0.54690  0.45540  0.00970  Biso   1.000  H
  C68      1.0000 0.68400  0.52100  0.00760  Biso   1.000  C
  H116     1.0000 0.71050  0.49910  0.02140  Biso   1.000  H
  H117     1.0000 0.68810  0.55440  0.01560  Biso   1.000  H
  H118     1.0000 0.70120  0.51920  0.98550  Biso   1.000  H
  C69      1.0000 0.56270  0.54480  0.00260  Biso   1.000  C
  H119     1.0000 0.57130  0.56040  0.98180  Biso   1.000  H
  H120     1.0000 0.56560  0.56910  0.01980  Biso   1.000  H
  H121     1.0000 0.51720  0.53030  0.00250  Biso   1.000  H
  O14      1.0000 0.67320  0.34390  0.98660  Biso   1.000  O
  N54      1.0000 0.73470  0.34420  0.94070  Biso   1.000  N
  C70      1.0000 0.70010  0.36570  0.96390  Biso   1.000  C
  H122     1.0000 0.69560  0.40010  0.96310  Biso   1.000  H
  C71      1.0000 0.76390  0.37240  0.91410  Biso   1.000  C
  H123     1.0000 0.73040  0.39610  0.90640  Biso   1.000  H
  H124     1.0000 0.77610  0.35030  0.89640  Biso   1.000  H
  H125     1.0000 0.80450  0.38950  0.92160  Biso   1.000  H
  C72      1.0000 0.74430  0.29100  0.94160  Biso   1.000  C
  H126     1.0000 0.78100  0.28300  0.95660  Biso   1.000  H
  H127     1.0000 0.75620  0.27940  0.92000  Biso   1.000  H
  H128     1.0000 0.70220  0.27540  0.94870  Biso   1.000  H
  O15      1.0000 0.65730  0.36240  0.97810  Biso   1.000  O
  N55      1.0000 0.67890  0.31250  0.93570  Biso   1.000  N
  C73      1.0000 0.64510  0.33060  0.95910  Biso   1.000  C
  H129     1.0000 0.60180  0.31610  0.96200  Biso   1.000  H
  C74      1.0000 0.64650  0.30070  0.90480  Biso   1.000  C
  H130     1.0000 0.59700  0.30120  0.90730  Biso   1.000  H
  H131     1.0000 0.66090  0.26820  0.89780  Biso   1.000  H
  H132     1.0000 0.66000  0.32480  0.88850  Biso   1.000  H
  C75      1.0000 0.75130  0.30170  0.93680  Biso   1.000  C
  H133     1.0000 0.77720  0.33210  0.93520  Biso   1.000  H
  H134     1.0000 0.76320  0.28040  0.91870  Biso   1.000  H
  H135     1.0000 0.76220  0.28530  0.95710  Biso   1.000  H
  Cl10     1.0000 0.61450  0.43860  0.01440  Biso   1.000  Cl
  Cu11     1.0000 0.56702  0.78863  0.59190  Biso   1.000  Cu
  Cu12     1.0000 0.60708  0.85920  0.52289  Biso   1.000  Cu
  Cl11     1.0000 0.52019  0.86801  0.55883  Biso   1.000  Cl
  N56      1.0000 0.59990  0.75842  0.49683  Biso   1.000  N
  N57      1.0000 0.59190  0.78743  0.52231  Biso   1.000  N
  N58      1.0000 0.58200  0.76065  0.54824  Biso   1.000  N
  N59      1.0000 0.58470  0.71357  0.54057  Biso   1.000  N
  N60      1.0000 0.44040  0.59093  0.43444  Biso   1.000  N
  N61      1.0000 0.40950  0.57149  0.40876  Biso   1.000  N
  N62      1.0000 0.45190  0.56904  0.38483  Biso   1.000  N
  N63      1.0000 0.51240  0.58644  0.39345  Biso   1.000  N
  C76      1.0000 0.59590  0.71340  0.50893  Biso   1.000  C
  C77      1.0000 0.60880  0.66920  0.48832  Biso   1.000  C
  C78      1.0000 0.54730  0.65850  0.46674  Biso   1.000  C
  H136     1.0000 0.50700  0.65170  0.48030  Biso   1.000  H
  H137     1.0000 0.53720  0.68720  0.45320  Biso   1.000  H
  C79      1.0000 0.56230  0.61450  0.44531  Biso   1.000  C
  H138     1.0000 0.61580  0.65340  0.41010  Biso   1.000  H
  H139     1.0000 0.66440  0.63250  0.52400  Biso   1.000  H
  C80      1.0000 0.67130  0.68020  0.46687  Biso   1.000  C
  H140     1.0000 0.71090  0.68790  0.48060  Biso   1.000  H
  H141     1.0000 0.66170  0.70890  0.45310  Biso   1.000  H
  C81      1.0000 0.50420  0.59970  0.42433  Biso   1.000  C
  O16      1.0000 0.62810  0.92740  0.52230  Biso   1.000  O
  N64      1.0000 0.61350  0.00640  0.50820  Biso   1.000  N
  C82      1.0000 0.59370  0.96190  0.51330  Biso   1.000  C
  H142     1.0000 0.54690  0.95540  0.50970  Biso   1.000  H
  C83      1.0000 0.68400  0.02100  0.50760  Biso   1.000  C
  H143     1.0000 0.71050  0.99910  0.52140  Biso   1.000  H
  H144     1.0000 0.68810  0.05440  0.51560  Biso   1.000  H
  H145     1.0000 0.70120  0.01920  0.48550  Biso   1.000  H
  C84      1.0000 0.56270  0.04480  0.50260  Biso   1.000  C
  H146     1.0000 0.57130  0.06040  0.48180  Biso   1.000  H
  H147     1.0000 0.56560  0.06910  0.51980  Biso   1.000  H
  H148     1.0000 0.51720  0.03030  0.50250  Biso   1.000  H
  O17      1.0000 0.67320  0.84390  0.48660  Biso   1.000  O
  N65      1.0000 0.73470  0.84420  0.44070  Biso   1.000  N
  C85      1.0000 0.70010  0.86570  0.46390  Biso   1.000  C
  H149     1.0000 0.69560  0.90010  0.46310  Biso   1.000  H
  C86      1.0000 0.76390  0.87240  0.41410  Biso   1.000  C
  H150     1.0000 0.73040  0.89610  0.40640  Biso   1.000  H
  H151     1.0000 0.77610  0.85030  0.39640  Biso   1.000  H
  H152     1.0000 0.80450  0.88950  0.42160  Biso   1.000  H
  C87      1.0000 0.74430  0.79100  0.44160  Biso   1.000  C
  H153     1.0000 0.78100  0.78300  0.45660  Biso   1.000  H
  H154     1.0000 0.75620  0.77940  0.42000  Biso   1.000  H
  H155     1.0000 0.70220  0.77540  0.44870  Biso   1.000  H
  O18      1.0000 0.65730  0.86240  0.47810  Biso   1.000  O
  N66      1.0000 0.67890  0.81250  0.43570  Biso   1.000  N
  C88      1.0000 0.64510  0.83060  0.45910  Biso   1.000  C
  H156     1.0000 0.60180  0.81610  0.46200  Biso   1.000  H
  C89      1.0000 0.64650  0.80070  0.40480  Biso   1.000  C
  H157     1.0000 0.59700  0.80120  0.40730  Biso   1.000  H
  H158     1.0000 0.66090  0.76820  0.39780  Biso   1.000  H
  H159     1.0000 0.66000  0.82480  0.38850  Biso   1.000  H
  C90      1.0000 0.75130  0.80170  0.43680  Biso   1.000  C
  H160     1.0000 0.77720  0.83210  0.43520  Biso   1.000  H
  H161     1.0000 0.76320  0.78040  0.41870  Biso   1.000  H
  H162     1.0000 0.76220  0.78530  0.45710  Biso   1.000  H
  Cl12     1.0000 0.61450  0.93860  0.51440  Biso   1.000  Cl
  Cu13     1.0000 0.06702  0.28863  0.59190  Biso   1.000  Cu
  Cu14     1.0000 0.10708  0.35920  0.52289  Biso   1.000  Cu
  Cl13     1.0000 0.02019  0.36801  0.55883  Biso   1.000  Cl
  N67      1.0000 0.09990  0.25842  0.49683  Biso   1.000  N
  N68      1.0000 0.09190  0.28743  0.52231  Biso   1.000  N
  N69      1.0000 0.08200  0.26065  0.54824  Biso   1.000  N
  N70      1.0000 0.08470  0.21357  0.54057  Biso   1.000  N
  N71      1.0000 0.94040  0.09093  0.43444  Biso   1.000  N
  N72      1.0000 0.90950  0.07149  0.40876  Biso   1.000  N
  N73      1.0000 0.95190  0.06904  0.38483  Biso   1.000  N
  N74      1.0000 0.01240  0.08644  0.39345  Biso   1.000  N
  C91      1.0000 0.09590  0.21340  0.50893  Biso   1.000  C
  C92      1.0000 0.10880  0.16920  0.48832  Biso   1.000  C
  C93      1.0000 0.04730  0.15850  0.46674  Biso   1.000  C
  H163     1.0000 0.00700  0.15170  0.48030  Biso   1.000  H
  H164     1.0000 0.03720  0.18720  0.45320  Biso   1.000  H
  C94      1.0000 0.06230  0.11450  0.44531  Biso   1.000  C
  H165     1.0000 0.11580  0.15340  0.41010  Biso   1.000  H
  H166     1.0000 0.16440  0.13250  0.52400  Biso   1.000  H
  C95      1.0000 0.17130  0.18020  0.46687  Biso   1.000  C
  H167     1.0000 0.21090  0.18790  0.48060  Biso   1.000  H
  H168     1.0000 0.16170  0.20890  0.45310  Biso   1.000  H
  C96      1.0000 0.00420  0.09970  0.42433  Biso   1.000  C
  O19      1.0000 0.12810  0.42740  0.52230  Biso   1.000  O
  N75      1.0000 0.11350  0.50640  0.50820  Biso   1.000  N
  C97      1.0000 0.09370  0.46190  0.51330  Biso   1.000  C
  H169     1.0000 0.04690  0.45540  0.50970  Biso   1.000  H
  C98      1.0000 0.18400  0.52100  0.50760  Biso   1.000  C
  H170     1.0000 0.21050  0.49910  0.52140  Biso   1.000  H
  H171     1.0000 0.18810  0.55440  0.51560  Biso   1.000  H
  H172     1.0000 0.20120  0.51920  0.48550  Biso   1.000  H
  C99      1.0000 0.06270  0.54480  0.50260  Biso   1.000  C
  H173     1.0000 0.07130  0.56040  0.48180  Biso   1.000  H
  H174     1.0000 0.06560  0.56910  0.51980  Biso   1.000  H
  H175     1.0000 0.01720  0.53030  0.50250  Biso   1.000  H
  O20      1.0000 0.17320  0.34390  0.48660  Biso   1.000  O
  N76      1.0000 0.23470  0.34420  0.44070  Biso   1.000  N
  C100     1.0000 0.20010  0.36570  0.46390  Biso   1.000  C
  H176     1.0000 0.19560  0.40010  0.46310  Biso   1.000  H
  C101     1.0000 0.26390  0.37240  0.41410  Biso   1.000  C
  H177     1.0000 0.23040  0.39610  0.40640  Biso   1.000  H
  H178     1.0000 0.27610  0.35030  0.39640  Biso   1.000  H
  H179     1.0000 0.30450  0.38950  0.42160  Biso   1.000  H
  C102     1.0000 0.24430  0.29100  0.44160  Biso   1.000  C
  H180     1.0000 0.28100  0.28300  0.45660  Biso   1.000  H
  H181     1.0000 0.25620  0.27940  0.42000  Biso   1.000  H
  H182     1.0000 0.20220  0.27540  0.44870  Biso   1.000  H
  O21      1.0000 0.15730  0.36240  0.47810  Biso   1.000  O
  N77      1.0000 0.17890  0.31250  0.43570  Biso   1.000  N
  C103     1.0000 0.14510  0.33060  0.45910  Biso   1.000  C
  H183     1.0000 0.10180  0.31610  0.46200  Biso   1.000  H
  C104     1.0000 0.14650  0.30070  0.40480  Biso   1.000  C
  H184     1.0000 0.09700  0.30120  0.40730  Biso   1.000  H
  H185     1.0000 0.16090  0.26820  0.39780  Biso   1.000  H
  H186     1.0000 0.16000  0.32480  0.38850  Biso   1.000  H
  C105     1.0000 0.25130  0.30170  0.43680  Biso   1.000  C
  H187     1.0000 0.27720  0.33210  0.43520  Biso   1.000  H
  H188     1.0000 0.26320  0.28040  0.41870  Biso   1.000  H
  H189     1.0000 0.26220  0.28530  0.45710  Biso   1.000  H
  Cl14     1.0000 0.11450  0.43860  0.51440  Biso   1.000  Cl
  Cu15     1.0000 0.06702  0.78863  0.09190  Biso   1.000  Cu
  Cu16     1.0000 0.10708  0.85920  0.02289  Biso   1.000  Cu
  Cl15     1.0000 0.02019  0.86801  0.05883  Biso   1.000  Cl
  N78      1.0000 0.09990  0.75842  0.99683  Biso   1.000  N
  N79      1.0000 0.09190  0.78743  0.02231  Biso   1.000  N
  N80      1.0000 0.08200  0.76065  0.04824  Biso   1.000  N
  N81      1.0000 0.08470  0.71357  0.04057  Biso   1.000  N
  N82      1.0000 0.94040  0.59093  0.93444  Biso   1.000  N
  N83      1.0000 0.90950  0.57149  0.90876  Biso   1.000  N
  N84      1.0000 0.95190  0.56904  0.88483  Biso   1.000  N
  N85      1.0000 0.01240  0.58644  0.89345  Biso   1.000  N
  C106     1.0000 0.09590  0.71340  0.00893  Biso   1.000  C
  C107     1.0000 0.10880  0.66920  0.98832  Biso   1.000  C
  C108     1.0000 0.04730  0.65850  0.96674  Biso   1.000  C
  H190     1.0000 0.00700  0.65170  0.98030  Biso   1.000  H
  H191     1.0000 0.03720  0.68720  0.95320  Biso   1.000  H
  C109     1.0000 0.06230  0.61450  0.94531  Biso   1.000  C
  H192     1.0000 0.11580  0.65340  0.91010  Biso   1.000  H
  H193     1.0000 0.16440  0.63250  0.02400  Biso   1.000  H
  C110     1.0000 0.17130  0.68020  0.96687  Biso   1.000  C
  H194     1.0000 0.21090  0.68790  0.98060  Biso   1.000  H
  H195     1.0000 0.16170  0.70890  0.95310  Biso   1.000  H
  C111     1.0000 0.00420  0.59970  0.92433  Biso   1.000  C
  O22      1.0000 0.12810  0.92740  0.02230  Biso   1.000  O
  N86      1.0000 0.11350  0.00640  0.00820  Biso   1.000  N
  C112     1.0000 0.09370  0.96190  0.01330  Biso   1.000  C
  H196     1.0000 0.04690  0.95540  0.00970  Biso   1.000  H
  C113     1.0000 0.18400  0.02100  0.00760  Biso   1.000  C
  H197     1.0000 0.21050  0.99910  0.02140  Biso   1.000  H
  H198     1.0000 0.18810  0.05440  0.01560  Biso   1.000  H
  H199     1.0000 0.20120  0.01920  0.98550  Biso   1.000  H
  C114     1.0000 0.06270  0.04480  0.00260  Biso   1.000  C
  H200     1.0000 0.07130  0.06040  0.98180  Biso   1.000  H
  H201     1.0000 0.06560  0.06910  0.01980  Biso   1.000  H
  H202     1.0000 0.01720  0.03030  0.00250  Biso   1.000  H
  O23      1.0000 0.17320  0.84390  0.98660  Biso   1.000  O
  N87      1.0000 0.23470  0.84420  0.94070  Biso   1.000  N
  C115     1.0000 0.20010  0.86570  0.96390  Biso   1.000  C
  H203     1.0000 0.19560  0.90010  0.96310  Biso   1.000  H
  C116     1.0000 0.26390  0.87240  0.91410  Biso   1.000  C
  H204     1.0000 0.23040  0.89610  0.90640  Biso   1.000  H
  H205     1.0000 0.27610  0.85030  0.89640  Biso   1.000  H
  H206     1.0000 0.30450  0.88950  0.92160  Biso   1.000  H
  C117     1.0000 0.24430  0.79100  0.94160  Biso   1.000  C
  H207     1.0000 0.28100  0.78300  0.95660  Biso   1.000  H
  H208     1.0000 0.25620  0.77940  0.92000  Biso   1.000  H
  H209     1.0000 0.20220  0.77540  0.94870  Biso   1.000  H
  O24      1.0000 0.15730  0.86240  0.97810  Biso   1.000  O
  N88      1.0000 0.17890  0.81250  0.93570  Biso   1.000  N
  C118     1.0000 0.14510  0.83060  0.95910  Biso   1.000  C
  H210     1.0000 0.10180  0.81610  0.96200  Biso   1.000  H
  C119     1.0000 0.14650  0.80070  0.90480  Biso   1.000  C
  H211     1.0000 0.09700  0.80120  0.90730  Biso   1.000  H
  H212     1.0000 0.16090  0.76820  0.89780  Biso   1.000  H
  H213     1.0000 0.16000  0.82480  0.88850  Biso   1.000  H
  C120     1.0000 0.25130  0.80170  0.93680  Biso   1.000  C
  H214     1.0000 0.27720  0.83210  0.93520  Biso   1.000  H
  H215     1.0000 0.26320  0.78040  0.91870  Biso   1.000  H
  H216     1.0000 0.26220  0.78530  0.95710  Biso   1.000  H
  Cl16     1.0000 0.11450  0.93860  0.01440  Biso   1.000  Cl
  Cu17     1.0000 0.56702  0.46137  0.65810  Biso   1.000  Cu
  Cu18     1.0000 0.60708  0.39080  0.72711  Biso   1.000  Cu
  Cl17     1.0000 0.52019  0.38199  0.69117  Biso   1.000  Cl
  N89      1.0000 0.59990  0.49158  0.75317  Biso   1.000  N
  N90      1.0000 0.59190  0.46257  0.72769  Biso   1.000  N
  N91      1.0000 0.58200  0.48935  0.70176  Biso   1.000  N
  N92      1.0000 0.58470  0.53643  0.70943  Biso   1.000  N
  N93      1.0000 0.44040  0.65907  0.81556  Biso   1.000  N
  N94      1.0000 0.40950  0.67851  0.84124  Biso   1.000  N
  N95      1.0000 0.45190  0.68096  0.86517  Biso   1.000  N
  N96      1.0000 0.51240  0.66356  0.85655  Biso   1.000  N
  C121     1.0000 0.59590  0.53660  0.74107  Biso   1.000  C
  C122     1.0000 0.60880  0.58080  0.76168  Biso   1.000  C
  C123     1.0000 0.54730  0.59150  0.78326  Biso   1.000  C
  H217     1.0000 0.50700  0.59830  0.76970  Biso   1.000  H
  H218     1.0000 0.53720  0.56280  0.79680  Biso   1.000  H
  C124     1.0000 0.56230  0.63550  0.80469  Biso   1.000  C
  H219     1.0000 0.61580  0.59660  0.83990  Biso   1.000  H
  H220     1.0000 0.66440  0.61750  0.72600  Biso   1.000  H
  C125     1.0000 0.67130  0.56980  0.78313  Biso   1.000  C
  H221     1.0000 0.71090  0.56210  0.76940  Biso   1.000  H
  H222     1.0000 0.66170  0.54110  0.79690  Biso   1.000  H
  C126     1.0000 0.50420  0.65030  0.82567  Biso   1.000  C
  O25      1.0000 0.62810  0.32260  0.72770  Biso   1.000  O
  N97      1.0000 0.61350  0.24360  0.74180  Biso   1.000  N
  C127     1.0000 0.59370  0.28810  0.73670  Biso   1.000  C
  H223     1.0000 0.54690  0.29460  0.74030  Biso   1.000  H
  C128     1.0000 0.68400  0.22900  0.74240  Biso   1.000  C
  H224     1.0000 0.71050  0.25090  0.72860  Biso   1.000  H
  H225     1.0000 0.68810  0.19560  0.73440  Biso   1.000  H
  H226     1.0000 0.70120  0.23080  0.76450  Biso   1.000  H
  C129     1.0000 0.56270  0.20520  0.74740  Biso   1.000  C
  H227     1.0000 0.57130  0.18960  0.76820  Biso   1.000  H
  H228     1.0000 0.56560  0.18090  0.73020  Biso   1.000  H
  H229     1.0000 0.51720  0.21970  0.74750  Biso   1.000  H
  O26      1.0000 0.67320  0.40610  0.76340  Biso   1.000  O
  N98      1.0000 0.73470  0.40580  0.80930  Biso   1.000  N
  C130     1.0000 0.70010  0.38430  0.78610  Biso   1.000  C
  H230     1.0000 0.69560  0.34990  0.78690  Biso   1.000  H
  C131     1.0000 0.76390  0.37760  0.83590  Biso   1.000  C
  H231     1.0000 0.73040  0.35390  0.84360  Biso   1.000  H
  H232     1.0000 0.77610  0.39970  0.85360  Biso   1.000  H
  H233     1.0000 0.80450  0.36050  0.82840  Biso   1.000  H
  C132     1.0000 0.74430  0.45900  0.80840  Biso   1.000  C
  H234     1.0000 0.78100  0.46700  0.79340  Biso   1.000  H
  H235     1.0000 0.75620  0.47060  0.83000  Biso   1.000  H
  H236     1.0000 0.70220  0.47460  0.80130  Biso   1.000  H
  O27      1.0000 0.65730  0.38760  0.77190  Biso   1.000  O
  N99      1.0000 0.67890  0.43750  0.81430  Biso   1.000  N
  C133     1.0000 0.64510  0.41940  0.79090  Biso   1.000  C
  H237     1.0000 0.60180  0.43390  0.78800  Biso   1.000  H
  C134     1.0000 0.64650  0.44930  0.84520  Biso   1.000  C
  H238     1.0000 0.59700  0.44880  0.84270  Biso   1.000  H
  H239     1.0000 0.66090  0.48180  0.85220  Biso   1.000  H
  H240     1.0000 0.66000  0.42520  0.86150  Biso   1.000  H
  C135     1.0000 0.75130  0.44830  0.81320  Biso   1.000  C
  H241     1.0000 0.77720  0.41790  0.81480  Biso   1.000  H
  H242     1.0000 0.76320  0.46960  0.83130  Biso   1.000  H
  H243     1.0000 0.76220  0.46470  0.79290  Biso   1.000  H
  Cl18     1.0000 0.61450  0.31140  0.73560  Biso   1.000  Cl
  Cu19     1.0000 0.56702  0.96137  0.15810  Biso   1.000  Cu
  Cu20     1.0000 0.60708  0.89080  0.22711  Biso   1.000  Cu
  Cl19     1.0000 0.52019  0.88199  0.19117  Biso   1.000  Cl
  N100     1.0000 0.59990  0.99158  0.25317  Biso   1.000  N
  N101     1.0000 0.59190  0.96257  0.22769  Biso   1.000  N
  N102     1.0000 0.58200  0.98935  0.20176  Biso   1.000  N
  N103     1.0000 0.58470  0.03643  0.20943  Biso   1.000  N
  N104     1.0000 0.44040  0.15907  0.31556  Biso   1.000  N
  N105     1.0000 0.40950  0.17851  0.34124  Biso   1.000  N
  N106     1.0000 0.45190  0.18096  0.36517  Biso   1.000  N
  N107     1.0000 0.51240  0.16356  0.35655  Biso   1.000  N
  C136     1.0000 0.59590  0.03660  0.24107  Biso   1.000  C
  C137     1.0000 0.60880  0.08080  0.26168  Biso   1.000  C
  C138     1.0000 0.54730  0.09150  0.28326  Biso   1.000  C
  H244     1.0000 0.50700  0.09830  0.26970  Biso   1.000  H
  H245     1.0000 0.53720  0.06280  0.29680  Biso   1.000  H
  C139     1.0000 0.56230  0.13550  0.30469  Biso   1.000  C
  H246     1.0000 0.61580  0.09660  0.33990  Biso   1.000  H
  H247     1.0000 0.66440  0.11750  0.22600  Biso   1.000  H
  C140     1.0000 0.67130  0.06980  0.28313  Biso   1.000  C
  H248     1.0000 0.71090  0.06210  0.26940  Biso   1.000  H
  H249     1.0000 0.66170  0.04110  0.29690  Biso   1.000  H
  C141     1.0000 0.50420  0.15030  0.32567  Biso   1.000  C
  O28      1.0000 0.62810  0.82260  0.22770  Biso   1.000  O
  N108     1.0000 0.61350  0.74360  0.24180  Biso   1.000  N
  C142     1.0000 0.59370  0.78810  0.23670  Biso   1.000  C
  H250     1.0000 0.54690  0.79460  0.24030  Biso   1.000  H
  C143     1.0000 0.68400  0.72900  0.24240  Biso   1.000  C
  H251     1.0000 0.71050  0.75090  0.22860  Biso   1.000  H
  H252     1.0000 0.68810  0.69560  0.23440  Biso   1.000  H
  H253     1.0000 0.70120  0.73080  0.26450  Biso   1.000  H
  C144     1.0000 0.56270  0.70520  0.24740  Biso   1.000  C
  H254     1.0000 0.57130  0.68960  0.26820  Biso   1.000  H
  H255     1.0000 0.56560  0.68090  0.23020  Biso   1.000  H
  H256     1.0000 0.51720  0.71970  0.24750  Biso   1.000  H
  O29      1.0000 0.67320  0.90610  0.26340  Biso   1.000  O
  N109     1.0000 0.73470  0.90580  0.30930  Biso   1.000  N
  C145     1.0000 0.70010  0.88430  0.28610  Biso   1.000  C
  H257     1.0000 0.69560  0.84990  0.28690  Biso   1.000  H
  C146     1.0000 0.76390  0.87760  0.33590  Biso   1.000  C
  H258     1.0000 0.73040  0.85390  0.34360  Biso   1.000  H
  H259     1.0000 0.77610  0.89970  0.35360  Biso   1.000  H
  H260     1.0000 0.80450  0.86050  0.32840  Biso   1.000  H
  C147     1.0000 0.74430  0.95900  0.30840  Biso   1.000  C
  H261     1.0000 0.78100  0.96700  0.29340  Biso   1.000  H
  H262     1.0000 0.75620  0.97060  0.33000  Biso   1.000  H
  H263     1.0000 0.70220  0.97460  0.30130  Biso   1.000  H
  O30      1.0000 0.65730  0.88760  0.27190  Biso   1.000  O
  N110     1.0000 0.67890  0.93750  0.31430  Biso   1.000  N
  C148     1.0000 0.64510  0.91940  0.29090  Biso   1.000  C
  H264     1.0000 0.60180  0.93390  0.28800  Biso   1.000  H
  C149     1.0000 0.64650  0.94930  0.34520  Biso   1.000  C
  H265     1.0000 0.59700  0.94880  0.34270  Biso   1.000  H
  H266     1.0000 0.66090  0.98180  0.35220  Biso   1.000  H
  H267     1.0000 0.66000  0.92520  0.36150  Biso   1.000  H
  C150     1.0000 0.75130  0.94830  0.31320  Biso   1.000  C
  H268     1.0000 0.77720  0.91790  0.31480  Biso   1.000  H
  H269     1.0000 0.76320  0.96960  0.33130  Biso   1.000  H
  H270     1.0000 0.76220  0.96470  0.29290  Biso   1.000  H
  Cl20     1.0000 0.61450  0.81140  0.23560  Biso   1.000  Cl
  Cu21     1.0000 0.06702  0.46137  0.15810  Biso   1.000  Cu
  Cu22     1.0000 0.10708  0.39080  0.22711  Biso   1.000  Cu
  Cl21     1.0000 0.02019  0.38199  0.19117  Biso   1.000  Cl
  N111     1.0000 0.09990  0.49158  0.25317  Biso   1.000  N
  N112     1.0000 0.09190  0.46257  0.22769  Biso   1.000  N
  N113     1.0000 0.08200  0.48935  0.20176  Biso   1.000  N
  N114     1.0000 0.08470  0.53643  0.20943  Biso   1.000  N
  N115     1.0000 0.94040  0.65907  0.31556  Biso   1.000  N
  N116     1.0000 0.90950  0.67851  0.34124  Biso   1.000  N
  N117     1.0000 0.95190  0.68096  0.36517  Biso   1.000  N
  N118     1.0000 0.01240  0.66356  0.35655  Biso   1.000  N
  C151     1.0000 0.09590  0.53660  0.24107  Biso   1.000  C
  C152     1.0000 0.10880  0.58080  0.26168  Biso   1.000  C
  C153     1.0000 0.04730  0.59150  0.28326  Biso   1.000  C
  H271     1.0000 0.00700  0.59830  0.26970  Biso   1.000  H
  H272     1.0000 0.03720  0.56280  0.29680  Biso   1.000  H
  C154     1.0000 0.06230  0.63550  0.30469  Biso   1.000  C
  H273     1.0000 0.11580  0.59660  0.33990  Biso   1.000  H
  H274     1.0000 0.16440  0.61750  0.22600  Biso   1.000  H
  C155     1.0000 0.17130  0.56980  0.28313  Biso   1.000  C
  H275     1.0000 0.21090  0.56210  0.26940  Biso   1.000  H
  H276     1.0000 0.16170  0.54110  0.29690  Biso   1.000  H
  C156     1.0000 0.00420  0.65030  0.32567  Biso   1.000  C
  O31      1.0000 0.12810  0.32260  0.22770  Biso   1.000  O
  N119     1.0000 0.11350  0.24360  0.24180  Biso   1.000  N
  C157     1.0000 0.09370  0.28810  0.23670  Biso   1.000  C
  H277     1.0000 0.04690  0.29460  0.24030  Biso   1.000  H
  C158     1.0000 0.18400  0.22900  0.24240  Biso   1.000  C
  H278     1.0000 0.21050  0.25090  0.22860  Biso   1.000  H
  H279     1.0000 0.18810  0.19560  0.23440  Biso   1.000  H
  H280     1.0000 0.20120  0.23080  0.26450  Biso   1.000  H
  C159     1.0000 0.06270  0.20520  0.24740  Biso   1.000  C
  H281     1.0000 0.07130  0.18960  0.26820  Biso   1.000  H
  H282     1.0000 0.06560  0.18090  0.23020  Biso   1.000  H
  H283     1.0000 0.01720  0.21970  0.24750  Biso   1.000  H
  O32      1.0000 0.17320  0.40610  0.26340  Biso   1.000  O
  N120     1.0000 0.23470  0.40580  0.30930  Biso   1.000  N
  C160     1.0000 0.20010  0.38430  0.28610  Biso   1.000  C
  H284     1.0000 0.19560  0.34990  0.28690  Biso   1.000  H
  C161     1.0000 0.26390  0.37760  0.33590  Biso   1.000  C
  H285     1.0000 0.23040  0.35390  0.34360  Biso   1.000  H
  H286     1.0000 0.27610  0.39970  0.35360  Biso   1.000  H
  H287     1.0000 0.30450  0.36050  0.32840  Biso   1.000  H
  C162     1.0000 0.24430  0.45900  0.30840  Biso   1.000  C
  H288     1.0000 0.28100  0.46700  0.29340  Biso   1.000  H
  H289     1.0000 0.25620  0.47060  0.33000  Biso   1.000  H
  H290     1.0000 0.20220  0.47460  0.30130  Biso   1.000  H
  O33      1.0000 0.15730  0.38760  0.27190  Biso   1.000  O
  N121     1.0000 0.17890  0.43750  0.31430  Biso   1.000  N
  C163     1.0000 0.14510  0.41940  0.29090  Biso   1.000  C
  H291     1.0000 0.10180  0.43390  0.28800  Biso   1.000  H
  C164     1.0000 0.14650  0.44930  0.34520  Biso   1.000  C
  H292     1.0000 0.09700  0.44880  0.34270  Biso   1.000  H
  H293     1.0000 0.16090  0.48180  0.35220  Biso   1.000  H
  H294     1.0000 0.16000  0.42520  0.36150  Biso   1.000  H
  C165     1.0000 0.25130  0.44830  0.31320  Biso   1.000  C
  H295     1.0000 0.27720  0.41790  0.31480  Biso   1.000  H
  H296     1.0000 0.26320  0.46960  0.33130  Biso   1.000  H
  H297     1.0000 0.26220  0.46470  0.29290  Biso   1.000  H
  Cl22     1.0000 0.11450  0.31140  0.23560  Biso   1.000  Cl
  Cu23     1.0000 0.06702  0.96137  0.65810  Biso   1.000  Cu
  Cu24     1.0000 0.10708  0.89080  0.72711  Biso   1.000  Cu
  Cl23     1.0000 0.02019  0.88199  0.69117  Biso   1.000  Cl
  N122     1.0000 0.09990  0.99158  0.75317  Biso   1.000  N
  N123     1.0000 0.09190  0.96257  0.72769  Biso   1.000  N
  N124     1.0000 0.08200  0.98935  0.70176  Biso   1.000  N
  N125     1.0000 0.08470  0.03643  0.70943  Biso   1.000  N
  N126     1.0000 0.94040  0.15907  0.81556  Biso   1.000  N
  N127     1.0000 0.90950  0.17851  0.84124  Biso   1.000  N
  N128     1.0000 0.95190  0.18096  0.86517  Biso   1.000  N
  N129     1.0000 0.01240  0.16356  0.85655  Biso   1.000  N
  C166     1.0000 0.09590  0.03660  0.74107  Biso   1.000  C
  C167     1.0000 0.10880  0.08080  0.76168  Biso   1.000  C
  C168     1.0000 0.04730  0.09150  0.78326  Biso   1.000  C
  H298     1.0000 0.00700  0.09830  0.76970  Biso   1.000  H
  H299     1.0000 0.03720  0.06280  0.79680  Biso   1.000  H
  C169     1.0000 0.06230  0.13550  0.80469  Biso   1.000  C
  H300     1.0000 0.11580  0.09660  0.83990  Biso   1.000  H
  H301     1.0000 0.16440  0.11750  0.72600  Biso   1.000  H
  C170     1.0000 0.17130  0.06980  0.78313  Biso   1.000  C
  H302     1.0000 0.21090  0.06210  0.76940  Biso   1.000  H
  H303     1.0000 0.16170  0.04110  0.79690  Biso   1.000  H
  C171     1.0000 0.00420  0.15030  0.82567  Biso   1.000  C
  O34      1.0000 0.12810  0.82260  0.72770  Biso   1.000  O
  N130     1.0000 0.11350  0.74360  0.74180  Biso   1.000  N
  C172     1.0000 0.09370  0.78810  0.73670  Biso   1.000  C
  H304     1.0000 0.04690  0.79460  0.74030  Biso   1.000  H
  C173     1.0000 0.18400  0.72900  0.74240  Biso   1.000  C
  H305     1.0000 0.21050  0.75090  0.72860  Biso   1.000  H
  H306     1.0000 0.18810  0.69560  0.73440  Biso   1.000  H
  H307     1.0000 0.20120  0.73080  0.76450  Biso   1.000  H
  C174     1.0000 0.06270  0.70520  0.74740  Biso   1.000  C
  H308     1.0000 0.07130  0.68960  0.76820  Biso   1.000  H
  H309     1.0000 0.06560  0.68090  0.73020  Biso   1.000  H
  H310     1.0000 0.01720  0.71970  0.74750  Biso   1.000  H
  O35      1.0000 0.17320  0.90610  0.76340  Biso   1.000  O
  N131     1.0000 0.23470  0.90580  0.80930  Biso   1.000  N
  C175     1.0000 0.20010  0.88430  0.78610  Biso   1.000  C
  H311     1.0000 0.19560  0.84990  0.78690  Biso   1.000  H
  C176     1.0000 0.26390  0.87760  0.83590  Biso   1.000  C
  H312     1.0000 0.23040  0.85390  0.84360  Biso   1.000  H
  H313     1.0000 0.27610  0.89970  0.85360  Biso   1.000  H
  H314     1.0000 0.30450  0.86050  0.82840  Biso   1.000  H
  C177     1.0000 0.24430  0.95900  0.80840  Biso   1.000  C
  H315     1.0000 0.28100  0.96700  0.79340  Biso   1.000  H
  H316     1.0000 0.25620  0.97060  0.83000  Biso   1.000  H
  H317     1.0000 0.20220  0.97460  0.80130  Biso   1.000  H
  O36      1.0000 0.15730  0.88760  0.77190  Biso   1.000  O
  N132     1.0000 0.17890  0.93750  0.81430  Biso   1.000  N
  C178     1.0000 0.14510  0.91940  0.79090  Biso   1.000  C
  H318     1.0000 0.10180  0.93390  0.78800  Biso   1.000  H
  C179     1.0000 0.14650  0.94930  0.84520  Biso   1.000  C
  H319     1.0000 0.09700  0.94880  0.84270  Biso   1.000  H
  H320     1.0000 0.16090  0.98180  0.85220  Biso   1.000  H
  H321     1.0000 0.16000  0.92520  0.86150  Biso   1.000  H
  C180     1.0000 0.25130  0.94830  0.81320  Biso   1.000  C
  H322     1.0000 0.27720  0.91790  0.81480  Biso   1.000  H
  H323     1.0000 0.26320  0.96960  0.83130  Biso   1.000  H
  H324     1.0000 0.26220  0.96470  0.79290  Biso   1.000  H
  Cl24     1.0000 0.11450  0.81140  0.73560  Biso   1.000  Cl
  Cu25     1.0000 0.18298  0.28863  0.65810  Biso   1.000  Cu
  Cu26     1.0000 0.14292  0.35920  0.72711  Biso   1.000  Cu
  Cl25     1.0000 0.22981  0.36801  0.69117  Biso   1.000  Cl
  N133     1.0000 0.15010  0.25842  0.75317  Biso   1.000  N
  N134     1.0000 0.15810  0.28743  0.72769  Biso   1.000  N
  N135     1.0000 0.16800  0.26065  0.70176  Biso   1.000  N
  N136     1.0000 0.16530  0.21357  0.70943  Biso   1.000  N
  N137     1.0000 0.30960  0.09093  0.81556  Biso   1.000  N
  N138     1.0000 0.34050  0.07149  0.84124  Biso   1.000  N
  N139     1.0000 0.29810  0.06904  0.86517  Biso   1.000  N
  N140     1.0000 0.23760  0.08644  0.85655  Biso   1.000  N
  C181     1.0000 0.15410  0.21340  0.74107  Biso   1.000  C
  C182     1.0000 0.14120  0.16920  0.76168  Biso   1.000  C
  C183     1.0000 0.20270  0.15850  0.78326  Biso   1.000  C
  H325     1.0000 0.24300  0.15170  0.76970  Biso   1.000  H
  H326     1.0000 0.21280  0.18720  0.79680  Biso   1.000  H
  C184     1.0000 0.18770  0.11450  0.80469  Biso   1.000  C
  H327     1.0000 0.13420  0.15340  0.83990  Biso   1.000  H
  H328     1.0000 0.08560  0.13250  0.72600  Biso   1.000  H
  C185     1.0000 0.07870  0.18020  0.78313  Biso   1.000  C
  H329     1.0000 0.03910  0.18790  0.76940  Biso   1.000  H
  H330     1.0000 0.08830  0.20890  0.79690  Biso   1.000  H
  C186     1.0000 0.24580  0.09970  0.82567  Biso   1.000  C
  O37      1.0000 0.12190  0.42740  0.72770  Biso   1.000  O
  N141     1.0000 0.13650  0.50640  0.74180  Biso   1.000  N
  C187     1.0000 0.15630  0.46190  0.73670  Biso   1.000  C
  H331     1.0000 0.20310  0.45540  0.74030  Biso   1.000  H
  C188     1.0000 0.06600  0.52100  0.74240  Biso   1.000  C
  H332     1.0000 0.03950  0.49910  0.72860  Biso   1.000  H
  H333     1.0000 0.06190  0.55440  0.73440  Biso   1.000  H
  H334     1.0000 0.04880  0.51920  0.76450  Biso   1.000  H
  C189     1.0000 0.18730  0.54480  0.74740  Biso   1.000  C
  H335     1.0000 0.17870  0.56040  0.76820  Biso   1.000  H
  H336     1.0000 0.18440  0.56910  0.73020  Biso   1.000  H
  H337     1.0000 0.23280  0.53030  0.74750  Biso   1.000  H
  O38      1.0000 0.07680  0.34390  0.76340  Biso   1.000  O
  N142     1.0000 0.01530  0.34420  0.80930  Biso   1.000  N
  C190     1.0000 0.04990  0.36570  0.78610  Biso   1.000  C
  H338     1.0000 0.05440  0.40010  0.78690  Biso   1.000  H
  C191     1.0000 0.98610  0.37240  0.83590  Biso   1.000  C
  H339     1.0000 0.01960  0.39610  0.84360  Biso   1.000  H
  H340     1.0000 0.97390  0.35030  0.85360  Biso   1.000  H
  H341     1.0000 0.94550  0.38950  0.82840  Biso   1.000  H
  C192     1.0000 0.00570  0.29100  0.80840  Biso   1.000  C
  H342     1.0000 0.96900  0.28300  0.79340  Biso   1.000  H
  H343     1.0000 0.99380  0.27940  0.83000  Biso   1.000  H
  H344     1.0000 0.04780  0.27540  0.80130  Biso   1.000  H
  O39      1.0000 0.09270  0.36240  0.77190  Biso   1.000  O
  N143     1.0000 0.07110  0.31250  0.81430  Biso   1.000  N
  C193     1.0000 0.10490  0.33060  0.79090  Biso   1.000  C
  H345     1.0000 0.14820  0.31610  0.78800  Biso   1.000  H
  C194     1.0000 0.10350  0.30070  0.84520  Biso   1.000  C
  H346     1.0000 0.15300  0.30120  0.84270  Biso   1.000  H
  H347     1.0000 0.08910  0.26820  0.85220  Biso   1.000  H
  H348     1.0000 0.09000  0.32480  0.86150  Biso   1.000  H
  C195     1.0000 0.99870  0.30170  0.81320  Biso   1.000  C
  H349     1.0000 0.97280  0.33210  0.81480  Biso   1.000  H
  H350     1.0000 0.98680  0.28040  0.83130  Biso   1.000  H
  H351     1.0000 0.98780  0.28530  0.79290  Biso   1.000  H
  Cl26     1.0000 0.13550  0.43860  0.73560  Biso   1.000  Cl
  Cu27     1.0000 0.18298  0.78863  0.15810  Biso   1.000  Cu
  Cu28     1.0000 0.14292  0.85920  0.22711  Biso   1.000  Cu
  Cl27     1.0000 0.22981  0.86801  0.19117  Biso   1.000  Cl
  N144     1.0000 0.15010  0.75842  0.25317  Biso   1.000  N
  N145     1.0000 0.15810  0.78743  0.22769  Biso   1.000  N
  N146     1.0000 0.16800  0.76065  0.20176  Biso   1.000  N
  N147     1.0000 0.16530  0.71357  0.20943  Biso   1.000  N
  N148     1.0000 0.30960  0.59093  0.31556  Biso   1.000  N
  N149     1.0000 0.34050  0.57149  0.34124  Biso   1.000  N
  N150     1.0000 0.29810  0.56904  0.36517  Biso   1.000  N
  N151     1.0000 0.23760  0.58644  0.35655  Biso   1.000  N
  C196     1.0000 0.15410  0.71340  0.24107  Biso   1.000  C
  C197     1.0000 0.14120  0.66920  0.26168  Biso   1.000  C
  C198     1.0000 0.20270  0.65850  0.28326  Biso   1.000  C
  H352     1.0000 0.24300  0.65170  0.26970  Biso   1.000  H
  H353     1.0000 0.21280  0.68720  0.29680  Biso   1.000  H
  C199     1.0000 0.18770  0.61450  0.30469  Biso   1.000  C
  H354     1.0000 0.13420  0.65340  0.33990  Biso   1.000  H
  H355     1.0000 0.08560  0.63250  0.22600  Biso   1.000  H
  C200     1.0000 0.07870  0.68020  0.28313  Biso   1.000  C
  H356     1.0000 0.03910  0.68790  0.26940  Biso   1.000  H
  H357     1.0000 0.08830  0.70890  0.29690  Biso   1.000  H
  C201     1.0000 0.24580  0.59970  0.32567  Biso   1.000  C
  O40      1.0000 0.12190  0.92740  0.22770  Biso   1.000  O
  N152     1.0000 0.13650  0.00640  0.24180  Biso   1.000  N
  C202     1.0000 0.15630  0.96190  0.23670  Biso   1.000  C
  H358     1.0000 0.20310  0.95540  0.24030  Biso   1.000  H
  C203     1.0000 0.06600  0.02100  0.24240  Biso   1.000  C
  H359     1.0000 0.03950  0.99910  0.22860  Biso   1.000  H
  H360     1.0000 0.06190  0.05440  0.23440  Biso   1.000  H
  H361     1.0000 0.04880  0.01920  0.26450  Biso   1.000  H
  C204     1.0000 0.18730  0.04480  0.24740  Biso   1.000  C
  H362     1.0000 0.17870  0.06040  0.26820  Biso   1.000  H
  H363     1.0000 0.18440  0.06910  0.23020  Biso   1.000  H
  H364     1.0000 0.23280  0.03030  0.24750  Biso   1.000  H
  O41      1.0000 0.07680  0.84390  0.26340  Biso   1.000  O
  N153     1.0000 0.01530  0.84420  0.30930  Biso   1.000  N
  C205     1.0000 0.04990  0.86570  0.28610  Biso   1.000  C
  H365     1.0000 0.05440  0.90010  0.28690  Biso   1.000  H
  C206     1.0000 0.98610  0.87240  0.33590  Biso   1.000  C
  H366     1.0000 0.01960  0.89610  0.34360  Biso   1.000  H
  H367     1.0000 0.97390  0.85030  0.35360  Biso   1.000  H
  H368     1.0000 0.94550  0.88950  0.32840  Biso   1.000  H
  C207     1.0000 0.00570  0.79100  0.30840  Biso   1.000  C
  H369     1.0000 0.96900  0.78300  0.29340  Biso   1.000  H
  H370     1.0000 0.99380  0.77940  0.33000  Biso   1.000  H
  H371     1.0000 0.04780  0.77540  0.30130  Biso   1.000  H
  O42      1.0000 0.09270  0.86240  0.27190  Biso   1.000  O
  N154     1.0000 0.07110  0.81250  0.31430  Biso   1.000  N
  C208     1.0000 0.10490  0.83060  0.29090  Biso   1.000  C
  H372     1.0000 0.14820  0.81610  0.28800  Biso   1.000  H
  C209     1.0000 0.10350  0.80070  0.34520  Biso   1.000  C
  H373     1.0000 0.15300  0.80120  0.34270  Biso   1.000  H
  H374     1.0000 0.08910  0.76820  0.35220  Biso   1.000  H
  H375     1.0000 0.09000  0.82480  0.36150  Biso   1.000  H
  C210     1.0000 0.99870  0.80170  0.31320  Biso   1.000  C
  H376     1.0000 0.97280  0.83210  0.31480  Biso   1.000  H
  H377     1.0000 0.98680  0.78040  0.33130  Biso   1.000  H
  H378     1.0000 0.98780  0.78530  0.29290  Biso   1.000  H
  Cl28     1.0000 0.13550  0.93860  0.23560  Biso   1.000  Cl
  Cu29     1.0000 0.68298  0.28863  0.15810  Biso   1.000  Cu
  Cu30     1.0000 0.64292  0.35920  0.22711  Biso   1.000  Cu
  Cl29     1.0000 0.72981  0.36801  0.19117  Biso   1.000  Cl
  N155     1.0000 0.65010  0.25842  0.25317  Biso   1.000  N
  N156     1.0000 0.65810  0.28743  0.22769  Biso   1.000  N
  N157     1.0000 0.66800  0.26065  0.20176  Biso   1.000  N
  N158     1.0000 0.66530  0.21357  0.20943  Biso   1.000  N
  N159     1.0000 0.80960  0.09093  0.31556  Biso   1.000  N
  N160     1.0000 0.84050  0.07149  0.34124  Biso   1.000  N
  N161     1.0000 0.79810  0.06904  0.36517  Biso   1.000  N
  N162     1.0000 0.73760  0.08644  0.35655  Biso   1.000  N
  C211     1.0000 0.65410  0.21340  0.24107  Biso   1.000  C
  C212     1.0000 0.64120  0.16920  0.26168  Biso   1.000  C
  C213     1.0000 0.70270  0.15850  0.28326  Biso   1.000  C
  H379     1.0000 0.74300  0.15170  0.26970  Biso   1.000  H
  H380     1.0000 0.71280  0.18720  0.29680  Biso   1.000  H
  C214     1.0000 0.68770  0.11450  0.30469  Biso   1.000  C
  H381     1.0000 0.63420  0.15340  0.33990  Biso   1.000  H
  H382     1.0000 0.58560  0.13250  0.22600  Biso   1.000  H
  C215     1.0000 0.57870  0.18020  0.28313  Biso   1.000  C
  H383     1.0000 0.53910  0.18790  0.26940  Biso   1.000  H
  H384     1.0000 0.58830  0.20890  0.29690  Biso   1.000  H
  C216     1.0000 0.74580  0.09970  0.32567  Biso   1.000  C
  O43      1.0000 0.62190  0.42740  0.22770  Biso   1.000  O
  N163     1.0000 0.63650  0.50640  0.24180  Biso   1.000  N
  C217     1.0000 0.65630  0.46190  0.23670  Biso   1.000  C
  H385     1.0000 0.70310  0.45540  0.24030  Biso   1.000  H
  C218     1.0000 0.56600  0.52100  0.24240  Biso   1.000  C
  H386     1.0000 0.53950  0.49910  0.22860  Biso   1.000  H
  H387     1.0000 0.56190  0.55440  0.23440  Biso   1.000  H
  H388     1.0000 0.54880  0.51920  0.26450  Biso   1.000  H
  C219     1.0000 0.68730  0.54480  0.24740  Biso   1.000  C
  H389     1.0000 0.67870  0.56040  0.26820  Biso   1.000  H
  H390     1.0000 0.68440  0.56910  0.23020  Biso   1.000  H
  H391     1.0000 0.73280  0.53030  0.24750  Biso   1.000  H
  O44      1.0000 0.57680  0.34390  0.26340  Biso   1.000  O
  N164     1.0000 0.51530  0.34420  0.30930  Biso   1.000  N
  C220     1.0000 0.54990  0.36570  0.28610  Biso   1.000  C
  H392     1.0000 0.55440  0.40010  0.28690  Biso   1.000  H
  C221     1.0000 0.48610  0.37240  0.33590  Biso   1.000  C
  H393     1.0000 0.51960  0.39610  0.34360  Biso   1.000  H
  H394     1.0000 0.47390  0.35030  0.35360  Biso   1.000  H
  H395     1.0000 0.44550  0.38950  0.32840  Biso   1.000  H
  C222     1.0000 0.50570  0.29100  0.30840  Biso   1.000  C
  H396     1.0000 0.46900  0.28300  0.29340  Biso   1.000  H
  H397     1.0000 0.49380  0.27940  0.33000  Biso   1.000  H
  H398     1.0000 0.54780  0.27540  0.30130  Biso   1.000  H
  O45      1.0000 0.59270  0.36240  0.27190  Biso   1.000  O
  N165     1.0000 0.57110  0.31250  0.31430  Biso   1.000  N
  C223     1.0000 0.60490  0.33060  0.29090  Biso   1.000  C
  H399     1.0000 0.64820  0.31610  0.28800  Biso   1.000  H
  C224     1.0000 0.60350  0.30070  0.34520  Biso   1.000  C
  H400     1.0000 0.65300  0.30120  0.34270  Biso   1.000  H
  H401     1.0000 0.58910  0.26820  0.35220  Biso   1.000  H
  H402     1.0000 0.59000  0.32480  0.36150  Biso   1.000  H
  C225     1.0000 0.49870  0.30170  0.31320  Biso   1.000  C
  H403     1.0000 0.47280  0.33210  0.31480  Biso   1.000  H
  H404     1.0000 0.48680  0.28040  0.33130  Biso   1.000  H
  H405     1.0000 0.48780  0.28530  0.29290  Biso   1.000  H
  Cl30     1.0000 0.63550  0.43860  0.23560  Biso   1.000  Cl
  Cu31     1.0000 0.68298  0.78863  0.65810  Biso   1.000  Cu
  Cu32     1.0000 0.64292  0.85920  0.72711  Biso   1.000  Cu
  Cl31     1.0000 0.72981  0.86801  0.69117  Biso   1.000  Cl
  N166     1.0000 0.65010  0.75842  0.75317  Biso   1.000  N
  N167     1.0000 0.65810  0.78743  0.72769  Biso   1.000  N
  N168     1.0000 0.66800  0.76065  0.70176  Biso   1.000  N
  N169     1.0000 0.66530  0.71357  0.70943  Biso   1.000  N
  N170     1.0000 0.80960  0.59093  0.81556  Biso   1.000  N
  N171     1.0000 0.84050  0.57149  0.84124  Biso   1.000  N
  N172     1.0000 0.79810  0.56904  0.86517  Biso   1.000  N
  N173     1.0000 0.73760  0.58644  0.85655  Biso   1.000  N
  C226     1.0000 0.65410  0.71340  0.74107  Biso   1.000  C
  C227     1.0000 0.64120  0.66920  0.76168  Biso   1.000  C
  C228     1.0000 0.70270  0.65850  0.78326  Biso   1.000  C
  H406     1.0000 0.74300  0.65170  0.76970  Biso   1.000  H
  H407     1.0000 0.71280  0.68720  0.79680  Biso   1.000  H
  C229     1.0000 0.68770  0.61450  0.80469  Biso   1.000  C
  H408     1.0000 0.63420  0.65340  0.83990  Biso   1.000  H
  H409     1.0000 0.58560  0.63250  0.72600  Biso   1.000  H
  C230     1.0000 0.57870  0.68020  0.78313  Biso   1.000  C
  H410     1.0000 0.53910  0.68790  0.76940  Biso   1.000  H
  H411     1.0000 0.58830  0.70890  0.79690  Biso   1.000  H
  C231     1.0000 0.74580  0.59970  0.82567  Biso   1.000  C
  O46      1.0000 0.62190  0.92740  0.72770  Biso   1.000  O
  N174     1.0000 0.63650  0.00640  0.74180  Biso   1.000  N
  C232     1.0000 0.65630  0.96190  0.73670  Biso   1.000  C
  H412     1.0000 0.70310  0.95540  0.74030  Biso   1.000  H
  C233     1.0000 0.56600  0.02100  0.74240  Biso   1.000  C
  H413     1.0000 0.53950  0.99910  0.72860  Biso   1.000  H
  H414     1.0000 0.56190  0.05440  0.73440  Biso   1.000  H
  H415     1.0000 0.54880  0.01920  0.76450  Biso   1.000  H
  C234     1.0000 0.68730  0.04480  0.74740  Biso   1.000  C
  H416     1.0000 0.67870  0.06040  0.76820  Biso   1.000  H
  H417     1.0000 0.68440  0.06910  0.73020  Biso   1.000  H
  H418     1.0000 0.73280  0.03030  0.74750  Biso   1.000  H
  O47      1.0000 0.57680  0.84390  0.76340  Biso   1.000  O
  N175     1.0000 0.51530  0.84420  0.80930  Biso   1.000  N
  C235     1.0000 0.54990  0.86570  0.78610  Biso   1.000  C
  H419     1.0000 0.55440  0.90010  0.78690  Biso   1.000  H
  C236     1.0000 0.48610  0.87240  0.83590  Biso   1.000  C
  H420     1.0000 0.51960  0.89610  0.84360  Biso   1.000  H
  H421     1.0000 0.47390  0.85030  0.85360  Biso   1.000  H
  H422     1.0000 0.44550  0.88950  0.82840  Biso   1.000  H
  C237     1.0000 0.50570  0.79100  0.80840  Biso   1.000  C
  H423     1.0000 0.46900  0.78300  0.79340  Biso   1.000  H
  H424     1.0000 0.49380  0.77940  0.83000  Biso   1.000  H
  H425     1.0000 0.54780  0.77540  0.80130  Biso   1.000  H
  O48      1.0000 0.59270  0.86240  0.77190  Biso   1.000  O
  N176     1.0000 0.57110  0.81250  0.81430  Biso   1.000  N
  C238     1.0000 0.60490  0.83060  0.79090  Biso   1.000  C
  H426     1.0000 0.64820  0.81610  0.78800  Biso   1.000  H
  C239     1.0000 0.60350  0.80070  0.84520  Biso   1.000  C
  H427     1.0000 0.65300  0.80120  0.84270  Biso   1.000  H
  H428     1.0000 0.58910  0.76820  0.85220  Biso   1.000  H
  H429     1.0000 0.59000  0.82480  0.86150  Biso   1.000  H
  C240     1.0000 0.49870  0.80170  0.81320  Biso   1.000  C
  H430     1.0000 0.47280  0.83210  0.81480  Biso   1.000  H
  H431     1.0000 0.48680  0.78040  0.83130  Biso   1.000  H
  H432     1.0000 0.48780  0.78530  0.79290  Biso   1.000  H
  Cl32     1.0000 0.63550  0.93860  0.73560  Biso   1.000  Cl
  Cu33     1.0000 0.81702  0.53863  0.90810  Biso   1.000  Cu
  Cu34     1.0000 0.85708  0.60920  0.97711  Biso   1.000  Cu
  Cl33     1.0000 0.77019  0.61801  0.94117  Biso   1.000  Cl
  N177     1.0000 0.84990  0.50842  0.00317  Biso   1.000  N
  N178     1.0000 0.84190  0.53743  0.97769  Biso   1.000  N
  N179     1.0000 0.83200  0.51065  0.95176  Biso   1.000  N
  N180     1.0000 0.83470  0.46357  0.95943  Biso   1.000  N
  N181     1.0000 0.69040  0.34093  0.06556  Biso   1.000  N
  N182     1.0000 0.65950  0.32149  0.09124  Biso   1.000  N
  N183     1.0000 0.70190  0.31904  0.11517  Biso   1.000  N
  N184     1.0000 0.76240  0.33644  0.10655  Biso   1.000  N
  C241     1.0000 0.84590  0.46340  0.99107  Biso   1.000  C
  C242     1.0000 0.85880  0.41920  0.01168  Biso   1.000  C
  C243     1.0000 0.79730  0.40850  0.03326  Biso   1.000  C
  H433     1.0000 0.75700  0.40170  0.01970  Biso   1.000  H
  H434     1.0000 0.78720  0.43720  0.04680  Biso   1.000  H
  C244     1.0000 0.81230  0.36450  0.05469  Biso   1.000  C
  H435     1.0000 0.86580  0.40340  0.08990  Biso   1.000  H
  H436     1.0000 0.91440  0.38250  0.97600  Biso   1.000  H
  C245     1.0000 0.92130  0.43020  0.03313  Biso   1.000  C
  H437     1.0000 0.96090  0.43790  0.01940  Biso   1.000  H
  H438     1.0000 0.91170  0.45890  0.04690  Biso   1.000  H
  C246     1.0000 0.75420  0.34970  0.07567  Biso   1.000  C
  O49      1.0000 0.87810  0.67740  0.97770  Biso   1.000  O
  N185     1.0000 0.86350  0.75640  0.99180  Biso   1.000  N
  C247     1.0000 0.84370  0.71190  0.98670  Biso   1.000  C
  H439     1.0000 0.79690  0.70540  0.99030  Biso   1.000  H
  C248     1.0000 0.93400  0.77100  0.99240  Biso   1.000  C
  H440     1.0000 0.96050  0.74910  0.97860  Biso   1.000  H
  H441     1.0000 0.93810  0.80440  0.98440  Biso   1.000  H
  H442     1.0000 0.95120  0.76920  0.01450  Biso   1.000  H
  C249     1.0000 0.81270  0.79480  0.99740  Biso   1.000  C
  H443     1.0000 0.82130  0.81040  0.01820  Biso   1.000  H
  H444     1.0000 0.81560  0.81910  0.98020  Biso   1.000  H
  H445     1.0000 0.76720  0.78030  0.99750  Biso   1.000  H
  O50      1.0000 0.92320  0.59390  0.01340  Biso   1.000  O
  N186     1.0000 0.98470  0.59420  0.05930  Biso   1.000  N
  C250     1.0000 0.95010  0.61570  0.03610  Biso   1.000  C
  H446     1.0000 0.94560  0.65010  0.03690  Biso   1.000  H
  C251     1.0000 0.01390  0.62240  0.08590  Biso   1.000  C
  H447     1.0000 0.98040  0.64610  0.09360  Biso   1.000  H
  H448     1.0000 0.02610  0.60030  0.10360  Biso   1.000  H
  H449     1.0000 0.05450  0.63950  0.07840  Biso   1.000  H
  C252     1.0000 0.99430  0.54100  0.05840  Biso   1.000  C
  H450     1.0000 0.03100  0.53300  0.04340  Biso   1.000  H
  H451     1.0000 0.00620  0.52940  0.08000  Biso   1.000  H
  H452     1.0000 0.95220  0.52540  0.05130  Biso   1.000  H
  O51      1.0000 0.90730  0.61240  0.02190  Biso   1.000  O
  N187     1.0000 0.92890  0.56250  0.06430  Biso   1.000  N
  C253     1.0000 0.89510  0.58060  0.04090  Biso   1.000  C
  H453     1.0000 0.85180  0.56610  0.03800  Biso   1.000  H
  C254     1.0000 0.89650  0.55070  0.09520  Biso   1.000  C
  H454     1.0000 0.84700  0.55120  0.09270  Biso   1.000  H
  H455     1.0000 0.91090  0.51820  0.10220  Biso   1.000  H
  H456     1.0000 0.91000  0.57480  0.11150  Biso   1.000  H
  C255     1.0000 0.00130  0.55170  0.06320  Biso   1.000  C
  H457     1.0000 0.02720  0.58210  0.06480  Biso   1.000  H
  H458     1.0000 0.01320  0.53040  0.08130  Biso   1.000  H
  H459     1.0000 0.01220  0.53530  0.04290  Biso   1.000  H
  Cl34     1.0000 0.86450  0.68860  0.98560  Biso   1.000  Cl
  Cu35     1.0000 0.81702  0.03863  0.40810  Biso   1.000  Cu
  Cu36     1.0000 0.85708  0.10920  0.47711  Biso   1.000  Cu
  Cl35     1.0000 0.77019  0.11801  0.44117  Biso   1.000  Cl
  N188     1.0000 0.84990  0.00842  0.50317  Biso   1.000  N
  N189     1.0000 0.84190  0.03743  0.47769  Biso   1.000  N
  N190     1.0000 0.83200  0.01065  0.45176  Biso   1.000  N
  N191     1.0000 0.83470  0.96357  0.45943  Biso   1.000  N
  N192     1.0000 0.69040  0.84093  0.56556  Biso   1.000  N
  N193     1.0000 0.65950  0.82149  0.59124  Biso   1.000  N
  N194     1.0000 0.70190  0.81904  0.61517  Biso   1.000  N
  N195     1.0000 0.76240  0.83644  0.60655  Biso   1.000  N
  C256     1.0000 0.84590  0.96340  0.49107  Biso   1.000  C
  C257     1.0000 0.85880  0.91920  0.51168  Biso   1.000  C
  C258     1.0000 0.79730  0.90850  0.53326  Biso   1.000  C
  H460     1.0000 0.75700  0.90170  0.51970  Biso   1.000  H
  H461     1.0000 0.78720  0.93720  0.54680  Biso   1.000  H
  C259     1.0000 0.81230  0.86450  0.55469  Biso   1.000  C
  H462     1.0000 0.86580  0.90340  0.58990  Biso   1.000  H
  H463     1.0000 0.91440  0.88250  0.47600  Biso   1.000  H
  C260     1.0000 0.92130  0.93020  0.53313  Biso   1.000  C
  H464     1.0000 0.96090  0.93790  0.51940  Biso   1.000  H
  H465     1.0000 0.91170  0.95890  0.54690  Biso   1.000  H
  C261     1.0000 0.75420  0.84970  0.57567  Biso   1.000  C
  O52      1.0000 0.87810  0.17740  0.47770  Biso   1.000  O
  N196     1.0000 0.86350  0.25640  0.49180  Biso   1.000  N
  C262     1.0000 0.84370  0.21190  0.48670  Biso   1.000  C
  H466     1.0000 0.79690  0.20540  0.49030  Biso   1.000  H
  C263     1.0000 0.93400  0.27100  0.49240  Biso   1.000  C
  H467     1.0000 0.96050  0.24910  0.47860  Biso   1.000  H
  H468     1.0000 0.93810  0.30440  0.48440  Biso   1.000  H
  H469     1.0000 0.95120  0.26920  0.51450  Biso   1.000  H
  C264     1.0000 0.81270  0.29480  0.49740  Biso   1.000  C
  H470     1.0000 0.82130  0.31040  0.51820  Biso   1.000  H
  H471     1.0000 0.81560  0.31910  0.48020  Biso   1.000  H
  H472     1.0000 0.76720  0.28030  0.49750  Biso   1.000  H
  O53      1.0000 0.92320  0.09390  0.51340  Biso   1.000  O
  N197     1.0000 0.98470  0.09420  0.55930  Biso   1.000  N
  C265     1.0000 0.95010  0.11570  0.53610  Biso   1.000  C
  H473     1.0000 0.94560  0.15010  0.53690  Biso   1.000  H
  C266     1.0000 0.01390  0.12240  0.58590  Biso   1.000  C
  H474     1.0000 0.98040  0.14610  0.59360  Biso   1.000  H
  H475     1.0000 0.02610  0.10030  0.60360  Biso   1.000  H
  H476     1.0000 0.05450  0.13950  0.57840  Biso   1.000  H
  C267     1.0000 0.99430  0.04100  0.55840  Biso   1.000  C
  H477     1.0000 0.03100  0.03300  0.54340  Biso   1.000  H
  H478     1.0000 0.00620  0.02940  0.58000  Biso   1.000  H
  H479     1.0000 0.95220  0.02540  0.55130  Biso   1.000  H
  O54      1.0000 0.90730  0.11240  0.52190  Biso   1.000  O
  N198     1.0000 0.92890  0.06250  0.56430  Biso   1.000  N
  C268     1.0000 0.89510  0.08060  0.54090  Biso   1.000  C
  H480     1.0000 0.85180  0.06610  0.53800  Biso   1.000  H
  C269     1.0000 0.89650  0.05070  0.59520  Biso   1.000  C
  H481     1.0000 0.84700  0.05120  0.59270  Biso   1.000  H
  H482     1.0000 0.91090  0.01820  0.60220  Biso   1.000  H
  H483     1.0000 0.91000  0.07480  0.61150  Biso   1.000  H
  C270     1.0000 0.00130  0.05170  0.56320  Biso   1.000  C
  H484     1.0000 0.02720  0.08210  0.56480  Biso   1.000  H
  H485     1.0000 0.01320  0.03040  0.58130  Biso   1.000  H
  H486     1.0000 0.01220  0.03530  0.54290  Biso   1.000  H
  Cl36     1.0000 0.86450  0.18860  0.48560  Biso   1.000  Cl
  Cu37     1.0000 0.31702  0.53863  0.40810  Biso   1.000  Cu
  Cu38     1.0000 0.35708  0.60920  0.47711  Biso   1.000  Cu
  Cl37     1.0000 0.27019  0.61801  0.44117  Biso   1.000  Cl
  N199     1.0000 0.34990  0.50842  0.50317  Biso   1.000  N
  N200     1.0000 0.34190  0.53743  0.47769  Biso   1.000  N
  N201     1.0000 0.33200  0.51065  0.45176  Biso   1.000  N
  N202     1.0000 0.33470  0.46357  0.45943  Biso   1.000  N
  N203     1.0000 0.19040  0.34093  0.56556  Biso   1.000  N
  N204     1.0000 0.15950  0.32149  0.59124  Biso   1.000  N
  N205     1.0000 0.20190  0.31904  0.61517  Biso   1.000  N
  N206     1.0000 0.26240  0.33644  0.60655  Biso   1.000  N
  C271     1.0000 0.34590  0.46340  0.49107  Biso   1.000  C
  C272     1.0000 0.35880  0.41920  0.51168  Biso   1.000  C
  C273     1.0000 0.29730  0.40850  0.53326  Biso   1.000  C
  H487     1.0000 0.25700  0.40170  0.51970  Biso   1.000  H
  H488     1.0000 0.28720  0.43720  0.54680  Biso   1.000  H
  C274     1.0000 0.31230  0.36450  0.55469  Biso   1.000  C
  H489     1.0000 0.36580  0.40340  0.58990  Biso   1.000  H
  H490     1.0000 0.41440  0.38250  0.47600  Biso   1.000  H
  C275     1.0000 0.42130  0.43020  0.53313  Biso   1.000  C
  H491     1.0000 0.46090  0.43790  0.51940  Biso   1.000  H
  H492     1.0000 0.41170  0.45890  0.54690  Biso   1.000  H
  C276     1.0000 0.25420  0.34970  0.57567  Biso   1.000  C
  O55      1.0000 0.37810  0.67740  0.47770  Biso   1.000  O
  N207     1.0000 0.36350  0.75640  0.49180  Biso   1.000  N
  C277     1.0000 0.34370  0.71190  0.48670  Biso   1.000  C
  H493     1.0000 0.29690  0.70540  0.49030  Biso   1.000  H
  C278     1.0000 0.43400  0.77100  0.49240  Biso   1.000  C
  H494     1.0000 0.46050  0.74910  0.47860  Biso   1.000  H
  H495     1.0000 0.43810  0.80440  0.48440  Biso   1.000  H
  H496     1.0000 0.45120  0.76920  0.51450  Biso   1.000  H
  C279     1.0000 0.31270  0.79480  0.49740  Biso   1.000  C
  H497     1.0000 0.32130  0.81040  0.51820  Biso   1.000  H
  H498     1.0000 0.31560  0.81910  0.48020  Biso   1.000  H
  H499     1.0000 0.26720  0.78030  0.49750  Biso   1.000  H
  O56      1.0000 0.42320  0.59390  0.51340  Biso   1.000  O
  N208     1.0000 0.48470  0.59420  0.55930  Biso   1.000  N
  C280     1.0000 0.45010  0.61570  0.53610  Biso   1.000  C
  H500     1.0000 0.44560  0.65010  0.53690  Biso   1.000  H
  C281     1.0000 0.51390  0.62240  0.58590  Biso   1.000  C
  H501     1.0000 0.48040  0.64610  0.59360  Biso   1.000  H
  H502     1.0000 0.52610  0.60030  0.60360  Biso   1.000  H
  H503     1.0000 0.55450  0.63950  0.57840  Biso   1.000  H
  C282     1.0000 0.49430  0.54100  0.55840  Biso   1.000  C
  H504     1.0000 0.53100  0.53300  0.54340  Biso   1.000  H
  H505     1.0000 0.50620  0.52940  0.58000  Biso   1.000  H
  H506     1.0000 0.45220  0.52540  0.55130  Biso   1.000  H
  O57      1.0000 0.40730  0.61240  0.52190  Biso   1.000  O
  N209     1.0000 0.42890  0.56250  0.56430  Biso   1.000  N
  C283     1.0000 0.39510  0.58060  0.54090  Biso   1.000  C
  H507     1.0000 0.35180  0.56610  0.53800  Biso   1.000  H
  C284     1.0000 0.39650  0.55070  0.59520  Biso   1.000  C
  H508     1.0000 0.34700  0.55120  0.59270  Biso   1.000  H
  H509     1.0000 0.41090  0.51820  0.60220  Biso   1.000  H
  H510     1.0000 0.41000  0.57480  0.61150  Biso   1.000  H
  C285     1.0000 0.50130  0.55170  0.56320  Biso   1.000  C
  H511     1.0000 0.52720  0.58210  0.56480  Biso   1.000  H
  H512     1.0000 0.51320  0.53040  0.58130  Biso   1.000  H
  H513     1.0000 0.51220  0.53530  0.54290  Biso   1.000  H
  Cl38     1.0000 0.36450  0.68860  0.48560  Biso   1.000  Cl
  Cu39     1.0000 0.31702  0.03863  0.90810  Biso   1.000  Cu
  Cu40     1.0000 0.35708  0.10920  0.97711  Biso   1.000  Cu
  Cl39     1.0000 0.27019  0.11801  0.94117  Biso   1.000  Cl
  N210     1.0000 0.34990  0.00842  0.00317  Biso   1.000  N
  N211     1.0000 0.34190  0.03743  0.97769  Biso   1.000  N
  N212     1.0000 0.33200  0.01065  0.95176  Biso   1.000  N
  N213     1.0000 0.33470  0.96357  0.95943  Biso   1.000  N
  N214     1.0000 0.19040  0.84093  0.06556  Biso   1.000  N
  N215     1.0000 0.15950  0.82149  0.09124  Biso   1.000  N
  N216     1.0000 0.20190  0.81904  0.11517  Biso   1.000  N
  N217     1.0000 0.26240  0.83644  0.10655  Biso   1.000  N
  C286     1.0000 0.34590  0.96340  0.99107  Biso   1.000  C
  C287     1.0000 0.35880  0.91920  0.01168  Biso   1.000  C
  C288     1.0000 0.29730  0.90850  0.03326  Biso   1.000  C
  H514     1.0000 0.25700  0.90170  0.01970  Biso   1.000  H
  H515     1.0000 0.28720  0.93720  0.04680  Biso   1.000  H
  C289     1.0000 0.31230  0.86450  0.05469  Biso   1.000  C
  H516     1.0000 0.36580  0.90340  0.08990  Biso   1.000  H
  H517     1.0000 0.41440  0.88250  0.97600  Biso   1.000  H
  C290     1.0000 0.42130  0.93020  0.03313  Biso   1.000  C
  H518     1.0000 0.46090  0.93790  0.01940  Biso   1.000  H
  H519     1.0000 0.41170  0.95890  0.04690  Biso   1.000  H
  C291     1.0000 0.25420  0.84970  0.07567  Biso   1.000  C
  O58      1.0000 0.37810  0.17740  0.97770  Biso   1.000  O
  N218     1.0000 0.36350  0.25640  0.99180  Biso   1.000  N
  C292     1.0000 0.34370  0.21190  0.98670  Biso   1.000  C
  H520     1.0000 0.29690  0.20540  0.99030  Biso   1.000  H
  C293     1.0000 0.43400  0.27100  0.99240  Biso   1.000  C
  H521     1.0000 0.46050  0.24910  0.97860  Biso   1.000  H
  H522     1.0000 0.43810  0.30440  0.98440  Biso   1.000  H
  H523     1.0000 0.45120  0.26920  0.01450  Biso   1.000  H
  C294     1.0000 0.31270  0.29480  0.99740  Biso   1.000  C
  H524     1.0000 0.32130  0.31040  0.01820  Biso   1.000  H
  H525     1.0000 0.31560  0.31910  0.98020  Biso   1.000  H
  H526     1.0000 0.26720  0.28030  0.99750  Biso   1.000  H
  O59      1.0000 0.42320  0.09390  0.01340  Biso   1.000  O
  N219     1.0000 0.48470  0.09420  0.05930  Biso   1.000  N
  C295     1.0000 0.45010  0.11570  0.03610  Biso   1.000  C
  H527     1.0000 0.44560  0.15010  0.03690  Biso   1.000  H
  C296     1.0000 0.51390  0.12240  0.08590  Biso   1.000  C
  H528     1.0000 0.48040  0.14610  0.09360  Biso   1.000  H
  H529     1.0000 0.52610  0.10030  0.10360  Biso   1.000  H
  H530     1.0000 0.55450  0.13950  0.07840  Biso   1.000  H
  C297     1.0000 0.49430  0.04100  0.05840  Biso   1.000  C
  H531     1.0000 0.53100  0.03300  0.04340  Biso   1.000  H
  H532     1.0000 0.50620  0.02940  0.08000  Biso   1.000  H
  H533     1.0000 0.45220  0.02540  0.05130  Biso   1.000  H
  O60      1.0000 0.40730  0.11240  0.02190  Biso   1.000  O
  N220     1.0000 0.42890  0.06250  0.06430  Biso   1.000  N
  C298     1.0000 0.39510  0.08060  0.04090  Biso   1.000  C
  H534     1.0000 0.35180  0.06610  0.03800  Biso   1.000  H
  C299     1.0000 0.39650  0.05070  0.09520  Biso   1.000  C
  H535     1.0000 0.34700  0.05120  0.09270  Biso   1.000  H
  H536     1.0000 0.41090  0.01820  0.10220  Biso   1.000  H
  H537     1.0000 0.41000  0.07480  0.11150  Biso   1.000  H
  C300     1.0000 0.50130  0.05170  0.06320  Biso   1.000  C
  H538     1.0000 0.52720  0.08210  0.06480  Biso   1.000  H
  H539     1.0000 0.51320  0.03040  0.08130  Biso   1.000  H
  H540     1.0000 0.51220  0.03530  0.04290  Biso   1.000  H
  Cl40     1.0000 0.36450  0.18860  0.98560  Biso   1.000  Cl
  Cu41     1.0000 0.43298  0.71137  0.90810  Biso   1.000  Cu
  Cu42     1.0000 0.39292  0.64080  0.97711  Biso   1.000  Cu
  Cl41     1.0000 0.47981  0.63199  0.94117  Biso   1.000  Cl
  N221     1.0000 0.40010  0.74158  0.00317  Biso   1.000  N
  N222     1.0000 0.40810  0.71257  0.97769  Biso   1.000  N
  N223     1.0000 0.41800  0.73935  0.95176  Biso   1.000  N
  N224     1.0000 0.41530  0.78643  0.95943  Biso   1.000  N
  N225     1.0000 0.55960  0.90907  0.06556  Biso   1.000  N
  N226     1.0000 0.59050  0.92851  0.09124  Biso   1.000  N
  N227     1.0000 0.54810  0.93096  0.11517  Biso   1.000  N
  N228     1.0000 0.48760  0.91356  0.10655  Biso   1.000  N
  C301     1.0000 0.40410  0.78660  0.99107  Biso   1.000  C
  C302     1.0000 0.39120  0.83080  0.01168  Biso   1.000  C
  C303     1.0000 0.45270  0.84150  0.03326  Biso   1.000  C
  H541     1.0000 0.49300  0.84830  0.01970  Biso   1.000  H
  H542     1.0000 0.46280  0.81280  0.04680  Biso   1.000  H
  C304     1.0000 0.43770  0.88550  0.05469  Biso   1.000  C
  H543     1.0000 0.38420  0.84660  0.08990  Biso   1.000  H
  H544     1.0000 0.33560  0.86750  0.97600  Biso   1.000  H
  C305     1.0000 0.32870  0.81980  0.03313  Biso   1.000  C
  H545     1.0000 0.28910  0.81210  0.01940  Biso   1.000  H
  H546     1.0000 0.33830  0.79110  0.04690  Biso   1.000  H
  C306     1.0000 0.49580  0.90030  0.07567  Biso   1.000  C
  O61      1.0000 0.37190  0.57260  0.97770  Biso   1.000  O
  N229     1.0000 0.38650  0.49360  0.99180  Biso   1.000  N
  C307     1.0000 0.40630  0.53810  0.98670  Biso   1.000  C
  H547     1.0000 0.45310  0.54460  0.99030  Biso   1.000  H
  C308     1.0000 0.31600  0.47900  0.99240  Biso   1.000  C
  H548     1.0000 0.28950  0.50090  0.97860  Biso   1.000  H
  H549     1.0000 0.31190  0.44560  0.98440  Biso   1.000  H
  H550     1.0000 0.29880  0.48080  0.01450  Biso   1.000  H
  C309     1.0000 0.43730  0.45520  0.99740  Biso   1.000  C
  H551     1.0000 0.42870  0.43960  0.01820  Biso   1.000  H
  H552     1.0000 0.43440  0.43090  0.98020  Biso   1.000  H
  H553     1.0000 0.48280  0.46970  0.99750  Biso   1.000  H
  O62      1.0000 0.32680  0.65610  0.01340  Biso   1.000  O
  N230     1.0000 0.26530  0.65580  0.05930  Biso   1.000  N
  C310     1.0000 0.29990  0.63430  0.03610  Biso   1.000  C
  H554     1.0000 0.30440  0.59990  0.03690  Biso   1.000  H
  C311     1.0000 0.23610  0.62760  0.08590  Biso   1.000  C
  H555     1.0000 0.26960  0.60390  0.09360  Biso   1.000  H
  H556     1.0000 0.22390  0.64970  0.10360  Biso   1.000  H
  H557     1.0000 0.19550  0.61050  0.07840  Biso   1.000  H
  C312     1.0000 0.25570  0.70900  0.05840  Biso   1.000  C
  H558     1.0000 0.21900  0.71700  0.04340  Biso   1.000  H
  H559     1.0000 0.24380  0.72060  0.08000  Biso   1.000  H
  H560     1.0000 0.29780  0.72460  0.05130  Biso   1.000  H
  O63      1.0000 0.34270  0.63760  0.02190  Biso   1.000  O
  N231     1.0000 0.32110  0.68750  0.06430  Biso   1.000  N
  C313     1.0000 0.35490  0.66940  0.04090  Biso   1.000  C
  H561     1.0000 0.39820  0.68390  0.03800  Biso   1.000  H
  C314     1.0000 0.35350  0.69930  0.09520  Biso   1.000  C
  H562     1.0000 0.40300  0.69880  0.09270  Biso   1.000  H
  H563     1.0000 0.33910  0.73180  0.10220  Biso   1.000  H
  H564     1.0000 0.34000  0.67520  0.11150  Biso   1.000  H
  C315     1.0000 0.24870  0.69830  0.06320  Biso   1.000  C
  H565     1.0000 0.22280  0.66790  0.06480  Biso   1.000  H
  H566     1.0000 0.23680  0.71960  0.08130  Biso   1.000  H
  H567     1.0000 0.23780  0.71470  0.04290  Biso   1.000  H
  Cl42     1.0000 0.38550  0.56140  0.98560  Biso   1.000  Cl
  Cu43     1.0000 0.43298  0.21137  0.40810  Biso   1.000  Cu
  Cu44     1.0000 0.39292  0.14080  0.47711  Biso   1.000  Cu
  Cl43     1.0000 0.47981  0.13199  0.44117  Biso   1.000  Cl
  N232     1.0000 0.40010  0.24158  0.50317  Biso   1.000  N
  N233     1.0000 0.40810  0.21257  0.47769  Biso   1.000  N
  N234     1.0000 0.41800  0.23935  0.45176  Biso   1.000  N
  N235     1.0000 0.41530  0.28643  0.45943  Biso   1.000  N
  N236     1.0000 0.55960  0.40907  0.56556  Biso   1.000  N
  N237     1.0000 0.59050  0.42851  0.59124  Biso   1.000  N
  N238     1.0000 0.54810  0.43096  0.61517  Biso   1.000  N
  N239     1.0000 0.48760  0.41356  0.60655  Biso   1.000  N
  C316     1.0000 0.40410  0.28660  0.49107  Biso   1.000  C
  C317     1.0000 0.39120  0.33080  0.51168  Biso   1.000  C
  C318     1.0000 0.45270  0.34150  0.53326  Biso   1.000  C
  H568     1.0000 0.49300  0.34830  0.51970  Biso   1.000  H
  H569     1.0000 0.46280  0.31280  0.54680  Biso   1.000  H
  C319     1.0000 0.43770  0.38550  0.55469  Biso   1.000  C
  H570     1.0000 0.38420  0.34660  0.58990  Biso   1.000  H
  H571     1.0000 0.33560  0.36750  0.47600  Biso   1.000  H
  C320     1.0000 0.32870  0.31980  0.53313  Biso   1.000  C
  H572     1.0000 0.28910  0.31210  0.51940  Biso   1.000  H
  H573     1.0000 0.33830  0.29110  0.54690  Biso   1.000  H
  C321     1.0000 0.49580  0.40030  0.57567  Biso   1.000  C
  O64      1.0000 0.37190  0.07260  0.47770  Biso   1.000  O
  N240     1.0000 0.38650  0.99360  0.49180  Biso   1.000  N
  C322     1.0000 0.40630  0.03810  0.48670  Biso   1.000  C
  H574     1.0000 0.45310  0.04460  0.49030  Biso   1.000  H
  C323     1.0000 0.31600  0.97900  0.49240  Biso   1.000  C
  H575     1.0000 0.28950  0.00090  0.47860  Biso   1.000  H
  H576     1.0000 0.31190  0.94560  0.48440  Biso   1.000  H
  H577     1.0000 0.29880  0.98080  0.51450  Biso   1.000  H
  C324     1.0000 0.43730  0.95520  0.49740  Biso   1.000  C
  H578     1.0000 0.42870  0.93960  0.51820  Biso   1.000  H
  H579     1.0000 0.43440  0.93090  0.48020  Biso   1.000  H
  H580     1.0000 0.48280  0.96970  0.49750  Biso   1.000  H
  O65      1.0000 0.32680  0.15610  0.51340  Biso   1.000  O
  N241     1.0000 0.26530  0.15580  0.55930  Biso   1.000  N
  C325     1.0000 0.29990  0.13430  0.53610  Biso   1.000  C
  H581     1.0000 0.30440  0.09990  0.53690  Biso   1.000  H
  C326     1.0000 0.23610  0.12760  0.58590  Biso   1.000  C
  H582     1.0000 0.26960  0.10390  0.59360  Biso   1.000  H
  H583     1.0000 0.22390  0.14970  0.60360  Biso   1.000  H
  H584     1.0000 0.19550  0.11050  0.57840  Biso   1.000  H
  C327     1.0000 0.25570  0.20900  0.55840  Biso   1.000  C
  H585     1.0000 0.21900  0.21700  0.54340  Biso   1.000  H
  H586     1.0000 0.24380  0.22060  0.58000  Biso   1.000  H
  H587     1.0000 0.29780  0.22460  0.55130  Biso   1.000  H
  O66      1.0000 0.34270  0.13760  0.52190  Biso   1.000  O
  N242     1.0000 0.32110  0.18750  0.56430  Biso   1.000  N
  C328     1.0000 0.35490  0.16940  0.54090  Biso   1.000  C
  H588     1.0000 0.39820  0.18390  0.53800  Biso   1.000  H
  C329     1.0000 0.35350  0.19930  0.59520  Biso   1.000  C
  H589     1.0000 0.40300  0.19880  0.59270  Biso   1.000  H
  H590     1.0000 0.33910  0.23180  0.60220  Biso   1.000  H
  H591     1.0000 0.34000  0.17520  0.61150  Biso   1.000  H
  C330     1.0000 0.24870  0.19830  0.56320  Biso   1.000  C
  H592     1.0000 0.22280  0.16790  0.56480  Biso   1.000  H
  H593     1.0000 0.23680  0.21960  0.58130  Biso   1.000  H
  H594     1.0000 0.23780  0.21470  0.54290  Biso   1.000  H
  Cl44     1.0000 0.38550  0.06140  0.48560  Biso   1.000  Cl
  Cu45     1.0000 0.93298  0.71137  0.40810  Biso   1.000  Cu
  Cu46     1.0000 0.89292  0.64080  0.47711  Biso   1.000  Cu
  Cl45     1.0000 0.97981  0.63199  0.44117  Biso   1.000  Cl
  N243     1.0000 0.90010  0.74158  0.50317  Biso   1.000  N
  N244     1.0000 0.90810  0.71257  0.47769  Biso   1.000  N
  N245     1.0000 0.91800  0.73935  0.45176  Biso   1.000  N
  N246     1.0000 0.91530  0.78643  0.45943  Biso   1.000  N
  N247     1.0000 0.05960  0.90907  0.56556  Biso   1.000  N
  N248     1.0000 0.09050  0.92851  0.59124  Biso   1.000  N
  N249     1.0000 0.04810  0.93096  0.61517  Biso   1.000  N
  N250     1.0000 0.98760  0.91356  0.60655  Biso   1.000  N
  C331     1.0000 0.90410  0.78660  0.49107  Biso   1.000  C
  C332     1.0000 0.89120  0.83080  0.51168  Biso   1.000  C
  C333     1.0000 0.95270  0.84150  0.53326  Biso   1.000  C
  H595     1.0000 0.99300  0.84830  0.51970  Biso   1.000  H
  H596     1.0000 0.96280  0.81280  0.54680  Biso   1.000  H
  C334     1.0000 0.93770  0.88550  0.55469  Biso   1.000  C
  H597     1.0000 0.88420  0.84660  0.58990  Biso   1.000  H
  H598     1.0000 0.83560  0.86750  0.47600  Biso   1.000  H
  C335     1.0000 0.82870  0.81980  0.53313  Biso   1.000  C
  H599     1.0000 0.78910  0.81210  0.51940  Biso   1.000  H
  H600     1.0000 0.83830  0.79110  0.54690  Biso   1.000  H
  C336     1.0000 0.99580  0.90030  0.57567  Biso   1.000  C
  O67      1.0000 0.87190  0.57260  0.47770  Biso   1.000  O
  N251     1.0000 0.88650  0.49360  0.49180  Biso   1.000  N
  C337     1.0000 0.90630  0.53810  0.48670  Biso   1.000  C
  H601     1.0000 0.95310  0.54460  0.49030  Biso   1.000  H
  C338     1.0000 0.81600  0.47900  0.49240  Biso   1.000  C
  H602     1.0000 0.78950  0.50090  0.47860  Biso   1.000  H
  H603     1.0000 0.81190  0.44560  0.48440  Biso   1.000  H
  H604     1.0000 0.79880  0.48080  0.51450  Biso   1.000  H
  C339     1.0000 0.93730  0.45520  0.49740  Biso   1.000  C
  H605     1.0000 0.92870  0.43960  0.51820  Biso   1.000  H
  H606     1.0000 0.93440  0.43090  0.48020  Biso   1.000  H
  H607     1.0000 0.98280  0.46970  0.49750  Biso   1.000  H
  O68      1.0000 0.82680  0.65610  0.51340  Biso   1.000  O
  N252     1.0000 0.76530  0.65580  0.55930  Biso   1.000  N
  C340     1.0000 0.79990  0.63430  0.53610  Biso   1.000  C
  H608     1.0000 0.80440  0.59990  0.53690  Biso   1.000  H
  C341     1.0000 0.73610  0.62760  0.58590  Biso   1.000  C
  H609     1.0000 0.76960  0.60390  0.59360  Biso   1.000  H
  H610     1.0000 0.72390  0.64970  0.60360  Biso   1.000  H
  H611     1.0000 0.69550  0.61050  0.57840  Biso   1.000  H
  C342     1.0000 0.75570  0.70900  0.55840  Biso   1.000  C
  H612     1.0000 0.71900  0.71700  0.54340  Biso   1.000  H
  H613     1.0000 0.74380  0.72060  0.58000  Biso   1.000  H
  H614     1.0000 0.79780  0.72460  0.55130  Biso   1.000  H
  O69      1.0000 0.84270  0.63760  0.52190  Biso   1.000  O
  N253     1.0000 0.82110  0.68750  0.56430  Biso   1.000  N
  C343     1.0000 0.85490  0.66940  0.54090  Biso   1.000  C
  H615     1.0000 0.89820  0.68390  0.53800  Biso   1.000  H
  C344     1.0000 0.85350  0.69930  0.59520  Biso   1.000  C
  H616     1.0000 0.90300  0.69880  0.59270  Biso   1.000  H
  H617     1.0000 0.83910  0.73180  0.60220  Biso   1.000  H
  H618     1.0000 0.84000  0.67520  0.61150  Biso   1.000  H
  C345     1.0000 0.74870  0.69830  0.56320  Biso   1.000  C
  H619     1.0000 0.72280  0.66790  0.56480  Biso   1.000  H
  H620     1.0000 0.73680  0.71960  0.58130  Biso   1.000  H
  H621     1.0000 0.73780  0.71470  0.54290  Biso   1.000  H
  Cl46     1.0000 0.88550  0.56140  0.48560  Biso   1.000  Cl
  Cu47     1.0000 0.93298  0.21137  0.90810  Biso   1.000  Cu
  Cu48     1.0000 0.89292  0.14080  0.97711  Biso   1.000  Cu
  Cl47     1.0000 0.97981  0.13199  0.94117  Biso   1.000  Cl
  N254     1.0000 0.90010  0.24158  0.00317  Biso   1.000  N
  N255     1.0000 0.90810  0.21257  0.97769  Biso   1.000  N
  N256     1.0000 0.91800  0.23935  0.95176  Biso   1.000  N
  N257     1.0000 0.91530  0.28643  0.95943  Biso   1.000  N
  N258     1.0000 0.05960  0.40907  0.06556  Biso   1.000  N
  N259     1.0000 0.09050  0.42851  0.09124  Biso   1.000  N
  N260     1.0000 0.04810  0.43096  0.11517  Biso   1.000  N
  N261     1.0000 0.98760  0.41356  0.10655  Biso   1.000  N
  C346     1.0000 0.90410  0.28660  0.99107  Biso   1.000  C
  C347     1.0000 0.89120  0.33080  0.01168  Biso   1.000  C
  C348     1.0000 0.95270  0.34150  0.03326  Biso   1.000  C
  H622     1.0000 0.99300  0.34830  0.01970  Biso   1.000  H
  H623     1.0000 0.96280  0.31280  0.04680  Biso   1.000  H
  C349     1.0000 0.93770  0.38550  0.05469  Biso   1.000  C
  H624     1.0000 0.88420  0.34660  0.08990  Biso   1.000  H
  H625     1.0000 0.83560  0.36750  0.97600  Biso   1.000  H
  C350     1.0000 0.82870  0.31980  0.03313  Biso   1.000  C
  H626     1.0000 0.78910  0.31210  0.01940  Biso   1.000  H
  H627     1.0000 0.83830  0.29110  0.04690  Biso   1.000  H
  C351     1.0000 0.99580  0.40030  0.07567  Biso   1.000  C
  O70      1.0000 0.87190  0.07260  0.97770  Biso   1.000  O
  N262     1.0000 0.88650  0.99360  0.99180  Biso   1.000  N
  C352     1.0000 0.90630  0.03810  0.98670  Biso   1.000  C
  H628     1.0000 0.95310  0.04460  0.99030  Biso   1.000  H
  C353     1.0000 0.81600  0.97900  0.99240  Biso   1.000  C
  H629     1.0000 0.78950  0.00090  0.97860  Biso   1.000  H
  H630     1.0000 0.81190  0.94560  0.98440  Biso   1.000  H
  H631     1.0000 0.79880  0.98080  0.01450  Biso   1.000  H
  C354     1.0000 0.93730  0.95520  0.99740  Biso   1.000  C
  H632     1.0000 0.92870  0.93960  0.01820  Biso   1.000  H
  H633     1.0000 0.93440  0.93090  0.98020  Biso   1.000  H
  H634     1.0000 0.98280  0.96970  0.99750  Biso   1.000  H
  O71      1.0000 0.82680  0.15610  0.01340  Biso   1.000  O
  N263     1.0000 0.76530  0.15580  0.05930  Biso   1.000  N
  C355     1.0000 0.79990  0.13430  0.03610  Biso   1.000  C
  H635     1.0000 0.80440  0.09990  0.03690  Biso   1.000  H
  C356     1.0000 0.73610  0.12760  0.08590  Biso   1.000  C
  H636     1.0000 0.76960  0.10390  0.09360  Biso   1.000  H
  H637     1.0000 0.72390  0.14970  0.10360  Biso   1.000  H
  H638     1.0000 0.69550  0.11050  0.07840  Biso   1.000  H
  C357     1.0000 0.75570  0.20900  0.05840  Biso   1.000  C
  H639     1.0000 0.71900  0.21700  0.04340  Biso   1.000  H
  H640     1.0000 0.74380  0.22060  0.08000  Biso   1.000  H
  H641     1.0000 0.79780  0.22460  0.05130  Biso   1.000  H
  O72      1.0000 0.84270  0.13760  0.02190  Biso   1.000  O
  N264     1.0000 0.82110  0.18750  0.06430  Biso   1.000  N
  C358     1.0000 0.85490  0.16940  0.04090  Biso   1.000  C
  H642     1.0000 0.89820  0.18390  0.03800  Biso   1.000  H
  C359     1.0000 0.85350  0.19930  0.09520  Biso   1.000  C
  H643     1.0000 0.90300  0.19880  0.09270  Biso   1.000  H
  H644     1.0000 0.83910  0.23180  0.10220  Biso   1.000  H
  H645     1.0000 0.84000  0.17520  0.11150  Biso   1.000  H
  C360     1.0000 0.74870  0.19830  0.06320  Biso   1.000  C
  H646     1.0000 0.72280  0.16790  0.06480  Biso   1.000  H
  H647     1.0000 0.73680  0.21960  0.08130  Biso   1.000  H
  H648     1.0000 0.73780  0.21470  0.04290  Biso   1.000  H
  Cl48     1.0000 0.88550  0.06140  0.98560  Biso   1.000  Cl
  Cu49     1.0000 0.43298  0.53863  0.34190  Biso   1.000  Cu
  Cu50     1.0000 0.39292  0.60920  0.27289  Biso   1.000  Cu
  Cl49     1.0000 0.47981  0.61801  0.30883  Biso   1.000  Cl
  N265     1.0000 0.40010  0.50842  0.24683  Biso   1.000  N
  N266     1.0000 0.40810  0.53743  0.27231  Biso   1.000  N
  N267     1.0000 0.41800  0.51065  0.29824  Biso   1.000  N
  N268     1.0000 0.41530  0.46357  0.29057  Biso   1.000  N
  N269     1.0000 0.55960  0.34093  0.18444  Biso   1.000  N
  N270     1.0000 0.59050  0.32149  0.15876  Biso   1.000  N
  N271     1.0000 0.54810  0.31904  0.13483  Biso   1.000  N
  N272     1.0000 0.48760  0.33644  0.14345  Biso   1.000  N
  C361     1.0000 0.40410  0.46340  0.25893  Biso   1.000  C
  C362     1.0000 0.39120  0.41920  0.23832  Biso   1.000  C
  C363     1.0000 0.45270  0.40850  0.21674  Biso   1.000  C
  H649     1.0000 0.49300  0.40170  0.23030  Biso   1.000  H
  H650     1.0000 0.46280  0.43720  0.20320  Biso   1.000  H
  C364     1.0000 0.43770  0.36450  0.19531  Biso   1.000  C
  H651     1.0000 0.38420  0.40340  0.16010  Biso   1.000  H
  H652     1.0000 0.33560  0.38250  0.27400  Biso   1.000  H
  C365     1.0000 0.32870  0.43020  0.21687  Biso   1.000  C
  H653     1.0000 0.28910  0.43790  0.23060  Biso   1.000  H
  H654     1.0000 0.33830  0.45890  0.20310  Biso   1.000  H
  C366     1.0000 0.49580  0.34970  0.17433  Biso   1.000  C
  O73      1.0000 0.37190  0.67740  0.27230  Biso   1.000  O
  N273     1.0000 0.38650  0.75640  0.25820  Biso   1.000  N
  C367     1.0000 0.40630  0.71190  0.26330  Biso   1.000  C
  H655     1.0000 0.45310  0.70540  0.25970  Biso   1.000  H
  C368     1.0000 0.31600  0.77100  0.25760  Biso   1.000  C
  H656     1.0000 0.28950  0.74910  0.27140  Biso   1.000  H
  H657     1.0000 0.31190  0.80440  0.26560  Biso   1.000  H
  H658     1.0000 0.29880  0.76920  0.23550  Biso   1.000  H
  C369     1.0000 0.43730  0.79480  0.25260  Biso   1.000  C
  H659     1.0000 0.42870  0.81040  0.23180  Biso   1.000  H
  H660     1.0000 0.43440  0.81910  0.26980  Biso   1.000  H
  H661     1.0000 0.48280  0.78030  0.25250  Biso   1.000  H
  O74      1.0000 0.32680  0.59390  0.23660  Biso   1.000  O
  N274     1.0000 0.26530  0.59420  0.19070  Biso   1.000  N
  C370     1.0000 0.29990  0.61570  0.21390  Biso   1.000  C
  H662     1.0000 0.30440  0.65010  0.21310  Biso   1.000  H
  C371     1.0000 0.23610  0.62240  0.16410  Biso   1.000  C
  H663     1.0000 0.26960  0.64610  0.15640  Biso   1.000  H
  H664     1.0000 0.22390  0.60030  0.14640  Biso   1.000  H
  H665     1.0000 0.19550  0.63950  0.17160  Biso   1.000  H
  C372     1.0000 0.25570  0.54100  0.19160  Biso   1.000  C
  H666     1.0000 0.21900  0.53300  0.20660  Biso   1.000  H
  H667     1.0000 0.24380  0.52940  0.17000  Biso   1.000  H
  H668     1.0000 0.29780  0.52540  0.19870  Biso   1.000  H
  O75      1.0000 0.34270  0.61240  0.22810  Biso   1.000  O
  N275     1.0000 0.32110  0.56250  0.18570  Biso   1.000  N
  C373     1.0000 0.35490  0.58060  0.20910  Biso   1.000  C
  H669     1.0000 0.39820  0.56610  0.21200  Biso   1.000  H
  C374     1.0000 0.35350  0.55070  0.15480  Biso   1.000  C
  H670     1.0000 0.40300  0.55120  0.15730  Biso   1.000  H
  H671     1.0000 0.33910  0.51820  0.14780  Biso   1.000  H
  H672     1.0000 0.34000  0.57480  0.13850  Biso   1.000  H
  C375     1.0000 0.24870  0.55170  0.18680  Biso   1.000  C
  H673     1.0000 0.22280  0.58210  0.18520  Biso   1.000  H
  H674     1.0000 0.23680  0.53040  0.16870  Biso   1.000  H
  H675     1.0000 0.23780  0.53530  0.20710  Biso   1.000  H
  Cl50     1.0000 0.38550  0.68860  0.26440  Biso   1.000  Cl
  Cu51     1.0000 0.43298  0.03863  0.84190  Biso   1.000  Cu
  Cu52     1.0000 0.39292  0.10920  0.77289  Biso   1.000  Cu
  Cl51     1.0000 0.47981  0.11801  0.80883  Biso   1.000  Cl
  N276     1.0000 0.40010  0.00842  0.74683  Biso   1.000  N
  N277     1.0000 0.40810  0.03743  0.77231  Biso   1.000  N
  N278     1.0000 0.41800  0.01065  0.79824  Biso   1.000  N
  N279     1.0000 0.41530  0.96357  0.79057  Biso   1.000  N
  N280     1.0000 0.55960  0.84093  0.68444  Biso   1.000  N
  N281     1.0000 0.59050  0.82149  0.65876  Biso   1.000  N
  N282     1.0000 0.54810  0.81904  0.63483  Biso   1.000  N
  N283     1.0000 0.48760  0.83644  0.64345  Biso   1.000  N
  C376     1.0000 0.40410  0.96340  0.75893  Biso   1.000  C
  C377     1.0000 0.39120  0.91920  0.73832  Biso   1.000  C
  C378     1.0000 0.45270  0.90850  0.71674  Biso   1.000  C
  H676     1.0000 0.49300  0.90170  0.73030  Biso   1.000  H
  H677     1.0000 0.46280  0.93720  0.70320  Biso   1.000  H
  C379     1.0000 0.43770  0.86450  0.69531  Biso   1.000  C
  H678     1.0000 0.38420  0.90340  0.66010  Biso   1.000  H
  H679     1.0000 0.33560  0.88250  0.77400  Biso   1.000  H
  C380     1.0000 0.32870  0.93020  0.71687  Biso   1.000  C
  H680     1.0000 0.28910  0.93790  0.73060  Biso   1.000  H
  H681     1.0000 0.33830  0.95890  0.70310  Biso   1.000  H
  C381     1.0000 0.49580  0.84970  0.67433  Biso   1.000  C
  O76      1.0000 0.37190  0.17740  0.77230  Biso   1.000  O
  N284     1.0000 0.38650  0.25640  0.75820  Biso   1.000  N
  C382     1.0000 0.40630  0.21190  0.76330  Biso   1.000  C
  H682     1.0000 0.45310  0.20540  0.75970  Biso   1.000  H
  C383     1.0000 0.31600  0.27100  0.75760  Biso   1.000  C
  H683     1.0000 0.28950  0.24910  0.77140  Biso   1.000  H
  H684     1.0000 0.31190  0.30440  0.76560  Biso   1.000  H
  H685     1.0000 0.29880  0.26920  0.73550  Biso   1.000  H
  C384     1.0000 0.43730  0.29480  0.75260  Biso   1.000  C
  H686     1.0000 0.42870  0.31040  0.73180  Biso   1.000  H
  H687     1.0000 0.43440  0.31910  0.76980  Biso   1.000  H
  H688     1.0000 0.48280  0.28030  0.75250  Biso   1.000  H
  O77      1.0000 0.32680  0.09390  0.73660  Biso   1.000  O
  N285     1.0000 0.26530  0.09420  0.69070  Biso   1.000  N
  C385     1.0000 0.29990  0.11570  0.71390  Biso   1.000  C
  H689     1.0000 0.30440  0.15010  0.71310  Biso   1.000  H
  C386     1.0000 0.23610  0.12240  0.66410  Biso   1.000  C
  H690     1.0000 0.26960  0.14610  0.65640  Biso   1.000  H
  H691     1.0000 0.22390  0.10030  0.64640  Biso   1.000  H
  H692     1.0000 0.19550  0.13950  0.67160  Biso   1.000  H
  C387     1.0000 0.25570  0.04100  0.69160  Biso   1.000  C
  H693     1.0000 0.21900  0.03300  0.70660  Biso   1.000  H
  H694     1.0000 0.24380  0.02940  0.67000  Biso   1.000  H
  H695     1.0000 0.29780  0.02540  0.69870  Biso   1.000  H
  O78      1.0000 0.34270  0.11240  0.72810  Biso   1.000  O
  N286     1.0000 0.32110  0.06250  0.68570  Biso   1.000  N
  C388     1.0000 0.35490  0.08060  0.70910  Biso   1.000  C
  H696     1.0000 0.39820  0.06610  0.71200  Biso   1.000  H
  C389     1.0000 0.35350  0.05070  0.65480  Biso   1.000  C
  H697     1.0000 0.40300  0.05120  0.65730  Biso   1.000  H
  H698     1.0000 0.33910  0.01820  0.64780  Biso   1.000  H
  H699     1.0000 0.34000  0.07480  0.63850  Biso   1.000  H
  C390     1.0000 0.24870  0.05170  0.68680  Biso   1.000  C
  H700     1.0000 0.22280  0.08210  0.68520  Biso   1.000  H
  H701     1.0000 0.23680  0.03040  0.66870  Biso   1.000  H
  H702     1.0000 0.23780  0.03530  0.70710  Biso   1.000  H
  Cl52     1.0000 0.38550  0.18860  0.76440  Biso   1.000  Cl
  Cu53     1.0000 0.93298  0.53863  0.84190  Biso   1.000  Cu
  Cu54     1.0000 0.89292  0.60920  0.77289  Biso   1.000  Cu
  Cl53     1.0000 0.97981  0.61801  0.80883  Biso   1.000  Cl
  N287     1.0000 0.90010  0.50842  0.74683  Biso   1.000  N
  N288     1.0000 0.90810  0.53743  0.77231  Biso   1.000  N
  N289     1.0000 0.91800  0.51065  0.79824  Biso   1.000  N
  N290     1.0000 0.91530  0.46357  0.79057  Biso   1.000  N
  N291     1.0000 0.05960  0.34093  0.68444  Biso   1.000  N
  N292     1.0000 0.09050  0.32149  0.65876  Biso   1.000  N
  N293     1.0000 0.04810  0.31904  0.63483  Biso   1.000  N
  N294     1.0000 0.98760  0.33644  0.64345  Biso   1.000  N
  C391     1.0000 0.90410  0.46340  0.75893  Biso   1.000  C
  C392     1.0000 0.89120  0.41920  0.73832  Biso   1.000  C
  C393     1.0000 0.95270  0.40850  0.71674  Biso   1.000  C
  H703     1.0000 0.99300  0.40170  0.73030  Biso   1.000  H
  H704     1.0000 0.96280  0.43720  0.70320  Biso   1.000  H
  C394     1.0000 0.93770  0.36450  0.69531  Biso   1.000  C
  H705     1.0000 0.88420  0.40340  0.66010  Biso   1.000  H
  H706     1.0000 0.83560  0.38250  0.77400  Biso   1.000  H
  C395     1.0000 0.82870  0.43020  0.71687  Biso   1.000  C
  H707     1.0000 0.78910  0.43790  0.73060  Biso   1.000  H
  H708     1.0000 0.83830  0.45890  0.70310  Biso   1.000  H
  C396     1.0000 0.99580  0.34970  0.67433  Biso   1.000  C
  O79      1.0000 0.87190  0.67740  0.77230  Biso   1.000  O
  N295     1.0000 0.88650  0.75640  0.75820  Biso   1.000  N
  C397     1.0000 0.90630  0.71190  0.76330  Biso   1.000  C
  H709     1.0000 0.95310  0.70540  0.75970  Biso   1.000  H
  C398     1.0000 0.81600  0.77100  0.75760  Biso   1.000  C
  H710     1.0000 0.78950  0.74910  0.77140  Biso   1.000  H
  H711     1.0000 0.81190  0.80440  0.76560  Biso   1.000  H
  H712     1.0000 0.79880  0.76920  0.73550  Biso   1.000  H
  C399     1.0000 0.93730  0.79480  0.75260  Biso   1.000  C
  H713     1.0000 0.92870  0.81040  0.73180  Biso   1.000  H
  H714     1.0000 0.93440  0.81910  0.76980  Biso   1.000  H
  H715     1.0000 0.98280  0.78030  0.75250  Biso   1.000  H
  O80      1.0000 0.82680  0.59390  0.73660  Biso   1.000  O
  N296     1.0000 0.76530  0.59420  0.69070  Biso   1.000  N
  C400     1.0000 0.79990  0.61570  0.71390  Biso   1.000  C
  H716     1.0000 0.80440  0.65010  0.71310  Biso   1.000  H
  C401     1.0000 0.73610  0.62240  0.66410  Biso   1.000  C
  H717     1.0000 0.76960  0.64610  0.65640  Biso   1.000  H
  H718     1.0000 0.72390  0.60030  0.64640  Biso   1.000  H
  H719     1.0000 0.69550  0.63950  0.67160  Biso   1.000  H
  C402     1.0000 0.75570  0.54100  0.69160  Biso   1.000  C
  H720     1.0000 0.71900  0.53300  0.70660  Biso   1.000  H
  H721     1.0000 0.74380  0.52940  0.67000  Biso   1.000  H
  H722     1.0000 0.79780  0.52540  0.69870  Biso   1.000  H
  O81      1.0000 0.84270  0.61240  0.72810  Biso   1.000  O
  N297     1.0000 0.82110  0.56250  0.68570  Biso   1.000  N
  C403     1.0000 0.85490  0.58060  0.70910  Biso   1.000  C
  H723     1.0000 0.89820  0.56610  0.71200  Biso   1.000  H
  C404     1.0000 0.85350  0.55070  0.65480  Biso   1.000  C
  H724     1.0000 0.90300  0.55120  0.65730  Biso   1.000  H
  H725     1.0000 0.83910  0.51820  0.64780  Biso   1.000  H
  H726     1.0000 0.84000  0.57480  0.63850  Biso   1.000  H
  C405     1.0000 0.74870  0.55170  0.68680  Biso   1.000  C
  H727     1.0000 0.72280  0.58210  0.68520  Biso   1.000  H
  H728     1.0000 0.73680  0.53040  0.66870  Biso   1.000  H
  H729     1.0000 0.73780  0.53530  0.70710  Biso   1.000  H
  Cl54     1.0000 0.88550  0.68860  0.76440  Biso   1.000  Cl
  Cu55     1.0000 0.93298  0.03863  0.34190  Biso   1.000  Cu
  Cu56     1.0000 0.89292  0.10920  0.27289  Biso   1.000  Cu
  Cl55     1.0000 0.97981  0.11801  0.30883  Biso   1.000  Cl
  N298     1.0000 0.90010  0.00842  0.24683  Biso   1.000  N
  N299     1.0000 0.90810  0.03743  0.27231  Biso   1.000  N
  N300     1.0000 0.91800  0.01065  0.29824  Biso   1.000  N
  N301     1.0000 0.91530  0.96357  0.29057  Biso   1.000  N
  N302     1.0000 0.05960  0.84093  0.18444  Biso   1.000  N
  N303     1.0000 0.09050  0.82149  0.15876  Biso   1.000  N
  N304     1.0000 0.04810  0.81904  0.13483  Biso   1.000  N
  N305     1.0000 0.98760  0.83644  0.14345  Biso   1.000  N
  C406     1.0000 0.90410  0.96340  0.25893  Biso   1.000  C
  C407     1.0000 0.89120  0.91920  0.23832  Biso   1.000  C
  C408     1.0000 0.95270  0.90850  0.21674  Biso   1.000  C
  H730     1.0000 0.99300  0.90170  0.23030  Biso   1.000  H
  H731     1.0000 0.96280  0.93720  0.20320  Biso   1.000  H
  C409     1.0000 0.93770  0.86450  0.19531  Biso   1.000  C
  H732     1.0000 0.88420  0.90340  0.16010  Biso   1.000  H
  H733     1.0000 0.83560  0.88250  0.27400  Biso   1.000  H
  C410     1.0000 0.82870  0.93020  0.21687  Biso   1.000  C
  H734     1.0000 0.78910  0.93790  0.23060  Biso   1.000  H
  H735     1.0000 0.83830  0.95890  0.20310  Biso   1.000  H
  C411     1.0000 0.99580  0.84970  0.17433  Biso   1.000  C
  O82      1.0000 0.87190  0.17740  0.27230  Biso   1.000  O
  N306     1.0000 0.88650  0.25640  0.25820  Biso   1.000  N
  C412     1.0000 0.90630  0.21190  0.26330  Biso   1.000  C
  H736     1.0000 0.95310  0.20540  0.25970  Biso   1.000  H
  C413     1.0000 0.81600  0.27100  0.25760  Biso   1.000  C
  H737     1.0000 0.78950  0.24910  0.27140  Biso   1.000  H
  H738     1.0000 0.81190  0.30440  0.26560  Biso   1.000  H
  H739     1.0000 0.79880  0.26920  0.23550  Biso   1.000  H
  C414     1.0000 0.93730  0.29480  0.25260  Biso   1.000  C
  H740     1.0000 0.92870  0.31040  0.23180  Biso   1.000  H
  H741     1.0000 0.93440  0.31910  0.26980  Biso   1.000  H
  H742     1.0000 0.98280  0.28030  0.25250  Biso   1.000  H
  O83      1.0000 0.82680  0.09390  0.23660  Biso   1.000  O
  N307     1.0000 0.76530  0.09420  0.19070  Biso   1.000  N
  C415     1.0000 0.79990  0.11570  0.21390  Biso   1.000  C
  H743     1.0000 0.80440  0.15010  0.21310  Biso   1.000  H
  C416     1.0000 0.73610  0.12240  0.16410  Biso   1.000  C
  H744     1.0000 0.76960  0.14610  0.15640  Biso   1.000  H
  H745     1.0000 0.72390  0.10030  0.14640  Biso   1.000  H
  H746     1.0000 0.69550  0.13950  0.17160  Biso   1.000  H
  C417     1.0000 0.75570  0.04100  0.19160  Biso   1.000  C
  H747     1.0000 0.71900  0.03300  0.20660  Biso   1.000  H
  H748     1.0000 0.74380  0.02940  0.17000  Biso   1.000  H
  H749     1.0000 0.79780  0.02540  0.19870  Biso   1.000  H
  O84      1.0000 0.84270  0.11240  0.22810  Biso   1.000  O
  N308     1.0000 0.82110  0.06250  0.18570  Biso   1.000  N
  C418     1.0000 0.85490  0.08060  0.20910  Biso   1.000  C
  H750     1.0000 0.89820  0.06610  0.21200  Biso   1.000  H
  C419     1.0000 0.85350  0.05070  0.15480  Biso   1.000  C
  H751     1.0000 0.90300  0.05120  0.15730  Biso   1.000  H
  H752     1.0000 0.83910  0.01820  0.14780  Biso   1.000  H
  H753     1.0000 0.84000  0.07480  0.13850  Biso   1.000  H
  C420     1.0000 0.74870  0.05170  0.18680  Biso   1.000  C
  H754     1.0000 0.72280  0.08210  0.18520  Biso   1.000  H
  H755     1.0000 0.73680  0.03040  0.16870  Biso   1.000  H
  H756     1.0000 0.73780  0.03530  0.20710  Biso   1.000  H
  Cl56     1.0000 0.88550  0.18860  0.26440  Biso   1.000  Cl
  Cu57     1.0000 0.81702  0.71137  0.34190  Biso   1.000  Cu
  Cu58     1.0000 0.85708  0.64080  0.27289  Biso   1.000  Cu
  Cl57     1.0000 0.77019  0.63199  0.30883  Biso   1.000  Cl
  N309     1.0000 0.84990  0.74158  0.24683  Biso   1.000  N
  N310     1.0000 0.84190  0.71257  0.27231  Biso   1.000  N
  N311     1.0000 0.83200  0.73935  0.29824  Biso   1.000  N
  N312     1.0000 0.83470  0.78643  0.29057  Biso   1.000  N
  N313     1.0000 0.69040  0.90907  0.18444  Biso   1.000  N
  N314     1.0000 0.65950  0.92851  0.15876  Biso   1.000  N
  N315     1.0000 0.70190  0.93096  0.13483  Biso   1.000  N
  N316     1.0000 0.76240  0.91356  0.14345  Biso   1.000  N
  C421     1.0000 0.84590  0.78660  0.25893  Biso   1.000  C
  C422     1.0000 0.85880  0.83080  0.23832  Biso   1.000  C
  C423     1.0000 0.79730  0.84150  0.21674  Biso   1.000  C
  H757     1.0000 0.75700  0.84830  0.23030  Biso   1.000  H
  H758     1.0000 0.78720  0.81280  0.20320  Biso   1.000  H
  C424     1.0000 0.81230  0.88550  0.19531  Biso   1.000  C
  H759     1.0000 0.86580  0.84660  0.16010  Biso   1.000  H
  H760     1.0000 0.91440  0.86750  0.27400  Biso   1.000  H
  C425     1.0000 0.92130  0.81980  0.21687  Biso   1.000  C
  H761     1.0000 0.96090  0.81210  0.23060  Biso   1.000  H
  H762     1.0000 0.91170  0.79110  0.20310  Biso   1.000  H
  C426     1.0000 0.75420  0.90030  0.17433  Biso   1.000  C
  O85      1.0000 0.87810  0.57260  0.27230  Biso   1.000  O
  N317     1.0000 0.86350  0.49360  0.25820  Biso   1.000  N
  C427     1.0000 0.84370  0.53810  0.26330  Biso   1.000  C
  H763     1.0000 0.79690  0.54460  0.25970  Biso   1.000  H
  C428     1.0000 0.93400  0.47900  0.25760  Biso   1.000  C
  H764     1.0000 0.96050  0.50090  0.27140  Biso   1.000  H
  H765     1.0000 0.93810  0.44560  0.26560  Biso   1.000  H
  H766     1.0000 0.95120  0.48080  0.23550  Biso   1.000  H
  C429     1.0000 0.81270  0.45520  0.25260  Biso   1.000  C
  H767     1.0000 0.82130  0.43960  0.23180  Biso   1.000  H
  H768     1.0000 0.81560  0.43090  0.26980  Biso   1.000  H
  H769     1.0000 0.76720  0.46970  0.25250  Biso   1.000  H
  O86      1.0000 0.92320  0.65610  0.23660  Biso   1.000  O
  N318     1.0000 0.98470  0.65580  0.19070  Biso   1.000  N
  C430     1.0000 0.95010  0.63430  0.21390  Biso   1.000  C
  H770     1.0000 0.94560  0.59990  0.21310  Biso   1.000  H
  C431     1.0000 0.01390  0.62760  0.16410  Biso   1.000  C
  H771     1.0000 0.98040  0.60390  0.15640  Biso   1.000  H
  H772     1.0000 0.02610  0.64970  0.14640  Biso   1.000  H
  H773     1.0000 0.05450  0.61050  0.17160  Biso   1.000  H
  C432     1.0000 0.99430  0.70900  0.19160  Biso   1.000  C
  H774     1.0000 0.03100  0.71700  0.20660  Biso   1.000  H
  H775     1.0000 0.00620  0.72060  0.17000  Biso   1.000  H
  H776     1.0000 0.95220  0.72460  0.19870  Biso   1.000  H
  O87      1.0000 0.90730  0.63760  0.22810  Biso   1.000  O
  N319     1.0000 0.92890  0.68750  0.18570  Biso   1.000  N
  C433     1.0000 0.89510  0.66940  0.20910  Biso   1.000  C
  H777     1.0000 0.85180  0.68390  0.21200  Biso   1.000  H
  C434     1.0000 0.89650  0.69930  0.15480  Biso   1.000  C
  H778     1.0000 0.84700  0.69880  0.15730  Biso   1.000  H
  H779     1.0000 0.91090  0.73180  0.14780  Biso   1.000  H
  H780     1.0000 0.91000  0.67520  0.13850  Biso   1.000  H
  C435     1.0000 0.00130  0.69830  0.18680  Biso   1.000  C
  H781     1.0000 0.02720  0.66790  0.18520  Biso   1.000  H
  H782     1.0000 0.01320  0.71960  0.16870  Biso   1.000  H
  H783     1.0000 0.01220  0.71470  0.20710  Biso   1.000  H
  Cl58     1.0000 0.86450  0.56140  0.26440  Biso   1.000  Cl
  Cu59     1.0000 0.81702  0.21137  0.84190  Biso   1.000  Cu
  Cu60     1.0000 0.85708  0.14080  0.77289  Biso   1.000  Cu
  Cl59     1.0000 0.77019  0.13199  0.80883  Biso   1.000  Cl
  N320     1.0000 0.84990  0.24158  0.74683  Biso   1.000  N
  N321     1.0000 0.84190  0.21257  0.77231  Biso   1.000  N
  N322     1.0000 0.83200  0.23935  0.79824  Biso   1.000  N
  N323     1.0000 0.83470  0.28643  0.79057  Biso   1.000  N
  N324     1.0000 0.69040  0.40907  0.68444  Biso   1.000  N
  N325     1.0000 0.65950  0.42851  0.65876  Biso   1.000  N
  N326     1.0000 0.70190  0.43096  0.63483  Biso   1.000  N
  N327     1.0000 0.76240  0.41356  0.64345  Biso   1.000  N
  C436     1.0000 0.84590  0.28660  0.75893  Biso   1.000  C
  C437     1.0000 0.85880  0.33080  0.73832  Biso   1.000  C
  C438     1.0000 0.79730  0.34150  0.71674  Biso   1.000  C
  H784     1.0000 0.75700  0.34830  0.73030  Biso   1.000  H
  H785     1.0000 0.78720  0.31280  0.70320  Biso   1.000  H
  C439     1.0000 0.81230  0.38550  0.69531  Biso   1.000  C
  H786     1.0000 0.86580  0.34660  0.66010  Biso   1.000  H
  H787     1.0000 0.91440  0.36750  0.77400  Biso   1.000  H
  C440     1.0000 0.92130  0.31980  0.71687  Biso   1.000  C
  H788     1.0000 0.96090  0.31210  0.73060  Biso   1.000  H
  H789     1.0000 0.91170  0.29110  0.70310  Biso   1.000  H
  C441     1.0000 0.75420  0.40030  0.67433  Biso   1.000  C
  O88      1.0000 0.87810  0.07260  0.77230  Biso   1.000  O
  N328     1.0000 0.86350  0.99360  0.75820  Biso   1.000  N
  C442     1.0000 0.84370  0.03810  0.76330  Biso   1.000  C
  H790     1.0000 0.79690  0.04460  0.75970  Biso   1.000  H
  C443     1.0000 0.93400  0.97900  0.75760  Biso   1.000  C
  H791     1.0000 0.96050  0.00090  0.77140  Biso   1.000  H
  H792     1.0000 0.93810  0.94560  0.76560  Biso   1.000  H
  H793     1.0000 0.95120  0.98080  0.73550  Biso   1.000  H
  C444     1.0000 0.81270  0.95520  0.75260  Biso   1.000  C
  H794     1.0000 0.82130  0.93960  0.73180  Biso   1.000  H
  H795     1.0000 0.81560  0.93090  0.76980  Biso   1.000  H
  H796     1.0000 0.76720  0.96970  0.75250  Biso   1.000  H
  O89      1.0000 0.92320  0.15610  0.73660  Biso   1.000  O
  N329     1.0000 0.98470  0.15580  0.69070  Biso   1.000  N
  C445     1.0000 0.95010  0.13430  0.71390  Biso   1.000  C
  H797     1.0000 0.94560  0.09990  0.71310  Biso   1.000  H
  C446     1.0000 0.01390  0.12760  0.66410  Biso   1.000  C
  H798     1.0000 0.98040  0.10390  0.65640  Biso   1.000  H
  H799     1.0000 0.02610  0.14970  0.64640  Biso   1.000  H
  H800     1.0000 0.05450  0.11050  0.67160  Biso   1.000  H
  C447     1.0000 0.99430  0.20900  0.69160  Biso   1.000  C
  H801     1.0000 0.03100  0.21700  0.70660  Biso   1.000  H
  H802     1.0000 0.00620  0.22060  0.67000  Biso   1.000  H
  H803     1.0000 0.95220  0.22460  0.69870  Biso   1.000  H
  O90      1.0000 0.90730  0.13760  0.72810  Biso   1.000  O
  N330     1.0000 0.92890  0.18750  0.68570  Biso   1.000  N
  C448     1.0000 0.89510  0.16940  0.70910  Biso   1.000  C
  H804     1.0000 0.85180  0.18390  0.71200  Biso   1.000  H
  C449     1.0000 0.89650  0.19930  0.65480  Biso   1.000  C
  H805     1.0000 0.84700  0.19880  0.65730  Biso   1.000  H
  H806     1.0000 0.91090  0.23180  0.64780  Biso   1.000  H
  H807     1.0000 0.91000  0.17520  0.63850  Biso   1.000  H
  C450     1.0000 0.00130  0.19830  0.68680  Biso   1.000  C
  H808     1.0000 0.02720  0.16790  0.68520  Biso   1.000  H
  H809     1.0000 0.01320  0.21960  0.66870  Biso   1.000  H
  H810     1.0000 0.01220  0.21470  0.70710  Biso   1.000  H
  Cl60     1.0000 0.86450  0.06140  0.76440  Biso   1.000  Cl
  Cu61     1.0000 0.31702  0.71137  0.84190  Biso   1.000  Cu
  Cu62     1.0000 0.35708  0.64080  0.77289  Biso   1.000  Cu
  Cl61     1.0000 0.27019  0.63199  0.80883  Biso   1.000  Cl
  N331     1.0000 0.34990  0.74158  0.74683  Biso   1.000  N
  N332     1.0000 0.34190  0.71257  0.77231  Biso   1.000  N
  N333     1.0000 0.33200  0.73935  0.79824  Biso   1.000  N
  N334     1.0000 0.33470  0.78643  0.79057  Biso   1.000  N
  N335     1.0000 0.19040  0.90907  0.68444  Biso   1.000  N
  N336     1.0000 0.15950  0.92851  0.65876  Biso   1.000  N
  N337     1.0000 0.20190  0.93096  0.63483  Biso   1.000  N
  N338     1.0000 0.26240  0.91356  0.64345  Biso   1.000  N
  C451     1.0000 0.34590  0.78660  0.75893  Biso   1.000  C
  C452     1.0000 0.35880  0.83080  0.73832  Biso   1.000  C
  C453     1.0000 0.29730  0.84150  0.71674  Biso   1.000  C
  H811     1.0000 0.25700  0.84830  0.73030  Biso   1.000  H
  H812     1.0000 0.28720  0.81280  0.70320  Biso   1.000  H
  C454     1.0000 0.31230  0.88550  0.69531  Biso   1.000  C
  H813     1.0000 0.36580  0.84660  0.66010  Biso   1.000  H
  H814     1.0000 0.41440  0.86750  0.77400  Biso   1.000  H
  C455     1.0000 0.42130  0.81980  0.71687  Biso   1.000  C
  H815     1.0000 0.46090  0.81210  0.73060  Biso   1.000  H
  H816     1.0000 0.41170  0.79110  0.70310  Biso   1.000  H
  C456     1.0000 0.25420  0.90030  0.67433  Biso   1.000  C
  O91      1.0000 0.37810  0.57260  0.77230  Biso   1.000  O
  N339     1.0000 0.36350  0.49360  0.75820  Biso   1.000  N
  C457     1.0000 0.34370  0.53810  0.76330  Biso   1.000  C
  H817     1.0000 0.29690  0.54460  0.75970  Biso   1.000  H
  C458     1.0000 0.43400  0.47900  0.75760  Biso   1.000  C
  H818     1.0000 0.46050  0.50090  0.77140  Biso   1.000  H
  H819     1.0000 0.43810  0.44560  0.76560  Biso   1.000  H
  H820     1.0000 0.45120  0.48080  0.73550  Biso   1.000  H
  C459     1.0000 0.31270  0.45520  0.75260  Biso   1.000  C
  H821     1.0000 0.32130  0.43960  0.73180  Biso   1.000  H
  H822     1.0000 0.31560  0.43090  0.76980  Biso   1.000  H
  H823     1.0000 0.26720  0.46970  0.75250  Biso   1.000  H
  O92      1.0000 0.42320  0.65610  0.73660  Biso   1.000  O
  N340     1.0000 0.48470  0.65580  0.69070  Biso   1.000  N
  C460     1.0000 0.45010  0.63430  0.71390  Biso   1.000  C
  H824     1.0000 0.44560  0.59990  0.71310  Biso   1.000  H
  C461     1.0000 0.51390  0.62760  0.66410  Biso   1.000  C
  H825     1.0000 0.48040  0.60390  0.65640  Biso   1.000  H
  H826     1.0000 0.52610  0.64970  0.64640  Biso   1.000  H
  H827     1.0000 0.55450  0.61050  0.67160  Biso   1.000  H
  C462     1.0000 0.49430  0.70900  0.69160  Biso   1.000  C
  H828     1.0000 0.53100  0.71700  0.70660  Biso   1.000  H
  H829     1.0000 0.50620  0.72060  0.67000  Biso   1.000  H
  H830     1.0000 0.45220  0.72460  0.69870  Biso   1.000  H
  O93      1.0000 0.40730  0.63760  0.72810  Biso   1.000  O
  N341     1.0000 0.42890  0.68750  0.68570  Biso   1.000  N
  C463     1.0000 0.39510  0.66940  0.70910  Biso   1.000  C
  H831     1.0000 0.35180  0.68390  0.71200  Biso   1.000  H
  C464     1.0000 0.39650  0.69930  0.65480  Biso   1.000  C
  H832     1.0000 0.34700  0.69880  0.65730  Biso   1.000  H
  H833     1.0000 0.41090  0.73180  0.64780  Biso   1.000  H
  H834     1.0000 0.41000  0.67520  0.63850  Biso   1.000  H
  C465     1.0000 0.50130  0.69830  0.68680  Biso   1.000  C
  H835     1.0000 0.52720  0.66790  0.68520  Biso   1.000  H
  H836     1.0000 0.51320  0.71960  0.66870  Biso   1.000  H
  H837     1.0000 0.51220  0.71470  0.70710  Biso   1.000  H
  Cl62     1.0000 0.36450  0.56140  0.76440  Biso   1.000  Cl
  Cu63     1.0000 0.31702  0.21137  0.34190  Biso   1.000  Cu
  Cu64     1.0000 0.35708  0.14080  0.27289  Biso   1.000  Cu
  Cl63     1.0000 0.27019  0.13199  0.30883  Biso   1.000  Cl
  N342     1.0000 0.34990  0.24158  0.24683  Biso   1.000  N
  N343     1.0000 0.34190  0.21257  0.27231  Biso   1.000  N
  N344     1.0000 0.33200  0.23935  0.29824  Biso   1.000  N
  N345     1.0000 0.33470  0.28643  0.29057  Biso   1.000  N
  N346     1.0000 0.19040  0.40907  0.18444  Biso   1.000  N
  N347     1.0000 0.15950  0.42851  0.15876  Biso   1.000  N
  N348     1.0000 0.20190  0.43096  0.13483  Biso   1.000  N
  N349     1.0000 0.26240  0.41356  0.14345  Biso   1.000  N
  C466     1.0000 0.34590  0.28660  0.25893  Biso   1.000  C
  C467     1.0000 0.35880  0.33080  0.23832  Biso   1.000  C
  C468     1.0000 0.29730  0.34150  0.21674  Biso   1.000  C
  H838     1.0000 0.25700  0.34830  0.23030  Biso   1.000  H
  H839     1.0000 0.28720  0.31280  0.20320  Biso   1.000  H
  C469     1.0000 0.31230  0.38550  0.19531  Biso   1.000  C
  H840     1.0000 0.36580  0.34660  0.16010  Biso   1.000  H
  H841     1.0000 0.41440  0.36750  0.27400  Biso   1.000  H
  C470     1.0000 0.42130  0.31980  0.21687  Biso   1.000  C
  H842     1.0000 0.46090  0.31210  0.23060  Biso   1.000  H
  H843     1.0000 0.41170  0.29110  0.20310  Biso   1.000  H
  C471     1.0000 0.25420  0.40030  0.17433  Biso   1.000  C
  O94      1.0000 0.37810  0.07260  0.27230  Biso   1.000  O
  N350     1.0000 0.36350  0.99360  0.25820  Biso   1.000  N
  C472     1.0000 0.34370  0.03810  0.26330  Biso   1.000  C
  H844     1.0000 0.29690  0.04460  0.25970  Biso   1.000  H
  C473     1.0000 0.43400  0.97900  0.25760  Biso   1.000  C
  H845     1.0000 0.46050  0.00090  0.27140  Biso   1.000  H
  H846     1.0000 0.43810  0.94560  0.26560  Biso   1.000  H
  H847     1.0000 0.45120  0.98080  0.23550  Biso   1.000  H
  C474     1.0000 0.31270  0.95520  0.25260  Biso   1.000  C
  H848     1.0000 0.32130  0.93960  0.23180  Biso   1.000  H
  H849     1.0000 0.31560  0.93090  0.26980  Biso   1.000  H
  H850     1.0000 0.26720  0.96970  0.25250  Biso   1.000  H
  O95      1.0000 0.42320  0.15610  0.23660  Biso   1.000  O
  N351     1.0000 0.48470  0.15580  0.19070  Biso   1.000  N
  C475     1.0000 0.45010  0.13430  0.21390  Biso   1.000  C
  H851     1.0000 0.44560  0.09990  0.21310  Biso   1.000  H
  C476     1.0000 0.51390  0.12760  0.16410  Biso   1.000  C
  H852     1.0000 0.48040  0.10390  0.15640  Biso   1.000  H
  H853     1.0000 0.52610  0.14970  0.14640  Biso   1.000  H
  H854     1.0000 0.55450  0.11050  0.17160  Biso   1.000  H
  C477     1.0000 0.49430  0.20900  0.19160  Biso   1.000  C
  H855     1.0000 0.53100  0.21700  0.20660  Biso   1.000  H
  H856     1.0000 0.50620  0.22060  0.17000  Biso   1.000  H
  H857     1.0000 0.45220  0.22460  0.19870  Biso   1.000  H
  O96      1.0000 0.40730  0.13760  0.22810  Biso   1.000  O
  N352     1.0000 0.42890  0.18750  0.18570  Biso   1.000  N
  C478     1.0000 0.39510  0.16940  0.20910  Biso   1.000  C
  H858     1.0000 0.35180  0.18390  0.21200  Biso   1.000  H
  C479     1.0000 0.39650  0.19930  0.15480  Biso   1.000  C
  H859     1.0000 0.34700  0.19880  0.15730  Biso   1.000  H
  H860     1.0000 0.41090  0.23180  0.14780  Biso   1.000  H
  H861     1.0000 0.41000  0.17520  0.13850  Biso   1.000  H
  C480     1.0000 0.50130  0.19830  0.18680  Biso   1.000  C
  H862     1.0000 0.52720  0.16790  0.18520  Biso   1.000  H
  H863     1.0000 0.51320  0.21960  0.16870  Biso   1.000  H
  H864     1.0000 0.51220  0.21470  0.20710  Biso   1.000  H
  Cl64     1.0000 0.36450  0.06140  0.26440  Biso   1.000  Cl
  Cl65     1.0000 0.12500  0.53016  0.12500  Biso   1.000  Cl
  Cl66     1.0000 0.12500  0.03016  0.62500  Biso   1.000  Cl
  Cl67     1.0000 0.62500  0.21984  0.12500  Biso   1.000  Cl
  Cl68     1.0000 0.62500  0.71984  0.62500  Biso   1.000  Cl
  Cl69     1.0000 0.62500  0.53016  0.62500  Biso   1.000  Cl
  Cl70     1.0000 0.62500  0.03016  0.12500  Biso   1.000  Cl
  Cl71     1.0000 0.12500  0.21984  0.62500  Biso   1.000  Cl
  Cl72     1.0000 0.12500  0.71984  0.12500  Biso   1.000  Cl
  Cl73     1.0000 0.87500  0.46984  0.87500  Biso   1.000  Cl
  Cl74     1.0000 0.87500  0.96984  0.37500  Biso   1.000  Cl
  Cl75     1.0000 0.37500  0.78016  0.87500  Biso   1.000  Cl
  Cl76     1.0000 0.37500  0.28016  0.37500  Biso   1.000  Cl
  Cl77     1.0000 0.37500  0.46984  0.37500  Biso   1.000  Cl
  Cl78     1.0000 0.37500  0.96984  0.87500  Biso   1.000  Cl
  Cl79     1.0000 0.87500  0.78016  0.37500  Biso   1.000  Cl
  Cl80     1.0000 0.87500  0.28016  0.87500  Biso   1.000  Cl
  C481     1.0000 0.12500  0.62500  0.92407  Biso   1.000  C
  C482     1.0000 0.12500  0.62500  0.01000  Biso   1.000  C
  C483     1.0000 0.12500  0.12500  0.42407  Biso   1.000  C
  C484     1.0000 0.12500  0.12500  0.51000  Biso   1.000  C
  C485     1.0000 0.62500  0.62500  0.42407  Biso   1.000  C
  C486     1.0000 0.62500  0.62500  0.51000  Biso   1.000  C
  C487     1.0000 0.62500  0.12500  0.92407  Biso   1.000  C
  C488     1.0000 0.62500  0.12500  0.01000  Biso   1.000  C
  C489     1.0000 0.62500  0.62500  0.82593  Biso   1.000  C
  C490     1.0000 0.62500  0.62500  0.74000  Biso   1.000  C
  C491     1.0000 0.62500  0.12500  0.32593  Biso   1.000  C
  C492     1.0000 0.62500  0.12500  0.24000  Biso   1.000  C
  C493     1.0000 0.12500  0.12500  0.82593  Biso   1.000  C
  C494     1.0000 0.12500  0.12500  0.74000  Biso   1.000  C
  C495     1.0000 0.12500  0.62500  0.32593  Biso   1.000  C
  C496     1.0000 0.12500  0.62500  0.24000  Biso   1.000  C
  C497     1.0000 0.87500  0.37500  0.07593  Biso   1.000  C
  C498     1.0000 0.87500  0.37500  0.99000  Biso   1.000  C
  C499     1.0000 0.87500  0.87500  0.57593  Biso   1.000  C
  C500     1.0000 0.87500  0.87500  0.49000  Biso   1.000  C
  C501     1.0000 0.37500  0.87500  0.07593  Biso   1.000  C
  C502     1.0000 0.37500  0.87500  0.99000  Biso   1.000  C
  C503     1.0000 0.37500  0.37500  0.57593  Biso   1.000  C
  C504     1.0000 0.37500  0.37500  0.49000  Biso   1.000  C
  C505     1.0000 0.37500  0.37500  0.17407  Biso   1.000  C
  C506     1.0000 0.37500  0.37500  0.26000  Biso   1.000  C
  C507     1.0000 0.37500  0.87500  0.67407  Biso   1.000  C
  C508     1.0000 0.37500  0.87500  0.76000  Biso   1.000  C
  C509     1.0000 0.87500  0.87500  0.17407  Biso   1.000  C
  C510     1.0000 0.87500  0.87500  0.26000  Biso   1.000  C
  C511     1.0000 0.87500  0.37500  0.67407  Biso   1.000  C
  C512     1.0000 0.87500  0.37500  0.76000  Biso   1.000  C
