data_image0
_cell_length_a       20.8726
_cell_length_b       27.5137
_cell_length_c       43.553
_cell_angle_alpha    90
_cell_angle_beta     90
_cell_angle_gamma    90

_symmetry_space_group_name_H-M    "P 1"
_symmetry_int_tables_number       1

loop_
  _symmetry_equiv_pos_as_xyz
  'x, y, z'

loop_
  _atom_site_label
  _atom_site_occupancy
  _atom_site_fract_x
  _atom_site_fract_y
  _atom_site_fract_z
  _atom_site_thermal_displace_type
  _atom_site_B_iso_or_equiv
  _atom_site_type_symbol
  Cd1      1.0000 0.68392  0.29306  0.15865  Biso   1.000  Cd
  Cd2      1.0000 0.62726  0.36947  0.22585  Biso   1.000  Cd
  Cl1      1.0000 0.72369  0.37235  0.18875  Biso   1.000  Cl
  N1       1.0000 0.63320  0.25905  0.25331  Biso   1.000  N
  N2       1.0000 0.64540  0.28718  0.22897  Biso   1.000  N
  N3       1.0000 0.66320  0.25976  0.20586  Biso   1.000  N
  N4       1.0000 0.66360  0.21344  0.21400  Biso   1.000  N
  N5       1.0000 0.80220  0.10193  0.31489  Biso   1.000  N
  N6       1.0000 0.83360  0.08459  0.33970  Biso   1.000  N
  N7       1.0000 0.79310  0.08010  0.36218  Biso   1.000  N
  N8       1.0000 0.73410  0.09376  0.35362  Biso   1.000  N
  C1       1.0000 0.64490  0.21394  0.24342  Biso   1.000  C
  C2       1.0000 0.63540  0.16998  0.26314  Biso   1.000  C
  C3       1.0000 0.69480  0.16247  0.28355  Biso   1.000  C
  H1       1.0000 0.70180  0.19160  0.29650  Biso   1.000  H
  H2       1.0000 0.73320  0.15770  0.27050  Biso   1.000  H
  C4       1.0000 0.68460  0.11747  0.30408  Biso   1.000  C
  H3       1.0000 0.63130  0.15370  0.33740  Biso   1.000  H
  H4       1.0000 0.58710  0.12990  0.22960  Biso   1.000  H
  C5       1.0000 0.57640  0.17773  0.28360  Biso   1.000  C
  H5       1.0000 0.53820  0.18340  0.27060  Biso   1.000  H
  H6       1.0000 0.58290  0.20670  0.29670  Biso   1.000  H
  C6       1.0000 0.74100  0.10647  0.32402  Biso   1.000  C
  O1       1.0000 0.59940  0.44830  0.22890  Biso   1.000  O
  N9       1.0000 0.62070  0.52090  0.25110  Biso   1.000  N
  C7       1.0000 0.63750  0.47920  0.23910  Biso   1.000  C
  H7       1.0000 0.68200  0.47190  0.23810  Biso   1.000  H
  C8       1.0000 0.55340  0.53430  0.25390  Biso   1.000  C
  H8       1.0000 0.52760  0.51390  0.24020  Biso   1.000  H
  H9       1.0000 0.54800  0.56850  0.24820  Biso   1.000  H
  H10      1.0000 0.53920  0.52950  0.27510  Biso   1.000  H
  C9       1.0000 0.66590  0.55520  0.26530  Biso   1.000  C
  H11      1.0000 0.64870  0.56640  0.28500  Biso   1.000  H
  H12      1.0000 0.67210  0.58320  0.25170  Biso   1.000  H
  H13      1.0000 0.70710  0.53900  0.26870  Biso   1.000  H
  O2       1.0000 0.70340  0.37800  0.26730  Biso   1.000  O
  C10      1.0000 0.69720  0.35170  0.28960  Biso   1.000  C
  H14      1.0000 0.66830  0.32620  0.28460  Biso   1.000  H
  N10      1.0000 0.74340  0.34080  0.30900  Biso   1.000  N
  C11      1.0000 0.73890  0.29610  0.32730  Biso   1.000  C
  H15      1.0000 0.69920  0.27890  0.32220  Biso   1.000  H
  H16      1.0000 0.73880  0.30440  0.34920  Biso   1.000  H
  H17      1.0000 0.77570  0.27510  0.32280  Biso   1.000  H
  C12      1.0000 0.79860  0.37370  0.31180  Biso   1.000  C
  H18      1.0000 0.79330  0.40120  0.29780  Biso   1.000  H
  H19      1.0000 0.83800  0.35610  0.30670  Biso   1.000  H
  H20      1.0000 0.80130  0.38580  0.33300  Biso   1.000  H
  H21      1.0000 0.80500  0.36870  0.32270  Biso   1.000  H
  Cl2      1.0000 0.61730  0.45870  0.22510  Biso   1.000  Cl
  Cl3      1.0000 0.69360  0.39490  0.27340  Biso   1.000  Cl
  N11      1.0000 0.71400  0.34660  0.31510  Biso   1.000  N
  C13      1.0000 0.69080  0.31180  0.33840  Biso   1.000  C
  C14      1.0000 0.76350  0.37210  0.33290  Biso   1.000  C
  H22      1.0000 0.69720  0.27850  0.33100  Biso   1.000  H
  H23      1.0000 0.71480  0.31640  0.35750  Biso   1.000  H
  H24      1.0000 0.64520  0.31730  0.34220  Biso   1.000  H
  H25      1.0000 0.76600  0.35800  0.35360  Biso   1.000  H
  H26      1.0000 0.75240  0.40660  0.33450  Biso   1.000  H
  Cd3      1.0000 0.68392  0.79306  0.65865  Biso   1.000  Cd
  Cd4      1.0000 0.62726  0.86947  0.72585  Biso   1.000  Cd
  Cl4      1.0000 0.72369  0.87235  0.68875  Biso   1.000  Cl
  N12      1.0000 0.63320  0.75905  0.75331  Biso   1.000  N
  N13      1.0000 0.64540  0.78718  0.72897  Biso   1.000  N
  N14      1.0000 0.66320  0.75976  0.70586  Biso   1.000  N
  N15      1.0000 0.66360  0.71344  0.71400  Biso   1.000  N
  N16      1.0000 0.80220  0.60193  0.81489  Biso   1.000  N
  N17      1.0000 0.83360  0.58459  0.83970  Biso   1.000  N
  N18      1.0000 0.79310  0.58010  0.86218  Biso   1.000  N
  N19      1.0000 0.73410  0.59376  0.85362  Biso   1.000  N
  C15      1.0000 0.64490  0.71394  0.74342  Biso   1.000  C
  C16      1.0000 0.63540  0.66998  0.76314  Biso   1.000  C
  C17      1.0000 0.69480  0.66247  0.78355  Biso   1.000  C
  H27      1.0000 0.70180  0.69160  0.79650  Biso   1.000  H
  H28      1.0000 0.73320  0.65770  0.77050  Biso   1.000  H
  C18      1.0000 0.68460  0.61747  0.80408  Biso   1.000  C
  H29      1.0000 0.63130  0.65370  0.83740  Biso   1.000  H
  H30      1.0000 0.58710  0.62990  0.72960  Biso   1.000  H
  C19      1.0000 0.57640  0.67773  0.78360  Biso   1.000  C
  H31      1.0000 0.53820  0.68340  0.77060  Biso   1.000  H
  H32      1.0000 0.58290  0.70670  0.79670  Biso   1.000  H
  C20      1.0000 0.74100  0.60647  0.82402  Biso   1.000  C
  O3       1.0000 0.59940  0.94830  0.72890  Biso   1.000  O
  N20      1.0000 0.62070  0.02090  0.75110  Biso   1.000  N
  C21      1.0000 0.63750  0.97920  0.73910  Biso   1.000  C
  H33      1.0000 0.68200  0.97190  0.73810  Biso   1.000  H
  C22      1.0000 0.55340  0.03430  0.75390  Biso   1.000  C
  H34      1.0000 0.52760  0.01390  0.74020  Biso   1.000  H
  H35      1.0000 0.54800  0.06850  0.74820  Biso   1.000  H
  H36      1.0000 0.53920  0.02950  0.77510  Biso   1.000  H
  C23      1.0000 0.66590  0.05520  0.76530  Biso   1.000  C
  H37      1.0000 0.64870  0.06640  0.78500  Biso   1.000  H
  H38      1.0000 0.67210  0.08320  0.75170  Biso   1.000  H
  H39      1.0000 0.70710  0.03900  0.76870  Biso   1.000  H
  O4       1.0000 0.70340  0.87800  0.76730  Biso   1.000  O
  C24      1.0000 0.69720  0.85170  0.78960  Biso   1.000  C
  H40      1.0000 0.66830  0.82620  0.78460  Biso   1.000  H
  N21      1.0000 0.74340  0.84080  0.80900  Biso   1.000  N
  C25      1.0000 0.73890  0.79610  0.82730  Biso   1.000  C
  H41      1.0000 0.69920  0.77890  0.82220  Biso   1.000  H
  H42      1.0000 0.73880  0.80440  0.84920  Biso   1.000  H
  H43      1.0000 0.77570  0.77510  0.82280  Biso   1.000  H
  C26      1.0000 0.79860  0.87370  0.81180  Biso   1.000  C
  H44      1.0000 0.79330  0.90120  0.79780  Biso   1.000  H
  H45      1.0000 0.83800  0.85610  0.80670  Biso   1.000  H
  H46      1.0000 0.80130  0.88580  0.83300  Biso   1.000  H
  H47      1.0000 0.80500  0.86870  0.82270  Biso   1.000  H
  Cl5      1.0000 0.61730  0.95870  0.72510  Biso   1.000  Cl
  Cl6      1.0000 0.69360  0.89490  0.77340  Biso   1.000  Cl
  N22      1.0000 0.71400  0.84660  0.81510  Biso   1.000  N
  C27      1.0000 0.69080  0.81180  0.83840  Biso   1.000  C
  C28      1.0000 0.76350  0.87210  0.83290  Biso   1.000  C
  H48      1.0000 0.69720  0.77850  0.83100  Biso   1.000  H
  H49      1.0000 0.71480  0.81640  0.85750  Biso   1.000  H
  H50      1.0000 0.64520  0.81730  0.84220  Biso   1.000  H
  H51      1.0000 0.76600  0.85800  0.85360  Biso   1.000  H
  H52      1.0000 0.75240  0.90660  0.83450  Biso   1.000  H
  Cd5      1.0000 0.18392  0.29306  0.65865  Biso   1.000  Cd
  Cd6      1.0000 0.12726  0.36947  0.72585  Biso   1.000  Cd
  Cl7      1.0000 0.22369  0.37235  0.68875  Biso   1.000  Cl
  N23      1.0000 0.13320  0.25905  0.75331  Biso   1.000  N
  N24      1.0000 0.14540  0.28718  0.72897  Biso   1.000  N
  N25      1.0000 0.16320  0.25976  0.70586  Biso   1.000  N
  N26      1.0000 0.16360  0.21344  0.71400  Biso   1.000  N
  N27      1.0000 0.30220  0.10193  0.81489  Biso   1.000  N
  N28      1.0000 0.33360  0.08459  0.83970  Biso   1.000  N
  N29      1.0000 0.29310  0.08010  0.86218  Biso   1.000  N
  N30      1.0000 0.23410  0.09376  0.85362  Biso   1.000  N
  C29      1.0000 0.14490  0.21394  0.74342  Biso   1.000  C
  C30      1.0000 0.13540  0.16998  0.76314  Biso   1.000  C
  C31      1.0000 0.19480  0.16247  0.78355  Biso   1.000  C
  H53      1.0000 0.20180  0.19160  0.79650  Biso   1.000  H
  H54      1.0000 0.23320  0.15770  0.77050  Biso   1.000  H
  C32      1.0000 0.18460  0.11747  0.80408  Biso   1.000  C
  H55      1.0000 0.13130  0.15370  0.83740  Biso   1.000  H
  H56      1.0000 0.08710  0.12990  0.72960  Biso   1.000  H
  C33      1.0000 0.07640  0.17773  0.78360  Biso   1.000  C
  H57      1.0000 0.03820  0.18340  0.77060  Biso   1.000  H
  H58      1.0000 0.08290  0.20670  0.79670  Biso   1.000  H
  C34      1.0000 0.24100  0.10647  0.82402  Biso   1.000  C
  O5       1.0000 0.09940  0.44830  0.72890  Biso   1.000  O
  N31      1.0000 0.12070  0.52090  0.75110  Biso   1.000  N
  C35      1.0000 0.13750  0.47920  0.73910  Biso   1.000  C
  H59      1.0000 0.18200  0.47190  0.73810  Biso   1.000  H
  C36      1.0000 0.05340  0.53430  0.75390  Biso   1.000  C
  H60      1.0000 0.02760  0.51390  0.74020  Biso   1.000  H
  H61      1.0000 0.04800  0.56850  0.74820  Biso   1.000  H
  H62      1.0000 0.03920  0.52950  0.77510  Biso   1.000  H
  C37      1.0000 0.16590  0.55520  0.76530  Biso   1.000  C
  H63      1.0000 0.14870  0.56640  0.78500  Biso   1.000  H
  H64      1.0000 0.17210  0.58320  0.75170  Biso   1.000  H
  H65      1.0000 0.20710  0.53900  0.76870  Biso   1.000  H
  O6       1.0000 0.20340  0.37800  0.76730  Biso   1.000  O
  C38      1.0000 0.19720  0.35170  0.78960  Biso   1.000  C
  H66      1.0000 0.16830  0.32620  0.78460  Biso   1.000  H
  N32      1.0000 0.24340  0.34080  0.80900  Biso   1.000  N
  C39      1.0000 0.23890  0.29610  0.82730  Biso   1.000  C
  H67      1.0000 0.19920  0.27890  0.82220  Biso   1.000  H
  H68      1.0000 0.23880  0.30440  0.84920  Biso   1.000  H
  H69      1.0000 0.27570  0.27510  0.82280  Biso   1.000  H
  C40      1.0000 0.29860  0.37370  0.81180  Biso   1.000  C
  H70      1.0000 0.29330  0.40120  0.79780  Biso   1.000  H
  H71      1.0000 0.33800  0.35610  0.80670  Biso   1.000  H
  H72      1.0000 0.30130  0.38580  0.83300  Biso   1.000  H
  H73      1.0000 0.30500  0.36870  0.82270  Biso   1.000  H
  Cl8      1.0000 0.11730  0.45870  0.72510  Biso   1.000  Cl
  Cl9      1.0000 0.19360  0.39490  0.77340  Biso   1.000  Cl
  N33      1.0000 0.21400  0.34660  0.81510  Biso   1.000  N
  C41      1.0000 0.19080  0.31180  0.83840  Biso   1.000  C
  C42      1.0000 0.26350  0.37210  0.83290  Biso   1.000  C
  H74      1.0000 0.19720  0.27850  0.83100  Biso   1.000  H
  H75      1.0000 0.21480  0.31640  0.85750  Biso   1.000  H
  H76      1.0000 0.14520  0.31730  0.84220  Biso   1.000  H
  H77      1.0000 0.26600  0.35800  0.85360  Biso   1.000  H
  H78      1.0000 0.25240  0.40660  0.83450  Biso   1.000  H
  Cd7      1.0000 0.18392  0.79306  0.15865  Biso   1.000  Cd
  Cd8      1.0000 0.12726  0.86947  0.22585  Biso   1.000  Cd
  Cl10     1.0000 0.22369  0.87235  0.18875  Biso   1.000  Cl
  N34      1.0000 0.13320  0.75905  0.25331  Biso   1.000  N
  N35      1.0000 0.14540  0.78718  0.22897  Biso   1.000  N
  N36      1.0000 0.16320  0.75976  0.20586  Biso   1.000  N
  N37      1.0000 0.16360  0.71344  0.21400  Biso   1.000  N
  N38      1.0000 0.30220  0.60193  0.31489  Biso   1.000  N
  N39      1.0000 0.33360  0.58459  0.33970  Biso   1.000  N
  N40      1.0000 0.29310  0.58010  0.36218  Biso   1.000  N
  N41      1.0000 0.23410  0.59376  0.35362  Biso   1.000  N
  C43      1.0000 0.14490  0.71394  0.24342  Biso   1.000  C
  C44      1.0000 0.13540  0.66998  0.26314  Biso   1.000  C
  C45      1.0000 0.19480  0.66247  0.28355  Biso   1.000  C
  H79      1.0000 0.20180  0.69160  0.29650  Biso   1.000  H
  H80      1.0000 0.23320  0.65770  0.27050  Biso   1.000  H
  C46      1.0000 0.18460  0.61747  0.30408  Biso   1.000  C
  H81      1.0000 0.13130  0.65370  0.33740  Biso   1.000  H
  H82      1.0000 0.08710  0.62990  0.22960  Biso   1.000  H
  C47      1.0000 0.07640  0.67773  0.28360  Biso   1.000  C
  H83      1.0000 0.03820  0.68340  0.27060  Biso   1.000  H
  H84      1.0000 0.08290  0.70670  0.29670  Biso   1.000  H
  C48      1.0000 0.24100  0.60647  0.32402  Biso   1.000  C
  O7       1.0000 0.09940  0.94830  0.22890  Biso   1.000  O
  N42      1.0000 0.12070  0.02090  0.25110  Biso   1.000  N
  C49      1.0000 0.13750  0.97920  0.23910  Biso   1.000  C
  H85      1.0000 0.18200  0.97190  0.23810  Biso   1.000  H
  C50      1.0000 0.05340  0.03430  0.25390  Biso   1.000  C
  H86      1.0000 0.02760  0.01390  0.24020  Biso   1.000  H
  H87      1.0000 0.04800  0.06850  0.24820  Biso   1.000  H
  H88      1.0000 0.03920  0.02950  0.27510  Biso   1.000  H
  C51      1.0000 0.16590  0.05520  0.26530  Biso   1.000  C
  H89      1.0000 0.14870  0.06640  0.28500  Biso   1.000  H
  H90      1.0000 0.17210  0.08320  0.25170  Biso   1.000  H
  H91      1.0000 0.20710  0.03900  0.26870  Biso   1.000  H
  O8       1.0000 0.20340  0.87800  0.26730  Biso   1.000  O
  C52      1.0000 0.19720  0.85170  0.28960  Biso   1.000  C
  H92      1.0000 0.16830  0.82620  0.28460  Biso   1.000  H
  N43      1.0000 0.24340  0.84080  0.30900  Biso   1.000  N
  C53      1.0000 0.23890  0.79610  0.32730  Biso   1.000  C
  H93      1.0000 0.19920  0.77890  0.32220  Biso   1.000  H
  H94      1.0000 0.23880  0.80440  0.34920  Biso   1.000  H
  H95      1.0000 0.27570  0.77510  0.32280  Biso   1.000  H
  C54      1.0000 0.29860  0.87370  0.31180  Biso   1.000  C
  H96      1.0000 0.29330  0.90120  0.29780  Biso   1.000  H
  H97      1.0000 0.33800  0.85610  0.30670  Biso   1.000  H
  H98      1.0000 0.30130  0.88580  0.33300  Biso   1.000  H
  H99      1.0000 0.30500  0.86870  0.32270  Biso   1.000  H
  Cl11     1.0000 0.11730  0.95870  0.22510  Biso   1.000  Cl
  Cl12     1.0000 0.19360  0.89490  0.27340  Biso   1.000  Cl
  N44      1.0000 0.21400  0.84660  0.31510  Biso   1.000  N
  C55      1.0000 0.19080  0.81180  0.33840  Biso   1.000  C
  C56      1.0000 0.26350  0.87210  0.33290  Biso   1.000  C
  H100     1.0000 0.19720  0.77850  0.33100  Biso   1.000  H
  H101     1.0000 0.21480  0.81640  0.35750  Biso   1.000  H
  H102     1.0000 0.14520  0.81730  0.34220  Biso   1.000  H
  H103     1.0000 0.26600  0.85800  0.35360  Biso   1.000  H
  H104     1.0000 0.25240  0.90660  0.33450  Biso   1.000  H
  Cd9      1.0000 0.06608  0.45694  0.15865  Biso   1.000  Cd
  Cd10     1.0000 0.12274  0.38053  0.22585  Biso   1.000  Cd
  Cl13     1.0000 0.02631  0.37765  0.18875  Biso   1.000  Cl
  N45      1.0000 0.11680  0.49095  0.25331  Biso   1.000  N
  N46      1.0000 0.10460  0.46282  0.22897  Biso   1.000  N
  N47      1.0000 0.08680  0.49024  0.20586  Biso   1.000  N
  N48      1.0000 0.08640  0.53656  0.21400  Biso   1.000  N
  N49      1.0000 0.94780  0.64807  0.31489  Biso   1.000  N
  N50      1.0000 0.91640  0.66541  0.33970  Biso   1.000  N
  N51      1.0000 0.95690  0.66990  0.36218  Biso   1.000  N
  N52      1.0000 0.01590  0.65624  0.35362  Biso   1.000  N
  C57      1.0000 0.10510  0.53606  0.24342  Biso   1.000  C
  C58      1.0000 0.11460  0.58002  0.26314  Biso   1.000  C
  C59      1.0000 0.05520  0.58753  0.28355  Biso   1.000  C
  H105     1.0000 0.04820  0.55840  0.29650  Biso   1.000  H
  H106     1.0000 0.01680  0.59230  0.27050  Biso   1.000  H
  C60      1.0000 0.06540  0.63253  0.30408  Biso   1.000  C
  H107     1.0000 0.11870  0.59630  0.33740  Biso   1.000  H
  H108     1.0000 0.16290  0.62010  0.22960  Biso   1.000  H
  C61      1.0000 0.17360  0.57227  0.28360  Biso   1.000  C
  H109     1.0000 0.21180  0.56660  0.27060  Biso   1.000  H
  H110     1.0000 0.16710  0.54330  0.29670  Biso   1.000  H
  C62      1.0000 0.00900  0.64353  0.32402  Biso   1.000  C
  O9       1.0000 0.15060  0.30170  0.22890  Biso   1.000  O
  N53      1.0000 0.12930  0.22910  0.25110  Biso   1.000  N
  C63      1.0000 0.11250  0.27080  0.23910  Biso   1.000  C
  H111     1.0000 0.06800  0.27810  0.23810  Biso   1.000  H
  C64      1.0000 0.19660  0.21570  0.25390  Biso   1.000  C
  H112     1.0000 0.22240  0.23610  0.24020  Biso   1.000  H
  H113     1.0000 0.20200  0.18150  0.24820  Biso   1.000  H
  H114     1.0000 0.21080  0.22050  0.27510  Biso   1.000  H
  C65      1.0000 0.08410  0.19480  0.26530  Biso   1.000  C
  H115     1.0000 0.10130  0.18360  0.28500  Biso   1.000  H
  H116     1.0000 0.07790  0.16680  0.25170  Biso   1.000  H
  H117     1.0000 0.04290  0.21100  0.26870  Biso   1.000  H
  O10      1.0000 0.04660  0.37200  0.26730  Biso   1.000  O
  C66      1.0000 0.05280  0.39830  0.28960  Biso   1.000  C
  H118     1.0000 0.08170  0.42380  0.28460  Biso   1.000  H
  N54      1.0000 0.00660  0.40920  0.30900  Biso   1.000  N
  C67      1.0000 0.01110  0.45390  0.32730  Biso   1.000  C
  H119     1.0000 0.05080  0.47110  0.32220  Biso   1.000  H
  H120     1.0000 0.01120  0.44560  0.34920  Biso   1.000  H
  H121     1.0000 0.97430  0.47490  0.32280  Biso   1.000  H
  C68      1.0000 0.95140  0.37630  0.31180  Biso   1.000  C
  H122     1.0000 0.95670  0.34880  0.29780  Biso   1.000  H
  H123     1.0000 0.91200  0.39390  0.30670  Biso   1.000  H
  H124     1.0000 0.94870  0.36420  0.33300  Biso   1.000  H
  H125     1.0000 0.94500  0.38130  0.32270  Biso   1.000  H
  Cl14     1.0000 0.13270  0.29130  0.22510  Biso   1.000  Cl
  Cl15     1.0000 0.05640  0.35510  0.27340  Biso   1.000  Cl
  N55      1.0000 0.03600  0.40340  0.31510  Biso   1.000  N
  C69      1.0000 0.05920  0.43820  0.33840  Biso   1.000  C
  C70      1.0000 0.98650  0.37790  0.33290  Biso   1.000  C
  H126     1.0000 0.05280  0.47150  0.33100  Biso   1.000  H
  H127     1.0000 0.03520  0.43360  0.35750  Biso   1.000  H
  H128     1.0000 0.10480  0.43270  0.34220  Biso   1.000  H
  H129     1.0000 0.98400  0.39200  0.35360  Biso   1.000  H
  H130     1.0000 0.99760  0.34340  0.33450  Biso   1.000  H
  Cd11     1.0000 0.06608  0.95694  0.65865  Biso   1.000  Cd
  Cd12     1.0000 0.12274  0.88053  0.72585  Biso   1.000  Cd
  Cl16     1.0000 0.02631  0.87765  0.68875  Biso   1.000  Cl
  N56      1.0000 0.11680  0.99095  0.75331  Biso   1.000  N
  N57      1.0000 0.10460  0.96282  0.72897  Biso   1.000  N
  N58      1.0000 0.08680  0.99024  0.70586  Biso   1.000  N
  N59      1.0000 0.08640  0.03656  0.71400  Biso   1.000  N
  N60      1.0000 0.94780  0.14807  0.81489  Biso   1.000  N
  N61      1.0000 0.91640  0.16541  0.83970  Biso   1.000  N
  N62      1.0000 0.95690  0.16990  0.86218  Biso   1.000  N
  N63      1.0000 0.01590  0.15624  0.85362  Biso   1.000  N
  C71      1.0000 0.10510  0.03606  0.74342  Biso   1.000  C
  C72      1.0000 0.11460  0.08002  0.76314  Biso   1.000  C
  C73      1.0000 0.05520  0.08753  0.78355  Biso   1.000  C
  H131     1.0000 0.04820  0.05840  0.79650  Biso   1.000  H
  H132     1.0000 0.01680  0.09230  0.77050  Biso   1.000  H
  C74      1.0000 0.06540  0.13253  0.80408  Biso   1.000  C
  H133     1.0000 0.11870  0.09630  0.83740  Biso   1.000  H
  H134     1.0000 0.16290  0.12010  0.72960  Biso   1.000  H
  C75      1.0000 0.17360  0.07227  0.78360  Biso   1.000  C
  H135     1.0000 0.21180  0.06660  0.77060  Biso   1.000  H
  H136     1.0000 0.16710  0.04330  0.79670  Biso   1.000  H
  C76      1.0000 0.00900  0.14353  0.82402  Biso   1.000  C
  O11      1.0000 0.15060  0.80170  0.72890  Biso   1.000  O
  N64      1.0000 0.12930  0.72910  0.75110  Biso   1.000  N
  C77      1.0000 0.11250  0.77080  0.73910  Biso   1.000  C
  H137     1.0000 0.06800  0.77810  0.73810  Biso   1.000  H
  C78      1.0000 0.19660  0.71570  0.75390  Biso   1.000  C
  H138     1.0000 0.22240  0.73610  0.74020  Biso   1.000  H
  H139     1.0000 0.20200  0.68150  0.74820  Biso   1.000  H
  H140     1.0000 0.21080  0.72050  0.77510  Biso   1.000  H
  C79      1.0000 0.08410  0.69480  0.76530  Biso   1.000  C
  H141     1.0000 0.10130  0.68360  0.78500  Biso   1.000  H
  H142     1.0000 0.07790  0.66680  0.75170  Biso   1.000  H
  H143     1.0000 0.04290  0.71100  0.76870  Biso   1.000  H
  O12      1.0000 0.04660  0.87200  0.76730  Biso   1.000  O
  C80      1.0000 0.05280  0.89830  0.78960  Biso   1.000  C
  H144     1.0000 0.08170  0.92380  0.78460  Biso   1.000  H
  N65      1.0000 0.00660  0.90920  0.80900  Biso   1.000  N
  C81      1.0000 0.01110  0.95390  0.82730  Biso   1.000  C
  H145     1.0000 0.05080  0.97110  0.82220  Biso   1.000  H
  H146     1.0000 0.01120  0.94560  0.84920  Biso   1.000  H
  H147     1.0000 0.97430  0.97490  0.82280  Biso   1.000  H
  C82      1.0000 0.95140  0.87630  0.81180  Biso   1.000  C
  H148     1.0000 0.95670  0.84880  0.79780  Biso   1.000  H
  H149     1.0000 0.91200  0.89390  0.80670  Biso   1.000  H
  H150     1.0000 0.94870  0.86420  0.83300  Biso   1.000  H
  H151     1.0000 0.94500  0.88130  0.82270  Biso   1.000  H
  Cl17     1.0000 0.13270  0.79130  0.72510  Biso   1.000  Cl
  Cl18     1.0000 0.05640  0.85510  0.77340  Biso   1.000  Cl
  N66      1.0000 0.03600  0.90340  0.81510  Biso   1.000  N
  C83      1.0000 0.05920  0.93820  0.83840  Biso   1.000  C
  C84      1.0000 0.98650  0.87790  0.83290  Biso   1.000  C
  H152     1.0000 0.05280  0.97150  0.83100  Biso   1.000  H
  H153     1.0000 0.03520  0.93360  0.85750  Biso   1.000  H
  H154     1.0000 0.10480  0.93270  0.84220  Biso   1.000  H
  H155     1.0000 0.98400  0.89200  0.85360  Biso   1.000  H
  H156     1.0000 0.99760  0.84340  0.83450  Biso   1.000  H
  Cd13     1.0000 0.56608  0.45694  0.65865  Biso   1.000  Cd
  Cd14     1.0000 0.62274  0.38053  0.72585  Biso   1.000  Cd
  Cl19     1.0000 0.52631  0.37765  0.68875  Biso   1.000  Cl
  N67      1.0000 0.61680  0.49095  0.75331  Biso   1.000  N
  N68      1.0000 0.60460  0.46282  0.72897  Biso   1.000  N
  N69      1.0000 0.58680  0.49024  0.70586  Biso   1.000  N
  N70      1.0000 0.58640  0.53656  0.71400  Biso   1.000  N
  N71      1.0000 0.44780  0.64807  0.81489  Biso   1.000  N
  N72      1.0000 0.41640  0.66541  0.83970  Biso   1.000  N
  N73      1.0000 0.45690  0.66990  0.86218  Biso   1.000  N
  N74      1.0000 0.51590  0.65624  0.85362  Biso   1.000  N
  C85      1.0000 0.60510  0.53606  0.74342  Biso   1.000  C
  C86      1.0000 0.61460  0.58002  0.76314  Biso   1.000  C
  C87      1.0000 0.55520  0.58753  0.78355  Biso   1.000  C
  H157     1.0000 0.54820  0.55840  0.79650  Biso   1.000  H
  H158     1.0000 0.51680  0.59230  0.77050  Biso   1.000  H
  C88      1.0000 0.56540  0.63253  0.80408  Biso   1.000  C
  H159     1.0000 0.61870  0.59630  0.83740  Biso   1.000  H
  H160     1.0000 0.66290  0.62010  0.72960  Biso   1.000  H
  C89      1.0000 0.67360  0.57227  0.78360  Biso   1.000  C
  H161     1.0000 0.71180  0.56660  0.77060  Biso   1.000  H
  H162     1.0000 0.66710  0.54330  0.79670  Biso   1.000  H
  C90      1.0000 0.50900  0.64353  0.82402  Biso   1.000  C
  O13      1.0000 0.65060  0.30170  0.72890  Biso   1.000  O
  N75      1.0000 0.62930  0.22910  0.75110  Biso   1.000  N
  C91      1.0000 0.61250  0.27080  0.73910  Biso   1.000  C
  H163     1.0000 0.56800  0.27810  0.73810  Biso   1.000  H
  C92      1.0000 0.69660  0.21570  0.75390  Biso   1.000  C
  H164     1.0000 0.72240  0.23610  0.74020  Biso   1.000  H
  H165     1.0000 0.70200  0.18150  0.74820  Biso   1.000  H
  H166     1.0000 0.71080  0.22050  0.77510  Biso   1.000  H
  C93      1.0000 0.58410  0.19480  0.76530  Biso   1.000  C
  H167     1.0000 0.60130  0.18360  0.78500  Biso   1.000  H
  H168     1.0000 0.57790  0.16680  0.75170  Biso   1.000  H
  H169     1.0000 0.54290  0.21100  0.76870  Biso   1.000  H
  O14      1.0000 0.54660  0.37200  0.76730  Biso   1.000  O
  C94      1.0000 0.55280  0.39830  0.78960  Biso   1.000  C
  H170     1.0000 0.58170  0.42380  0.78460  Biso   1.000  H
  N76      1.0000 0.50660  0.40920  0.80900  Biso   1.000  N
  C95      1.0000 0.51110  0.45390  0.82730  Biso   1.000  C
  H171     1.0000 0.55080  0.47110  0.82220  Biso   1.000  H
  H172     1.0000 0.51120  0.44560  0.84920  Biso   1.000  H
  H173     1.0000 0.47430  0.47490  0.82280  Biso   1.000  H
  C96      1.0000 0.45140  0.37630  0.81180  Biso   1.000  C
  H174     1.0000 0.45670  0.34880  0.79780  Biso   1.000  H
  H175     1.0000 0.41200  0.39390  0.80670  Biso   1.000  H
  H176     1.0000 0.44870  0.36420  0.83300  Biso   1.000  H
  H177     1.0000 0.44500  0.38130  0.82270  Biso   1.000  H
  Cl20     1.0000 0.63270  0.29130  0.72510  Biso   1.000  Cl
  Cl21     1.0000 0.55640  0.35510  0.77340  Biso   1.000  Cl
  N77      1.0000 0.53600  0.40340  0.81510  Biso   1.000  N
  C97      1.0000 0.55920  0.43820  0.83840  Biso   1.000  C
  C98      1.0000 0.48650  0.37790  0.83290  Biso   1.000  C
  H178     1.0000 0.55280  0.47150  0.83100  Biso   1.000  H
  H179     1.0000 0.53520  0.43360  0.85750  Biso   1.000  H
  H180     1.0000 0.60480  0.43270  0.84220  Biso   1.000  H
  H181     1.0000 0.48400  0.39200  0.85360  Biso   1.000  H
  H182     1.0000 0.49760  0.34340  0.83450  Biso   1.000  H
  Cd15     1.0000 0.56608  0.95694  0.15865  Biso   1.000  Cd
  Cd16     1.0000 0.62274  0.88053  0.22585  Biso   1.000  Cd
  Cl22     1.0000 0.52631  0.87765  0.18875  Biso   1.000  Cl
  N78      1.0000 0.61680  0.99095  0.25331  Biso   1.000  N
  N79      1.0000 0.60460  0.96282  0.22897  Biso   1.000  N
  N80      1.0000 0.58680  0.99024  0.20586  Biso   1.000  N
  N81      1.0000 0.58640  0.03656  0.21400  Biso   1.000  N
  N82      1.0000 0.44780  0.14807  0.31489  Biso   1.000  N
  N83      1.0000 0.41640  0.16541  0.33970  Biso   1.000  N
  N84      1.0000 0.45690  0.16990  0.36218  Biso   1.000  N
  N85      1.0000 0.51590  0.15624  0.35362  Biso   1.000  N
  C99      1.0000 0.60510  0.03606  0.24342  Biso   1.000  C
  C100     1.0000 0.61460  0.08002  0.26314  Biso   1.000  C
  C101     1.0000 0.55520  0.08753  0.28355  Biso   1.000  C
  H183     1.0000 0.54820  0.05840  0.29650  Biso   1.000  H
  H184     1.0000 0.51680  0.09230  0.27050  Biso   1.000  H
  C102     1.0000 0.56540  0.13253  0.30408  Biso   1.000  C
  H185     1.0000 0.61870  0.09630  0.33740  Biso   1.000  H
  H186     1.0000 0.66290  0.12010  0.22960  Biso   1.000  H
  C103     1.0000 0.67360  0.07227  0.28360  Biso   1.000  C
  H187     1.0000 0.71180  0.06660  0.27060  Biso   1.000  H
  H188     1.0000 0.66710  0.04330  0.29670  Biso   1.000  H
  C104     1.0000 0.50900  0.14353  0.32402  Biso   1.000  C
  O15      1.0000 0.65060  0.80170  0.22890  Biso   1.000  O
  N86      1.0000 0.62930  0.72910  0.25110  Biso   1.000  N
  C105     1.0000 0.61250  0.77080  0.23910  Biso   1.000  C
  H189     1.0000 0.56800  0.77810  0.23810  Biso   1.000  H
  C106     1.0000 0.69660  0.71570  0.25390  Biso   1.000  C
  H190     1.0000 0.72240  0.73610  0.24020  Biso   1.000  H
  H191     1.0000 0.70200  0.68150  0.24820  Biso   1.000  H
  H192     1.0000 0.71080  0.72050  0.27510  Biso   1.000  H
  C107     1.0000 0.58410  0.69480  0.26530  Biso   1.000  C
  H193     1.0000 0.60130  0.68360  0.28500  Biso   1.000  H
  H194     1.0000 0.57790  0.66680  0.25170  Biso   1.000  H
  H195     1.0000 0.54290  0.71100  0.26870  Biso   1.000  H
  O16      1.0000 0.54660  0.87200  0.26730  Biso   1.000  O
  C108     1.0000 0.55280  0.89830  0.28960  Biso   1.000  C
  H196     1.0000 0.58170  0.92380  0.28460  Biso   1.000  H
  N87      1.0000 0.50660  0.90920  0.30900  Biso   1.000  N
  C109     1.0000 0.51110  0.95390  0.32730  Biso   1.000  C
  H197     1.0000 0.55080  0.97110  0.32220  Biso   1.000  H
  H198     1.0000 0.51120  0.94560  0.34920  Biso   1.000  H
  H199     1.0000 0.47430  0.97490  0.32280  Biso   1.000  H
  C110     1.0000 0.45140  0.87630  0.31180  Biso   1.000  C
  H200     1.0000 0.45670  0.84880  0.29780  Biso   1.000  H
  H201     1.0000 0.41200  0.89390  0.30670  Biso   1.000  H
  H202     1.0000 0.44870  0.86420  0.33300  Biso   1.000  H
  H203     1.0000 0.44500  0.88130  0.32270  Biso   1.000  H
  Cl23     1.0000 0.63270  0.79130  0.22510  Biso   1.000  Cl
  Cl24     1.0000 0.55640  0.85510  0.27340  Biso   1.000  Cl
  N88      1.0000 0.53600  0.90340  0.31510  Biso   1.000  N
  C111     1.0000 0.55920  0.93820  0.33840  Biso   1.000  C
  C112     1.0000 0.48650  0.87790  0.33290  Biso   1.000  C
  H204     1.0000 0.55280  0.97150  0.33100  Biso   1.000  H
  H205     1.0000 0.53520  0.93360  0.35750  Biso   1.000  H
  H206     1.0000 0.60480  0.93270  0.34220  Biso   1.000  H
  H207     1.0000 0.48400  0.89200  0.35360  Biso   1.000  H
  H208     1.0000 0.49760  0.84340  0.33450  Biso   1.000  H
  Cd17     1.0000 0.06608  0.29306  0.59135  Biso   1.000  Cd
  Cd18     1.0000 0.12274  0.36947  0.52415  Biso   1.000  Cd
  Cl25     1.0000 0.02631  0.37235  0.56125  Biso   1.000  Cl
  N89      1.0000 0.11680  0.25905  0.49669  Biso   1.000  N
  N90      1.0000 0.10460  0.28718  0.52103  Biso   1.000  N
  N91      1.0000 0.08680  0.25976  0.54414  Biso   1.000  N
  N92      1.0000 0.08640  0.21344  0.53600  Biso   1.000  N
  N93      1.0000 0.94780  0.10193  0.43511  Biso   1.000  N
  N94      1.0000 0.91640  0.08459  0.41030  Biso   1.000  N
  N95      1.0000 0.95690  0.08010  0.38782  Biso   1.000  N
  N96      1.0000 0.01590  0.09376  0.39638  Biso   1.000  N
  C113     1.0000 0.10510  0.21394  0.50658  Biso   1.000  C
  C114     1.0000 0.11460  0.16998  0.48686  Biso   1.000  C
  C115     1.0000 0.05520  0.16247  0.46645  Biso   1.000  C
  H209     1.0000 0.04820  0.19160  0.45350  Biso   1.000  H
  H210     1.0000 0.01680  0.15770  0.47950  Biso   1.000  H
  C116     1.0000 0.06540  0.11747  0.44592  Biso   1.000  C
  H211     1.0000 0.11870  0.15370  0.41260  Biso   1.000  H
  H212     1.0000 0.16290  0.12990  0.52040  Biso   1.000  H
  C117     1.0000 0.17360  0.17773  0.46640  Biso   1.000  C
  H213     1.0000 0.21180  0.18340  0.47940  Biso   1.000  H
  H214     1.0000 0.16710  0.20670  0.45330  Biso   1.000  H
  C118     1.0000 0.00900  0.10647  0.42598  Biso   1.000  C
  O17      1.0000 0.15060  0.44830  0.52110  Biso   1.000  O
  N97      1.0000 0.12930  0.52090  0.49890  Biso   1.000  N
  C119     1.0000 0.11250  0.47920  0.51090  Biso   1.000  C
  H215     1.0000 0.06800  0.47190  0.51190  Biso   1.000  H
  C120     1.0000 0.19660  0.53430  0.49610  Biso   1.000  C
  H216     1.0000 0.22240  0.51390  0.50980  Biso   1.000  H
  H217     1.0000 0.20200  0.56850  0.50180  Biso   1.000  H
  H218     1.0000 0.21080  0.52950  0.47490  Biso   1.000  H
  C121     1.0000 0.08410  0.55520  0.48470  Biso   1.000  C
  H219     1.0000 0.10130  0.56640  0.46500  Biso   1.000  H
  H220     1.0000 0.07790  0.58320  0.49830  Biso   1.000  H
  H221     1.0000 0.04290  0.53900  0.48130  Biso   1.000  H
  O18      1.0000 0.04660  0.37800  0.48270  Biso   1.000  O
  C122     1.0000 0.05280  0.35170  0.46040  Biso   1.000  C
  H222     1.0000 0.08170  0.32620  0.46540  Biso   1.000  H
  N98      1.0000 0.00660  0.34080  0.44100  Biso   1.000  N
  C123     1.0000 0.01110  0.29610  0.42270  Biso   1.000  C
  H223     1.0000 0.05080  0.27890  0.42780  Biso   1.000  H
  H224     1.0000 0.01120  0.30440  0.40080  Biso   1.000  H
  H225     1.0000 0.97430  0.27510  0.42720  Biso   1.000  H
  C124     1.0000 0.95140  0.37370  0.43820  Biso   1.000  C
  H226     1.0000 0.95670  0.40120  0.45220  Biso   1.000  H
  H227     1.0000 0.91200  0.35610  0.44330  Biso   1.000  H
  H228     1.0000 0.94870  0.38580  0.41700  Biso   1.000  H
  H229     1.0000 0.94500  0.36870  0.42730  Biso   1.000  H
  Cl26     1.0000 0.13270  0.45870  0.52490  Biso   1.000  Cl
  Cl27     1.0000 0.05640  0.39490  0.47660  Biso   1.000  Cl
  N99      1.0000 0.03600  0.34660  0.43490  Biso   1.000  N
  C125     1.0000 0.05920  0.31180  0.41160  Biso   1.000  C
  C126     1.0000 0.98650  0.37210  0.41710  Biso   1.000  C
  H230     1.0000 0.05280  0.27850  0.41900  Biso   1.000  H
  H231     1.0000 0.03520  0.31640  0.39250  Biso   1.000  H
  H232     1.0000 0.10480  0.31730  0.40780  Biso   1.000  H
  H233     1.0000 0.98400  0.35800  0.39640  Biso   1.000  H
  H234     1.0000 0.99760  0.40660  0.41550  Biso   1.000  H
  Cd19     1.0000 0.06608  0.79306  0.09135  Biso   1.000  Cd
  Cd20     1.0000 0.12274  0.86947  0.02415  Biso   1.000  Cd
  Cl28     1.0000 0.02631  0.87235  0.06125  Biso   1.000  Cl
  N100     1.0000 0.11680  0.75905  0.99669  Biso   1.000  N
  N101     1.0000 0.10460  0.78718  0.02103  Biso   1.000  N
  N102     1.0000 0.08680  0.75976  0.04414  Biso   1.000  N
  N103     1.0000 0.08640  0.71344  0.03600  Biso   1.000  N
  N104     1.0000 0.94780  0.60193  0.93511  Biso   1.000  N
  N105     1.0000 0.91640  0.58459  0.91030  Biso   1.000  N
  N106     1.0000 0.95690  0.58010  0.88782  Biso   1.000  N
  N107     1.0000 0.01590  0.59376  0.89638  Biso   1.000  N
  C127     1.0000 0.10510  0.71394  0.00658  Biso   1.000  C
  C128     1.0000 0.11460  0.66998  0.98686  Biso   1.000  C
  C129     1.0000 0.05520  0.66247  0.96645  Biso   1.000  C
  H235     1.0000 0.04820  0.69160  0.95350  Biso   1.000  H
  H236     1.0000 0.01680  0.65770  0.97950  Biso   1.000  H
  C130     1.0000 0.06540  0.61747  0.94592  Biso   1.000  C
  H237     1.0000 0.11870  0.65370  0.91260  Biso   1.000  H
  H238     1.0000 0.16290  0.62990  0.02040  Biso   1.000  H
  C131     1.0000 0.17360  0.67773  0.96640  Biso   1.000  C
  H239     1.0000 0.21180  0.68340  0.97940  Biso   1.000  H
  H240     1.0000 0.16710  0.70670  0.95330  Biso   1.000  H
  C132     1.0000 0.00900  0.60647  0.92598  Biso   1.000  C
  O19      1.0000 0.15060  0.94830  0.02110  Biso   1.000  O
  N108     1.0000 0.12930  0.02090  0.99890  Biso   1.000  N
  C133     1.0000 0.11250  0.97920  0.01090  Biso   1.000  C
  H241     1.0000 0.06800  0.97190  0.01190  Biso   1.000  H
  C134     1.0000 0.19660  0.03430  0.99610  Biso   1.000  C
  H242     1.0000 0.22240  0.01390  0.00980  Biso   1.000  H
  H243     1.0000 0.20200  0.06850  0.00180  Biso   1.000  H
  H244     1.0000 0.21080  0.02950  0.97490  Biso   1.000  H
  C135     1.0000 0.08410  0.05520  0.98470  Biso   1.000  C
  H245     1.0000 0.10130  0.06640  0.96500  Biso   1.000  H
  H246     1.0000 0.07790  0.08320  0.99830  Biso   1.000  H
  H247     1.0000 0.04290  0.03900  0.98130  Biso   1.000  H
  O20      1.0000 0.04660  0.87800  0.98270  Biso   1.000  O
  C136     1.0000 0.05280  0.85170  0.96040  Biso   1.000  C
  H248     1.0000 0.08170  0.82620  0.96540  Biso   1.000  H
  N109     1.0000 0.00660  0.84080  0.94100  Biso   1.000  N
  C137     1.0000 0.01110  0.79610  0.92270  Biso   1.000  C
  H249     1.0000 0.05080  0.77890  0.92780  Biso   1.000  H
  H250     1.0000 0.01120  0.80440  0.90080  Biso   1.000  H
  H251     1.0000 0.97430  0.77510  0.92720  Biso   1.000  H
  C138     1.0000 0.95140  0.87370  0.93820  Biso   1.000  C
  H252     1.0000 0.95670  0.90120  0.95220  Biso   1.000  H
  H253     1.0000 0.91200  0.85610  0.94330  Biso   1.000  H
  H254     1.0000 0.94870  0.88580  0.91700  Biso   1.000  H
  H255     1.0000 0.94500  0.86870  0.92730  Biso   1.000  H
  Cl29     1.0000 0.13270  0.95870  0.02490  Biso   1.000  Cl
  Cl30     1.0000 0.05640  0.89490  0.97660  Biso   1.000  Cl
  N110     1.0000 0.03600  0.84660  0.93490  Biso   1.000  N
  C139     1.0000 0.05920  0.81180  0.91160  Biso   1.000  C
  C140     1.0000 0.98650  0.87210  0.91710  Biso   1.000  C
  H256     1.0000 0.05280  0.77850  0.91900  Biso   1.000  H
  H257     1.0000 0.03520  0.81640  0.89250  Biso   1.000  H
  H258     1.0000 0.10480  0.81730  0.90780  Biso   1.000  H
  H259     1.0000 0.98400  0.85800  0.89640  Biso   1.000  H
  H260     1.0000 0.99760  0.90660  0.91550  Biso   1.000  H
  Cd21     1.0000 0.56608  0.29306  0.09135  Biso   1.000  Cd
  Cd22     1.0000 0.62274  0.36947  0.02415  Biso   1.000  Cd
  Cl31     1.0000 0.52631  0.37235  0.06125  Biso   1.000  Cl
  N111     1.0000 0.61680  0.25905  0.99669  Biso   1.000  N
  N112     1.0000 0.60460  0.28718  0.02103  Biso   1.000  N
  N113     1.0000 0.58680  0.25976  0.04414  Biso   1.000  N
  N114     1.0000 0.58640  0.21344  0.03600  Biso   1.000  N
  N115     1.0000 0.44780  0.10193  0.93511  Biso   1.000  N
  N116     1.0000 0.41640  0.08459  0.91030  Biso   1.000  N
  N117     1.0000 0.45690  0.08010  0.88782  Biso   1.000  N
  N118     1.0000 0.51590  0.09376  0.89638  Biso   1.000  N
  C141     1.0000 0.60510  0.21394  0.00658  Biso   1.000  C
  C142     1.0000 0.61460  0.16998  0.98686  Biso   1.000  C
  C143     1.0000 0.55520  0.16247  0.96645  Biso   1.000  C
  H261     1.0000 0.54820  0.19160  0.95350  Biso   1.000  H
  H262     1.0000 0.51680  0.15770  0.97950  Biso   1.000  H
  C144     1.0000 0.56540  0.11747  0.94592  Biso   1.000  C
  H263     1.0000 0.61870  0.15370  0.91260  Biso   1.000  H
  H264     1.0000 0.66290  0.12990  0.02040  Biso   1.000  H
  C145     1.0000 0.67360  0.17773  0.96640  Biso   1.000  C
  H265     1.0000 0.71180  0.18340  0.97940  Biso   1.000  H
  H266     1.0000 0.66710  0.20670  0.95330  Biso   1.000  H
  C146     1.0000 0.50900  0.10647  0.92598  Biso   1.000  C
  O21      1.0000 0.65060  0.44830  0.02110  Biso   1.000  O
  N119     1.0000 0.62930  0.52090  0.99890  Biso   1.000  N
  C147     1.0000 0.61250  0.47920  0.01090  Biso   1.000  C
  H267     1.0000 0.56800  0.47190  0.01190  Biso   1.000  H
  C148     1.0000 0.69660  0.53430  0.99610  Biso   1.000  C
  H268     1.0000 0.72240  0.51390  0.00980  Biso   1.000  H
  H269     1.0000 0.70200  0.56850  0.00180  Biso   1.000  H
  H270     1.0000 0.71080  0.52950  0.97490  Biso   1.000  H
  C149     1.0000 0.58410  0.55520  0.98470  Biso   1.000  C
  H271     1.0000 0.60130  0.56640  0.96500  Biso   1.000  H
  H272     1.0000 0.57790  0.58320  0.99830  Biso   1.000  H
  H273     1.0000 0.54290  0.53900  0.98130  Biso   1.000  H
  O22      1.0000 0.54660  0.37800  0.98270  Biso   1.000  O
  C150     1.0000 0.55280  0.35170  0.96040  Biso   1.000  C
  H274     1.0000 0.58170  0.32620  0.96540  Biso   1.000  H
  N120     1.0000 0.50660  0.34080  0.94100  Biso   1.000  N
  C151     1.0000 0.51110  0.29610  0.92270  Biso   1.000  C
  H275     1.0000 0.55080  0.27890  0.92780  Biso   1.000  H
  H276     1.0000 0.51120  0.30440  0.90080  Biso   1.000  H
  H277     1.0000 0.47430  0.27510  0.92720  Biso   1.000  H
  C152     1.0000 0.45140  0.37370  0.93820  Biso   1.000  C
  H278     1.0000 0.45670  0.40120  0.95220  Biso   1.000  H
  H279     1.0000 0.41200  0.35610  0.94330  Biso   1.000  H
  H280     1.0000 0.44870  0.38580  0.91700  Biso   1.000  H
  H281     1.0000 0.44500  0.36870  0.92730  Biso   1.000  H
  Cl32     1.0000 0.63270  0.45870  0.02490  Biso   1.000  Cl
  Cl33     1.0000 0.55640  0.39490  0.97660  Biso   1.000  Cl
  N121     1.0000 0.53600  0.34660  0.93490  Biso   1.000  N
  C153     1.0000 0.55920  0.31180  0.91160  Biso   1.000  C
  C154     1.0000 0.48650  0.37210  0.91710  Biso   1.000  C
  H282     1.0000 0.55280  0.27850  0.91900  Biso   1.000  H
  H283     1.0000 0.53520  0.31640  0.89250  Biso   1.000  H
  H284     1.0000 0.60480  0.31730  0.90780  Biso   1.000  H
  H285     1.0000 0.48400  0.35800  0.89640  Biso   1.000  H
  H286     1.0000 0.49760  0.40660  0.91550  Biso   1.000  H
  Cd23     1.0000 0.56608  0.79306  0.59135  Biso   1.000  Cd
  Cd24     1.0000 0.62274  0.86947  0.52415  Biso   1.000  Cd
  Cl34     1.0000 0.52631  0.87235  0.56125  Biso   1.000  Cl
  N122     1.0000 0.61680  0.75905  0.49669  Biso   1.000  N
  N123     1.0000 0.60460  0.78718  0.52103  Biso   1.000  N
  N124     1.0000 0.58680  0.75976  0.54414  Biso   1.000  N
  N125     1.0000 0.58640  0.71344  0.53600  Biso   1.000  N
  N126     1.0000 0.44780  0.60193  0.43511  Biso   1.000  N
  N127     1.0000 0.41640  0.58459  0.41030  Biso   1.000  N
  N128     1.0000 0.45690  0.58010  0.38782  Biso   1.000  N
  N129     1.0000 0.51590  0.59376  0.39638  Biso   1.000  N
  C155     1.0000 0.60510  0.71394  0.50658  Biso   1.000  C
  C156     1.0000 0.61460  0.66998  0.48686  Biso   1.000  C
  C157     1.0000 0.55520  0.66247  0.46645  Biso   1.000  C
  H287     1.0000 0.54820  0.69160  0.45350  Biso   1.000  H
  H288     1.0000 0.51680  0.65770  0.47950  Biso   1.000  H
  C158     1.0000 0.56540  0.61747  0.44592  Biso   1.000  C
  H289     1.0000 0.61870  0.65370  0.41260  Biso   1.000  H
  H290     1.0000 0.66290  0.62990  0.52040  Biso   1.000  H
  C159     1.0000 0.67360  0.67773  0.46640  Biso   1.000  C
  H291     1.0000 0.71180  0.68340  0.47940  Biso   1.000  H
  H292     1.0000 0.66710  0.70670  0.45330  Biso   1.000  H
  C160     1.0000 0.50900  0.60647  0.42598  Biso   1.000  C
  O23      1.0000 0.65060  0.94830  0.52110  Biso   1.000  O
  N130     1.0000 0.62930  0.02090  0.49890  Biso   1.000  N
  C161     1.0000 0.61250  0.97920  0.51090  Biso   1.000  C
  H293     1.0000 0.56800  0.97190  0.51190  Biso   1.000  H
  C162     1.0000 0.69660  0.03430  0.49610  Biso   1.000  C
  H294     1.0000 0.72240  0.01390  0.50980  Biso   1.000  H
  H295     1.0000 0.70200  0.06850  0.50180  Biso   1.000  H
  H296     1.0000 0.71080  0.02950  0.47490  Biso   1.000  H
  C163     1.0000 0.58410  0.05520  0.48470  Biso   1.000  C
  H297     1.0000 0.60130  0.06640  0.46500  Biso   1.000  H
  H298     1.0000 0.57790  0.08320  0.49830  Biso   1.000  H
  H299     1.0000 0.54290  0.03900  0.48130  Biso   1.000  H
  O24      1.0000 0.54660  0.87800  0.48270  Biso   1.000  O
  C164     1.0000 0.55280  0.85170  0.46040  Biso   1.000  C
  H300     1.0000 0.58170  0.82620  0.46540  Biso   1.000  H
  N131     1.0000 0.50660  0.84080  0.44100  Biso   1.000  N
  C165     1.0000 0.51110  0.79610  0.42270  Biso   1.000  C
  H301     1.0000 0.55080  0.77890  0.42780  Biso   1.000  H
  H302     1.0000 0.51120  0.80440  0.40080  Biso   1.000  H
  H303     1.0000 0.47430  0.77510  0.42720  Biso   1.000  H
  C166     1.0000 0.45140  0.87370  0.43820  Biso   1.000  C
  H304     1.0000 0.45670  0.90120  0.45220  Biso   1.000  H
  H305     1.0000 0.41200  0.85610  0.44330  Biso   1.000  H
  H306     1.0000 0.44870  0.88580  0.41700  Biso   1.000  H
  H307     1.0000 0.44500  0.86870  0.42730  Biso   1.000  H
  Cl35     1.0000 0.63270  0.95870  0.52490  Biso   1.000  Cl
  Cl36     1.0000 0.55640  0.89490  0.47660  Biso   1.000  Cl
  N132     1.0000 0.53600  0.84660  0.43490  Biso   1.000  N
  C167     1.0000 0.55920  0.81180  0.41160  Biso   1.000  C
  C168     1.0000 0.48650  0.87210  0.41710  Biso   1.000  C
  H308     1.0000 0.55280  0.77850  0.41900  Biso   1.000  H
  H309     1.0000 0.53520  0.81640  0.39250  Biso   1.000  H
  H310     1.0000 0.60480  0.81730  0.40780  Biso   1.000  H
  H311     1.0000 0.48400  0.85800  0.39640  Biso   1.000  H
  H312     1.0000 0.49760  0.90660  0.41550  Biso   1.000  H
  Cd25     1.0000 0.68392  0.45694  0.59135  Biso   1.000  Cd
  Cd26     1.0000 0.62726  0.38053  0.52415  Biso   1.000  Cd
  Cl37     1.0000 0.72369  0.37765  0.56125  Biso   1.000  Cl
  N133     1.0000 0.63320  0.49095  0.49669  Biso   1.000  N
  N134     1.0000 0.64540  0.46282  0.52103  Biso   1.000  N
  N135     1.0000 0.66320  0.49024  0.54414  Biso   1.000  N
  N136     1.0000 0.66360  0.53656  0.53600  Biso   1.000  N
  N137     1.0000 0.80220  0.64807  0.43511  Biso   1.000  N
  N138     1.0000 0.83360  0.66541  0.41030  Biso   1.000  N
  N139     1.0000 0.79310  0.66990  0.38782  Biso   1.000  N
  N140     1.0000 0.73410  0.65624  0.39638  Biso   1.000  N
  C169     1.0000 0.64490  0.53606  0.50658  Biso   1.000  C
  C170     1.0000 0.63540  0.58002  0.48686  Biso   1.000  C
  C171     1.0000 0.69480  0.58753  0.46645  Biso   1.000  C
  H313     1.0000 0.70180  0.55840  0.45350  Biso   1.000  H
  H314     1.0000 0.73320  0.59230  0.47950  Biso   1.000  H
  C172     1.0000 0.68460  0.63253  0.44592  Biso   1.000  C
  H315     1.0000 0.63130  0.59630  0.41260  Biso   1.000  H
  H316     1.0000 0.58710  0.62010  0.52040  Biso   1.000  H
  C173     1.0000 0.57640  0.57227  0.46640  Biso   1.000  C
  H317     1.0000 0.53820  0.56660  0.47940  Biso   1.000  H
  H318     1.0000 0.58290  0.54330  0.45330  Biso   1.000  H
  C174     1.0000 0.74100  0.64353  0.42598  Biso   1.000  C
  O25      1.0000 0.59940  0.30170  0.52110  Biso   1.000  O
  N141     1.0000 0.62070  0.22910  0.49890  Biso   1.000  N
  C175     1.0000 0.63750  0.27080  0.51090  Biso   1.000  C
  H319     1.0000 0.68200  0.27810  0.51190  Biso   1.000  H
  C176     1.0000 0.55340  0.21570  0.49610  Biso   1.000  C
  H320     1.0000 0.52760  0.23610  0.50980  Biso   1.000  H
  H321     1.0000 0.54800  0.18150  0.50180  Biso   1.000  H
  H322     1.0000 0.53920  0.22050  0.47490  Biso   1.000  H
  C177     1.0000 0.66590  0.19480  0.48470  Biso   1.000  C
  H323     1.0000 0.64870  0.18360  0.46500  Biso   1.000  H
  H324     1.0000 0.67210  0.16680  0.49830  Biso   1.000  H
  H325     1.0000 0.70710  0.21100  0.48130  Biso   1.000  H
  O26      1.0000 0.70340  0.37200  0.48270  Biso   1.000  O
  C178     1.0000 0.69720  0.39830  0.46040  Biso   1.000  C
  H326     1.0000 0.66830  0.42380  0.46540  Biso   1.000  H
  N142     1.0000 0.74340  0.40920  0.44100  Biso   1.000  N
  C179     1.0000 0.73890  0.45390  0.42270  Biso   1.000  C
  H327     1.0000 0.69920  0.47110  0.42780  Biso   1.000  H
  H328     1.0000 0.73880  0.44560  0.40080  Biso   1.000  H
  H329     1.0000 0.77570  0.47490  0.42720  Biso   1.000  H
  C180     1.0000 0.79860  0.37630  0.43820  Biso   1.000  C
  H330     1.0000 0.79330  0.34880  0.45220  Biso   1.000  H
  H331     1.0000 0.83800  0.39390  0.44330  Biso   1.000  H
  H332     1.0000 0.80130  0.36420  0.41700  Biso   1.000  H
  H333     1.0000 0.80500  0.38130  0.42730  Biso   1.000  H
  Cl38     1.0000 0.61730  0.29130  0.52490  Biso   1.000  Cl
  Cl39     1.0000 0.69360  0.35510  0.47660  Biso   1.000  Cl
  N143     1.0000 0.71400  0.40340  0.43490  Biso   1.000  N
  C181     1.0000 0.69080  0.43820  0.41160  Biso   1.000  C
  C182     1.0000 0.76350  0.37790  0.41710  Biso   1.000  C
  H334     1.0000 0.69720  0.47150  0.41900  Biso   1.000  H
  H335     1.0000 0.71480  0.43360  0.39250  Biso   1.000  H
  H336     1.0000 0.64520  0.43270  0.40780  Biso   1.000  H
  H337     1.0000 0.76600  0.39200  0.39640  Biso   1.000  H
  H338     1.0000 0.75240  0.34340  0.41550  Biso   1.000  H
  Cd27     1.0000 0.68392  0.95694  0.09135  Biso   1.000  Cd
  Cd28     1.0000 0.62726  0.88053  0.02415  Biso   1.000  Cd
  Cl40     1.0000 0.72369  0.87765  0.06125  Biso   1.000  Cl
  N144     1.0000 0.63320  0.99095  0.99669  Biso   1.000  N
  N145     1.0000 0.64540  0.96282  0.02103  Biso   1.000  N
  N146     1.0000 0.66320  0.99024  0.04414  Biso   1.000  N
  N147     1.0000 0.66360  0.03656  0.03600  Biso   1.000  N
  N148     1.0000 0.80220  0.14807  0.93511  Biso   1.000  N
  N149     1.0000 0.83360  0.16541  0.91030  Biso   1.000  N
  N150     1.0000 0.79310  0.16990  0.88782  Biso   1.000  N
  N151     1.0000 0.73410  0.15624  0.89638  Biso   1.000  N
  C183     1.0000 0.64490  0.03606  0.00658  Biso   1.000  C
  C184     1.0000 0.63540  0.08002  0.98686  Biso   1.000  C
  C185     1.0000 0.69480  0.08753  0.96645  Biso   1.000  C
  H339     1.0000 0.70180  0.05840  0.95350  Biso   1.000  H
  H340     1.0000 0.73320  0.09230  0.97950  Biso   1.000  H
  C186     1.0000 0.68460  0.13253  0.94592  Biso   1.000  C
  H341     1.0000 0.63130  0.09630  0.91260  Biso   1.000  H
  H342     1.0000 0.58710  0.12010  0.02040  Biso   1.000  H
  C187     1.0000 0.57640  0.07227  0.96640  Biso   1.000  C
  H343     1.0000 0.53820  0.06660  0.97940  Biso   1.000  H
  H344     1.0000 0.58290  0.04330  0.95330  Biso   1.000  H
  C188     1.0000 0.74100  0.14353  0.92598  Biso   1.000  C
  O27      1.0000 0.59940  0.80170  0.02110  Biso   1.000  O
  N152     1.0000 0.62070  0.72910  0.99890  Biso   1.000  N
  C189     1.0000 0.63750  0.77080  0.01090  Biso   1.000  C
  H345     1.0000 0.68200  0.77810  0.01190  Biso   1.000  H
  C190     1.0000 0.55340  0.71570  0.99610  Biso   1.000  C
  H346     1.0000 0.52760  0.73610  0.00980  Biso   1.000  H
  H347     1.0000 0.54800  0.68150  0.00180  Biso   1.000  H
  H348     1.0000 0.53920  0.72050  0.97490  Biso   1.000  H
  C191     1.0000 0.66590  0.69480  0.98470  Biso   1.000  C
  H349     1.0000 0.64870  0.68360  0.96500  Biso   1.000  H
  H350     1.0000 0.67210  0.66680  0.99830  Biso   1.000  H
  H351     1.0000 0.70710  0.71100  0.98130  Biso   1.000  H
  O28      1.0000 0.70340  0.87200  0.98270  Biso   1.000  O
  C192     1.0000 0.69720  0.89830  0.96040  Biso   1.000  C
  H352     1.0000 0.66830  0.92380  0.96540  Biso   1.000  H
  N153     1.0000 0.74340  0.90920  0.94100  Biso   1.000  N
  C193     1.0000 0.73890  0.95390  0.92270  Biso   1.000  C
  H353     1.0000 0.69920  0.97110  0.92780  Biso   1.000  H
  H354     1.0000 0.73880  0.94560  0.90080  Biso   1.000  H
  H355     1.0000 0.77570  0.97490  0.92720  Biso   1.000  H
  C194     1.0000 0.79860  0.87630  0.93820  Biso   1.000  C
  H356     1.0000 0.79330  0.84880  0.95220  Biso   1.000  H
  H357     1.0000 0.83800  0.89390  0.94330  Biso   1.000  H
  H358     1.0000 0.80130  0.86420  0.91700  Biso   1.000  H
  H359     1.0000 0.80500  0.88130  0.92730  Biso   1.000  H
  Cl41     1.0000 0.61730  0.79130  0.02490  Biso   1.000  Cl
  Cl42     1.0000 0.69360  0.85510  0.97660  Biso   1.000  Cl
  N154     1.0000 0.71400  0.90340  0.93490  Biso   1.000  N
  C195     1.0000 0.69080  0.93820  0.91160  Biso   1.000  C
  C196     1.0000 0.76350  0.87790  0.91710  Biso   1.000  C
  H360     1.0000 0.69720  0.97150  0.91900  Biso   1.000  H
  H361     1.0000 0.71480  0.93360  0.89250  Biso   1.000  H
  H362     1.0000 0.64520  0.93270  0.90780  Biso   1.000  H
  H363     1.0000 0.76600  0.89200  0.89640  Biso   1.000  H
  H364     1.0000 0.75240  0.84340  0.91550  Biso   1.000  H
  Cd29     1.0000 0.18392  0.45694  0.09135  Biso   1.000  Cd
  Cd30     1.0000 0.12726  0.38053  0.02415  Biso   1.000  Cd
  Cl43     1.0000 0.22369  0.37765  0.06125  Biso   1.000  Cl
  N155     1.0000 0.13320  0.49095  0.99669  Biso   1.000  N
  N156     1.0000 0.14540  0.46282  0.02103  Biso   1.000  N
  N157     1.0000 0.16320  0.49024  0.04414  Biso   1.000  N
  N158     1.0000 0.16360  0.53656  0.03600  Biso   1.000  N
  N159     1.0000 0.30220  0.64807  0.93511  Biso   1.000  N
  N160     1.0000 0.33360  0.66541  0.91030  Biso   1.000  N
  N161     1.0000 0.29310  0.66990  0.88782  Biso   1.000  N
  N162     1.0000 0.23410  0.65624  0.89638  Biso   1.000  N
  C197     1.0000 0.14490  0.53606  0.00658  Biso   1.000  C
  C198     1.0000 0.13540  0.58002  0.98686  Biso   1.000  C
  C199     1.0000 0.19480  0.58753  0.96645  Biso   1.000  C
  H365     1.0000 0.20180  0.55840  0.95350  Biso   1.000  H
  H366     1.0000 0.23320  0.59230  0.97950  Biso   1.000  H
  C200     1.0000 0.18460  0.63253  0.94592  Biso   1.000  C
  H367     1.0000 0.13130  0.59630  0.91260  Biso   1.000  H
  H368     1.0000 0.08710  0.62010  0.02040  Biso   1.000  H
  C201     1.0000 0.07640  0.57227  0.96640  Biso   1.000  C
  H369     1.0000 0.03820  0.56660  0.97940  Biso   1.000  H
  H370     1.0000 0.08290  0.54330  0.95330  Biso   1.000  H
  C202     1.0000 0.24100  0.64353  0.92598  Biso   1.000  C
  O29      1.0000 0.09940  0.30170  0.02110  Biso   1.000  O
  N163     1.0000 0.12070  0.22910  0.99890  Biso   1.000  N
  C203     1.0000 0.13750  0.27080  0.01090  Biso   1.000  C
  H371     1.0000 0.18200  0.27810  0.01190  Biso   1.000  H
  C204     1.0000 0.05340  0.21570  0.99610  Biso   1.000  C
  H372     1.0000 0.02760  0.23610  0.00980  Biso   1.000  H
  H373     1.0000 0.04800  0.18150  0.00180  Biso   1.000  H
  H374     1.0000 0.03920  0.22050  0.97490  Biso   1.000  H
  C205     1.0000 0.16590  0.19480  0.98470  Biso   1.000  C
  H375     1.0000 0.14870  0.18360  0.96500  Biso   1.000  H
  H376     1.0000 0.17210  0.16680  0.99830  Biso   1.000  H
  H377     1.0000 0.20710  0.21100  0.98130  Biso   1.000  H
  O30      1.0000 0.20340  0.37200  0.98270  Biso   1.000  O
  C206     1.0000 0.19720  0.39830  0.96040  Biso   1.000  C
  H378     1.0000 0.16830  0.42380  0.96540  Biso   1.000  H
  N164     1.0000 0.24340  0.40920  0.94100  Biso   1.000  N
  C207     1.0000 0.23890  0.45390  0.92270  Biso   1.000  C
  H379     1.0000 0.19920  0.47110  0.92780  Biso   1.000  H
  H380     1.0000 0.23880  0.44560  0.90080  Biso   1.000  H
  H381     1.0000 0.27570  0.47490  0.92720  Biso   1.000  H
  C208     1.0000 0.29860  0.37630  0.93820  Biso   1.000  C
  H382     1.0000 0.29330  0.34880  0.95220  Biso   1.000  H
  H383     1.0000 0.33800  0.39390  0.94330  Biso   1.000  H
  H384     1.0000 0.30130  0.36420  0.91700  Biso   1.000  H
  H385     1.0000 0.30500  0.38130  0.92730  Biso   1.000  H
  Cl44     1.0000 0.11730  0.29130  0.02490  Biso   1.000  Cl
  Cl45     1.0000 0.19360  0.35510  0.97660  Biso   1.000  Cl
  N165     1.0000 0.21400  0.40340  0.93490  Biso   1.000  N
  C209     1.0000 0.19080  0.43820  0.91160  Biso   1.000  C
  C210     1.0000 0.26350  0.37790  0.91710  Biso   1.000  C
  H386     1.0000 0.19720  0.47150  0.91900  Biso   1.000  H
  H387     1.0000 0.21480  0.43360  0.89250  Biso   1.000  H
  H388     1.0000 0.14520  0.43270  0.90780  Biso   1.000  H
  H389     1.0000 0.26600  0.39200  0.89640  Biso   1.000  H
  H390     1.0000 0.25240  0.34340  0.91550  Biso   1.000  H
  Cd31     1.0000 0.18392  0.95694  0.59135  Biso   1.000  Cd
  Cd32     1.0000 0.12726  0.88053  0.52415  Biso   1.000  Cd
  Cl46     1.0000 0.22369  0.87765  0.56125  Biso   1.000  Cl
  N166     1.0000 0.13320  0.99095  0.49669  Biso   1.000  N
  N167     1.0000 0.14540  0.96282  0.52103  Biso   1.000  N
  N168     1.0000 0.16320  0.99024  0.54414  Biso   1.000  N
  N169     1.0000 0.16360  0.03656  0.53600  Biso   1.000  N
  N170     1.0000 0.30220  0.14807  0.43511  Biso   1.000  N
  N171     1.0000 0.33360  0.16541  0.41030  Biso   1.000  N
  N172     1.0000 0.29310  0.16990  0.38782  Biso   1.000  N
  N173     1.0000 0.23410  0.15624  0.39638  Biso   1.000  N
  C211     1.0000 0.14490  0.03606  0.50658  Biso   1.000  C
  C212     1.0000 0.13540  0.08002  0.48686  Biso   1.000  C
  C213     1.0000 0.19480  0.08753  0.46645  Biso   1.000  C
  H391     1.0000 0.20180  0.05840  0.45350  Biso   1.000  H
  H392     1.0000 0.23320  0.09230  0.47950  Biso   1.000  H
  C214     1.0000 0.18460  0.13253  0.44592  Biso   1.000  C
  H393     1.0000 0.13130  0.09630  0.41260  Biso   1.000  H
  H394     1.0000 0.08710  0.12010  0.52040  Biso   1.000  H
  C215     1.0000 0.07640  0.07227  0.46640  Biso   1.000  C
  H395     1.0000 0.03820  0.06660  0.47940  Biso   1.000  H
  H396     1.0000 0.08290  0.04330  0.45330  Biso   1.000  H
  C216     1.0000 0.24100  0.14353  0.42598  Biso   1.000  C
  O31      1.0000 0.09940  0.80170  0.52110  Biso   1.000  O
  N174     1.0000 0.12070  0.72910  0.49890  Biso   1.000  N
  C217     1.0000 0.13750  0.77080  0.51090  Biso   1.000  C
  H397     1.0000 0.18200  0.77810  0.51190  Biso   1.000  H
  C218     1.0000 0.05340  0.71570  0.49610  Biso   1.000  C
  H398     1.0000 0.02760  0.73610  0.50980  Biso   1.000  H
  H399     1.0000 0.04800  0.68150  0.50180  Biso   1.000  H
  H400     1.0000 0.03920  0.72050  0.47490  Biso   1.000  H
  C219     1.0000 0.16590  0.69480  0.48470  Biso   1.000  C
  H401     1.0000 0.14870  0.68360  0.46500  Biso   1.000  H
  H402     1.0000 0.17210  0.66680  0.49830  Biso   1.000  H
  H403     1.0000 0.20710  0.71100  0.48130  Biso   1.000  H
  O32      1.0000 0.20340  0.87200  0.48270  Biso   1.000  O
  C220     1.0000 0.19720  0.89830  0.46040  Biso   1.000  C
  H404     1.0000 0.16830  0.92380  0.46540  Biso   1.000  H
  N175     1.0000 0.24340  0.90920  0.44100  Biso   1.000  N
  C221     1.0000 0.23890  0.95390  0.42270  Biso   1.000  C
  H405     1.0000 0.19920  0.97110  0.42780  Biso   1.000  H
  H406     1.0000 0.23880  0.94560  0.40080  Biso   1.000  H
  H407     1.0000 0.27570  0.97490  0.42720  Biso   1.000  H
  C222     1.0000 0.29860  0.87630  0.43820  Biso   1.000  C
  H408     1.0000 0.29330  0.84880  0.45220  Biso   1.000  H
  H409     1.0000 0.33800  0.89390  0.44330  Biso   1.000  H
  H410     1.0000 0.30130  0.86420  0.41700  Biso   1.000  H
  H411     1.0000 0.30500  0.88130  0.42730  Biso   1.000  H
  Cl47     1.0000 0.11730  0.79130  0.52490  Biso   1.000  Cl
  Cl48     1.0000 0.19360  0.85510  0.47660  Biso   1.000  Cl
  N176     1.0000 0.21400  0.90340  0.43490  Biso   1.000  N
  C223     1.0000 0.19080  0.93820  0.41160  Biso   1.000  C
  C224     1.0000 0.26350  0.87790  0.41710  Biso   1.000  C
  H412     1.0000 0.19720  0.97150  0.41900  Biso   1.000  H
  H413     1.0000 0.21480  0.93360  0.39250  Biso   1.000  H
  H414     1.0000 0.14520  0.93270  0.40780  Biso   1.000  H
  H415     1.0000 0.26600  0.89200  0.39640  Biso   1.000  H
  H416     1.0000 0.25240  0.84340  0.41550  Biso   1.000  H
  Cd33     1.0000 0.31608  0.70694  0.84135  Biso   1.000  Cd
  Cd34     1.0000 0.37274  0.63053  0.77415  Biso   1.000  Cd
  Cl49     1.0000 0.27631  0.62765  0.81125  Biso   1.000  Cl
  N177     1.0000 0.36680  0.74095  0.74669  Biso   1.000  N
  N178     1.0000 0.35460  0.71282  0.77103  Biso   1.000  N
  N179     1.0000 0.33680  0.74024  0.79414  Biso   1.000  N
  N180     1.0000 0.33640  0.78656  0.78600  Biso   1.000  N
  N181     1.0000 0.19780  0.89807  0.68511  Biso   1.000  N
  N182     1.0000 0.16640  0.91541  0.66030  Biso   1.000  N
  N183     1.0000 0.20690  0.91990  0.63782  Biso   1.000  N
  N184     1.0000 0.26590  0.90624  0.64638  Biso   1.000  N
  C225     1.0000 0.35510  0.78606  0.75658  Biso   1.000  C
  C226     1.0000 0.36460  0.83002  0.73686  Biso   1.000  C
  C227     1.0000 0.30520  0.83753  0.71645  Biso   1.000  C
  H417     1.0000 0.29820  0.80840  0.70350  Biso   1.000  H
  H418     1.0000 0.26680  0.84230  0.72950  Biso   1.000  H
  C228     1.0000 0.31540  0.88253  0.69592  Biso   1.000  C
  H419     1.0000 0.36870  0.84630  0.66260  Biso   1.000  H
  H420     1.0000 0.41290  0.87010  0.77040  Biso   1.000  H
  C229     1.0000 0.42360  0.82227  0.71640  Biso   1.000  C
  H421     1.0000 0.46180  0.81660  0.72940  Biso   1.000  H
  H422     1.0000 0.41710  0.79330  0.70330  Biso   1.000  H
  C230     1.0000 0.25900  0.89353  0.67598  Biso   1.000  C
  O33      1.0000 0.40060  0.55170  0.77110  Biso   1.000  O
  N185     1.0000 0.37930  0.47910  0.74890  Biso   1.000  N
  C231     1.0000 0.36250  0.52080  0.76090  Biso   1.000  C
  H423     1.0000 0.31800  0.52810  0.76190  Biso   1.000  H
  C232     1.0000 0.44660  0.46570  0.74610  Biso   1.000  C
  H424     1.0000 0.47240  0.48610  0.75980  Biso   1.000  H
  H425     1.0000 0.45200  0.43150  0.75180  Biso   1.000  H
  H426     1.0000 0.46080  0.47050  0.72490  Biso   1.000  H
  C233     1.0000 0.33410  0.44480  0.73470  Biso   1.000  C
  H427     1.0000 0.35130  0.43360  0.71500  Biso   1.000  H
  H428     1.0000 0.32790  0.41680  0.74830  Biso   1.000  H
  H429     1.0000 0.29290  0.46100  0.73130  Biso   1.000  H
  O34      1.0000 0.29660  0.62200  0.73270  Biso   1.000  O
  C234     1.0000 0.30280  0.64830  0.71040  Biso   1.000  C
  H430     1.0000 0.33170  0.67380  0.71540  Biso   1.000  H
  N186     1.0000 0.25660  0.65920  0.69100  Biso   1.000  N
  C235     1.0000 0.26110  0.70390  0.67270  Biso   1.000  C
  H431     1.0000 0.30080  0.72110  0.67780  Biso   1.000  H
  H432     1.0000 0.26120  0.69560  0.65080  Biso   1.000  H
  H433     1.0000 0.22430  0.72490  0.67720  Biso   1.000  H
  C236     1.0000 0.20140  0.62630  0.68820  Biso   1.000  C
  H434     1.0000 0.20670  0.59880  0.70220  Biso   1.000  H
  H435     1.0000 0.16200  0.64390  0.69330  Biso   1.000  H
  H436     1.0000 0.19870  0.61420  0.66700  Biso   1.000  H
  H437     1.0000 0.19500  0.63130  0.67730  Biso   1.000  H
  Cl50     1.0000 0.38270  0.54130  0.77490  Biso   1.000  Cl
  Cl51     1.0000 0.30640  0.60510  0.72660  Biso   1.000  Cl
  N187     1.0000 0.28600  0.65340  0.68490  Biso   1.000  N
  C237     1.0000 0.30920  0.68820  0.66160  Biso   1.000  C
  C238     1.0000 0.23650  0.62790  0.66710  Biso   1.000  C
  H438     1.0000 0.30280  0.72150  0.66900  Biso   1.000  H
  H439     1.0000 0.28520  0.68360  0.64250  Biso   1.000  H
  H440     1.0000 0.35480  0.68270  0.65780  Biso   1.000  H
  H441     1.0000 0.23400  0.64200  0.64640  Biso   1.000  H
  H442     1.0000 0.24760  0.59340  0.66550  Biso   1.000  H
  Cd35     1.0000 0.31608  0.20694  0.34135  Biso   1.000  Cd
  Cd36     1.0000 0.37274  0.13053  0.27415  Biso   1.000  Cd
  Cl52     1.0000 0.27631  0.12765  0.31125  Biso   1.000  Cl
  N188     1.0000 0.36680  0.24095  0.24669  Biso   1.000  N
  N189     1.0000 0.35460  0.21282  0.27103  Biso   1.000  N
  N190     1.0000 0.33680  0.24024  0.29414  Biso   1.000  N
  N191     1.0000 0.33640  0.28656  0.28600  Biso   1.000  N
  N192     1.0000 0.19780  0.39807  0.18511  Biso   1.000  N
  N193     1.0000 0.16640  0.41541  0.16030  Biso   1.000  N
  N194     1.0000 0.20690  0.41990  0.13782  Biso   1.000  N
  N195     1.0000 0.26590  0.40624  0.14638  Biso   1.000  N
  C239     1.0000 0.35510  0.28606  0.25658  Biso   1.000  C
  C240     1.0000 0.36460  0.33002  0.23686  Biso   1.000  C
  C241     1.0000 0.30520  0.33753  0.21645  Biso   1.000  C
  H443     1.0000 0.29820  0.30840  0.20350  Biso   1.000  H
  H444     1.0000 0.26680  0.34230  0.22950  Biso   1.000  H
  C242     1.0000 0.31540  0.38253  0.19592  Biso   1.000  C
  H445     1.0000 0.36870  0.34630  0.16260  Biso   1.000  H
  H446     1.0000 0.41290  0.37010  0.27040  Biso   1.000  H
  C243     1.0000 0.42360  0.32227  0.21640  Biso   1.000  C
  H447     1.0000 0.46180  0.31660  0.22940  Biso   1.000  H
  H448     1.0000 0.41710  0.29330  0.20330  Biso   1.000  H
  C244     1.0000 0.25900  0.39353  0.17598  Biso   1.000  C
  O35      1.0000 0.40060  0.05170  0.27110  Biso   1.000  O
  N196     1.0000 0.37930  0.97910  0.24890  Biso   1.000  N
  C245     1.0000 0.36250  0.02080  0.26090  Biso   1.000  C
  H449     1.0000 0.31800  0.02810  0.26190  Biso   1.000  H
  C246     1.0000 0.44660  0.96570  0.24610  Biso   1.000  C
  H450     1.0000 0.47240  0.98610  0.25980  Biso   1.000  H
  H451     1.0000 0.45200  0.93150  0.25180  Biso   1.000  H
  H452     1.0000 0.46080  0.97050  0.22490  Biso   1.000  H
  C247     1.0000 0.33410  0.94480  0.23470  Biso   1.000  C
  H453     1.0000 0.35130  0.93360  0.21500  Biso   1.000  H
  H454     1.0000 0.32790  0.91680  0.24830  Biso   1.000  H
  H455     1.0000 0.29290  0.96100  0.23130  Biso   1.000  H
  O36      1.0000 0.29660  0.12200  0.23270  Biso   1.000  O
  C248     1.0000 0.30280  0.14830  0.21040  Biso   1.000  C
  H456     1.0000 0.33170  0.17380  0.21540  Biso   1.000  H
  N197     1.0000 0.25660  0.15920  0.19100  Biso   1.000  N
  C249     1.0000 0.26110  0.20390  0.17270  Biso   1.000  C
  H457     1.0000 0.30080  0.22110  0.17780  Biso   1.000  H
  H458     1.0000 0.26120  0.19560  0.15080  Biso   1.000  H
  H459     1.0000 0.22430  0.22490  0.17720  Biso   1.000  H
  C250     1.0000 0.20140  0.12630  0.18820  Biso   1.000  C
  H460     1.0000 0.20670  0.09880  0.20220  Biso   1.000  H
  H461     1.0000 0.16200  0.14390  0.19330  Biso   1.000  H
  H462     1.0000 0.19870  0.11420  0.16700  Biso   1.000  H
  H463     1.0000 0.19500  0.13130  0.17730  Biso   1.000  H
  Cl53     1.0000 0.38270  0.04130  0.27490  Biso   1.000  Cl
  Cl54     1.0000 0.30640  0.10510  0.22660  Biso   1.000  Cl
  N198     1.0000 0.28600  0.15340  0.18490  Biso   1.000  N
  C251     1.0000 0.30920  0.18820  0.16160  Biso   1.000  C
  C252     1.0000 0.23650  0.12790  0.16710  Biso   1.000  C
  H464     1.0000 0.30280  0.22150  0.16900  Biso   1.000  H
  H465     1.0000 0.28520  0.18360  0.14250  Biso   1.000  H
  H466     1.0000 0.35480  0.18270  0.15780  Biso   1.000  H
  H467     1.0000 0.23400  0.14200  0.14640  Biso   1.000  H
  H468     1.0000 0.24760  0.09340  0.16550  Biso   1.000  H
  Cd37     1.0000 0.81608  0.70694  0.34135  Biso   1.000  Cd
  Cd38     1.0000 0.87274  0.63053  0.27415  Biso   1.000  Cd
  Cl55     1.0000 0.77631  0.62765  0.31125  Biso   1.000  Cl
  N199     1.0000 0.86680  0.74095  0.24669  Biso   1.000  N
  N200     1.0000 0.85460  0.71282  0.27103  Biso   1.000  N
  N201     1.0000 0.83680  0.74024  0.29414  Biso   1.000  N
  N202     1.0000 0.83640  0.78656  0.28600  Biso   1.000  N
  N203     1.0000 0.69780  0.89807  0.18511  Biso   1.000  N
  N204     1.0000 0.66640  0.91541  0.16030  Biso   1.000  N
  N205     1.0000 0.70690  0.91990  0.13782  Biso   1.000  N
  N206     1.0000 0.76590  0.90624  0.14638  Biso   1.000  N
  C253     1.0000 0.85510  0.78606  0.25658  Biso   1.000  C
  C254     1.0000 0.86460  0.83002  0.23686  Biso   1.000  C
  C255     1.0000 0.80520  0.83753  0.21645  Biso   1.000  C
  H469     1.0000 0.79820  0.80840  0.20350  Biso   1.000  H
  H470     1.0000 0.76680  0.84230  0.22950  Biso   1.000  H
  C256     1.0000 0.81540  0.88253  0.19592  Biso   1.000  C
  H471     1.0000 0.86870  0.84630  0.16260  Biso   1.000  H
  H472     1.0000 0.91290  0.87010  0.27040  Biso   1.000  H
  C257     1.0000 0.92360  0.82227  0.21640  Biso   1.000  C
  H473     1.0000 0.96180  0.81660  0.22940  Biso   1.000  H
  H474     1.0000 0.91710  0.79330  0.20330  Biso   1.000  H
  C258     1.0000 0.75900  0.89353  0.17598  Biso   1.000  C
  O37      1.0000 0.90060  0.55170  0.27110  Biso   1.000  O
  N207     1.0000 0.87930  0.47910  0.24890  Biso   1.000  N
  C259     1.0000 0.86250  0.52080  0.26090  Biso   1.000  C
  H475     1.0000 0.81800  0.52810  0.26190  Biso   1.000  H
  C260     1.0000 0.94660  0.46570  0.24610  Biso   1.000  C
  H476     1.0000 0.97240  0.48610  0.25980  Biso   1.000  H
  H477     1.0000 0.95200  0.43150  0.25180  Biso   1.000  H
  H478     1.0000 0.96080  0.47050  0.22490  Biso   1.000  H
  C261     1.0000 0.83410  0.44480  0.23470  Biso   1.000  C
  H479     1.0000 0.85130  0.43360  0.21500  Biso   1.000  H
  H480     1.0000 0.82790  0.41680  0.24830  Biso   1.000  H
  H481     1.0000 0.79290  0.46100  0.23130  Biso   1.000  H
  O38      1.0000 0.79660  0.62200  0.23270  Biso   1.000  O
  C262     1.0000 0.80280  0.64830  0.21040  Biso   1.000  C
  H482     1.0000 0.83170  0.67380  0.21540  Biso   1.000  H
  N208     1.0000 0.75660  0.65920  0.19100  Biso   1.000  N
  C263     1.0000 0.76110  0.70390  0.17270  Biso   1.000  C
  H483     1.0000 0.80080  0.72110  0.17780  Biso   1.000  H
  H484     1.0000 0.76120  0.69560  0.15080  Biso   1.000  H
  H485     1.0000 0.72430  0.72490  0.17720  Biso   1.000  H
  C264     1.0000 0.70140  0.62630  0.18820  Biso   1.000  C
  H486     1.0000 0.70670  0.59880  0.20220  Biso   1.000  H
  H487     1.0000 0.66200  0.64390  0.19330  Biso   1.000  H
  H488     1.0000 0.69870  0.61420  0.16700  Biso   1.000  H
  H489     1.0000 0.69500  0.63130  0.17730  Biso   1.000  H
  Cl56     1.0000 0.88270  0.54130  0.27490  Biso   1.000  Cl
  Cl57     1.0000 0.80640  0.60510  0.22660  Biso   1.000  Cl
  N209     1.0000 0.78600  0.65340  0.18490  Biso   1.000  N
  C265     1.0000 0.80920  0.68820  0.16160  Biso   1.000  C
  C266     1.0000 0.73650  0.62790  0.16710  Biso   1.000  C
  H490     1.0000 0.80280  0.72150  0.16900  Biso   1.000  H
  H491     1.0000 0.78520  0.68360  0.14250  Biso   1.000  H
  H492     1.0000 0.85480  0.68270  0.15780  Biso   1.000  H
  H493     1.0000 0.73400  0.64200  0.14640  Biso   1.000  H
  H494     1.0000 0.74760  0.59340  0.16550  Biso   1.000  H
  Cd39     1.0000 0.81608  0.20694  0.84135  Biso   1.000  Cd
  Cd40     1.0000 0.87274  0.13053  0.77415  Biso   1.000  Cd
  Cl58     1.0000 0.77631  0.12765  0.81125  Biso   1.000  Cl
  N210     1.0000 0.86680  0.24095  0.74669  Biso   1.000  N
  N211     1.0000 0.85460  0.21282  0.77103  Biso   1.000  N
  N212     1.0000 0.83680  0.24024  0.79414  Biso   1.000  N
  N213     1.0000 0.83640  0.28656  0.78600  Biso   1.000  N
  N214     1.0000 0.69780  0.39807  0.68511  Biso   1.000  N
  N215     1.0000 0.66640  0.41541  0.66030  Biso   1.000  N
  N216     1.0000 0.70690  0.41990  0.63782  Biso   1.000  N
  N217     1.0000 0.76590  0.40624  0.64638  Biso   1.000  N
  C267     1.0000 0.85510  0.28606  0.75658  Biso   1.000  C
  C268     1.0000 0.86460  0.33002  0.73686  Biso   1.000  C
  C269     1.0000 0.80520  0.33753  0.71645  Biso   1.000  C
  H495     1.0000 0.79820  0.30840  0.70350  Biso   1.000  H
  H496     1.0000 0.76680  0.34230  0.72950  Biso   1.000  H
  C270     1.0000 0.81540  0.38253  0.69592  Biso   1.000  C
  H497     1.0000 0.86870  0.34630  0.66260  Biso   1.000  H
  H498     1.0000 0.91290  0.37010  0.77040  Biso   1.000  H
  C271     1.0000 0.92360  0.32227  0.71640  Biso   1.000  C
  H499     1.0000 0.96180  0.31660  0.72940  Biso   1.000  H
  H500     1.0000 0.91710  0.29330  0.70330  Biso   1.000  H
  C272     1.0000 0.75900  0.39353  0.67598  Biso   1.000  C
  O39      1.0000 0.90060  0.05170  0.77110  Biso   1.000  O
  N218     1.0000 0.87930  0.97910  0.74890  Biso   1.000  N
  C273     1.0000 0.86250  0.02080  0.76090  Biso   1.000  C
  H501     1.0000 0.81800  0.02810  0.76190  Biso   1.000  H
  C274     1.0000 0.94660  0.96570  0.74610  Biso   1.000  C
  H502     1.0000 0.97240  0.98610  0.75980  Biso   1.000  H
  H503     1.0000 0.95200  0.93150  0.75180  Biso   1.000  H
  H504     1.0000 0.96080  0.97050  0.72490  Biso   1.000  H
  C275     1.0000 0.83410  0.94480  0.73470  Biso   1.000  C
  H505     1.0000 0.85130  0.93360  0.71500  Biso   1.000  H
  H506     1.0000 0.82790  0.91680  0.74830  Biso   1.000  H
  H507     1.0000 0.79290  0.96100  0.73130  Biso   1.000  H
  O40      1.0000 0.79660  0.12200  0.73270  Biso   1.000  O
  C276     1.0000 0.80280  0.14830  0.71040  Biso   1.000  C
  H508     1.0000 0.83170  0.17380  0.71540  Biso   1.000  H
  N219     1.0000 0.75660  0.15920  0.69100  Biso   1.000  N
  C277     1.0000 0.76110  0.20390  0.67270  Biso   1.000  C
  H509     1.0000 0.80080  0.22110  0.67780  Biso   1.000  H
  H510     1.0000 0.76120  0.19560  0.65080  Biso   1.000  H
  H511     1.0000 0.72430  0.22490  0.67720  Biso   1.000  H
  C278     1.0000 0.70140  0.12630  0.68820  Biso   1.000  C
  H512     1.0000 0.70670  0.09880  0.70220  Biso   1.000  H
  H513     1.0000 0.66200  0.14390  0.69330  Biso   1.000  H
  H514     1.0000 0.69870  0.11420  0.66700  Biso   1.000  H
  H515     1.0000 0.69500  0.13130  0.67730  Biso   1.000  H
  Cl59     1.0000 0.88270  0.04130  0.77490  Biso   1.000  Cl
  Cl60     1.0000 0.80640  0.10510  0.72660  Biso   1.000  Cl
  N220     1.0000 0.78600  0.15340  0.68490  Biso   1.000  N
  C279     1.0000 0.80920  0.18820  0.66160  Biso   1.000  C
  C280     1.0000 0.73650  0.12790  0.66710  Biso   1.000  C
  H516     1.0000 0.80280  0.22150  0.66900  Biso   1.000  H
  H517     1.0000 0.78520  0.18360  0.64250  Biso   1.000  H
  H518     1.0000 0.85480  0.18270  0.65780  Biso   1.000  H
  H519     1.0000 0.73400  0.14200  0.64640  Biso   1.000  H
  H520     1.0000 0.74760  0.09340  0.66550  Biso   1.000  H
  Cd41     1.0000 0.93392  0.54306  0.84135  Biso   1.000  Cd
  Cd42     1.0000 0.87726  0.61947  0.77415  Biso   1.000  Cd
  Cl61     1.0000 0.97369  0.62235  0.81125  Biso   1.000  Cl
  N221     1.0000 0.88320  0.50905  0.74669  Biso   1.000  N
  N222     1.0000 0.89540  0.53718  0.77103  Biso   1.000  N
  N223     1.0000 0.91320  0.50976  0.79414  Biso   1.000  N
  N224     1.0000 0.91360  0.46344  0.78600  Biso   1.000  N
  N225     1.0000 0.05220  0.35193  0.68511  Biso   1.000  N
  N226     1.0000 0.08360  0.33459  0.66030  Biso   1.000  N
  N227     1.0000 0.04310  0.33010  0.63782  Biso   1.000  N
  N228     1.0000 0.98410  0.34376  0.64638  Biso   1.000  N
  C281     1.0000 0.89490  0.46394  0.75658  Biso   1.000  C
  C282     1.0000 0.88540  0.41998  0.73686  Biso   1.000  C
  C283     1.0000 0.94480  0.41247  0.71645  Biso   1.000  C
  H521     1.0000 0.95180  0.44160  0.70350  Biso   1.000  H
  H522     1.0000 0.98320  0.40770  0.72950  Biso   1.000  H
  C284     1.0000 0.93460  0.36747  0.69592  Biso   1.000  C
  H523     1.0000 0.88130  0.40370  0.66260  Biso   1.000  H
  H524     1.0000 0.83710  0.37990  0.77040  Biso   1.000  H
  C285     1.0000 0.82640  0.42773  0.71640  Biso   1.000  C
  H525     1.0000 0.78820  0.43340  0.72940  Biso   1.000  H
  H526     1.0000 0.83290  0.45670  0.70330  Biso   1.000  H
  C286     1.0000 0.99100  0.35647  0.67598  Biso   1.000  C
  O41      1.0000 0.84940  0.69830  0.77110  Biso   1.000  O
  N229     1.0000 0.87070  0.77090  0.74890  Biso   1.000  N
  C287     1.0000 0.88750  0.72920  0.76090  Biso   1.000  C
  H527     1.0000 0.93200  0.72190  0.76190  Biso   1.000  H
  C288     1.0000 0.80340  0.78430  0.74610  Biso   1.000  C
  H528     1.0000 0.77760  0.76390  0.75980  Biso   1.000  H
  H529     1.0000 0.79800  0.81850  0.75180  Biso   1.000  H
  H530     1.0000 0.78920  0.77950  0.72490  Biso   1.000  H
  C289     1.0000 0.91590  0.80520  0.73470  Biso   1.000  C
  H531     1.0000 0.89870  0.81640  0.71500  Biso   1.000  H
  H532     1.0000 0.92210  0.83320  0.74830  Biso   1.000  H
  H533     1.0000 0.95710  0.78900  0.73130  Biso   1.000  H
  O42      1.0000 0.95340  0.62800  0.73270  Biso   1.000  O
  C290     1.0000 0.94720  0.60170  0.71040  Biso   1.000  C
  H534     1.0000 0.91830  0.57620  0.71540  Biso   1.000  H
  N230     1.0000 0.99340  0.59080  0.69100  Biso   1.000  N
  C291     1.0000 0.98890  0.54610  0.67270  Biso   1.000  C
  H535     1.0000 0.94920  0.52890  0.67780  Biso   1.000  H
  H536     1.0000 0.98880  0.55440  0.65080  Biso   1.000  H
  H537     1.0000 0.02570  0.52510  0.67720  Biso   1.000  H
  C292     1.0000 0.04860  0.62370  0.68820  Biso   1.000  C
  H538     1.0000 0.04330  0.65120  0.70220  Biso   1.000  H
  H539     1.0000 0.08800  0.60610  0.69330  Biso   1.000  H
  H540     1.0000 0.05130  0.63580  0.66700  Biso   1.000  H
  H541     1.0000 0.05500  0.61870  0.67730  Biso   1.000  H
  Cl62     1.0000 0.86730  0.70870  0.77490  Biso   1.000  Cl
  Cl63     1.0000 0.94360  0.64490  0.72660  Biso   1.000  Cl
  N231     1.0000 0.96400  0.59660  0.68490  Biso   1.000  N
  C293     1.0000 0.94080  0.56180  0.66160  Biso   1.000  C
  C294     1.0000 0.01350  0.62210  0.66710  Biso   1.000  C
  H542     1.0000 0.94720  0.52850  0.66900  Biso   1.000  H
  H543     1.0000 0.96480  0.56640  0.64250  Biso   1.000  H
  H544     1.0000 0.89520  0.56730  0.65780  Biso   1.000  H
  H545     1.0000 0.01600  0.60800  0.64640  Biso   1.000  H
  H546     1.0000 0.00240  0.65660  0.66550  Biso   1.000  H
  Cd43     1.0000 0.93392  0.04306  0.34135  Biso   1.000  Cd
  Cd44     1.0000 0.87726  0.11947  0.27415  Biso   1.000  Cd
  Cl64     1.0000 0.97369  0.12235  0.31125  Biso   1.000  Cl
  N232     1.0000 0.88320  0.00905  0.24669  Biso   1.000  N
  N233     1.0000 0.89540  0.03718  0.27103  Biso   1.000  N
  N234     1.0000 0.91320  0.00976  0.29414  Biso   1.000  N
  N235     1.0000 0.91360  0.96344  0.28600  Biso   1.000  N
  N236     1.0000 0.05220  0.85193  0.18511  Biso   1.000  N
  N237     1.0000 0.08360  0.83459  0.16030  Biso   1.000  N
  N238     1.0000 0.04310  0.83010  0.13782  Biso   1.000  N
  N239     1.0000 0.98410  0.84376  0.14638  Biso   1.000  N
  C295     1.0000 0.89490  0.96394  0.25658  Biso   1.000  C
  C296     1.0000 0.88540  0.91998  0.23686  Biso   1.000  C
  C297     1.0000 0.94480  0.91247  0.21645  Biso   1.000  C
  H547     1.0000 0.95180  0.94160  0.20350  Biso   1.000  H
  H548     1.0000 0.98320  0.90770  0.22950  Biso   1.000  H
  C298     1.0000 0.93460  0.86747  0.19592  Biso   1.000  C
  H549     1.0000 0.88130  0.90370  0.16260  Biso   1.000  H
  H550     1.0000 0.83710  0.87990  0.27040  Biso   1.000  H
  C299     1.0000 0.82640  0.92773  0.21640  Biso   1.000  C
  H551     1.0000 0.78820  0.93340  0.22940  Biso   1.000  H
  H552     1.0000 0.83290  0.95670  0.20330  Biso   1.000  H
  C300     1.0000 0.99100  0.85647  0.17598  Biso   1.000  C
  O43      1.0000 0.84940  0.19830  0.27110  Biso   1.000  O
  N240     1.0000 0.87070  0.27090  0.24890  Biso   1.000  N
  C301     1.0000 0.88750  0.22920  0.26090  Biso   1.000  C
  H553     1.0000 0.93200  0.22190  0.26190  Biso   1.000  H
  C302     1.0000 0.80340  0.28430  0.24610  Biso   1.000  C
  H554     1.0000 0.77760  0.26390  0.25980  Biso   1.000  H
  H555     1.0000 0.79800  0.31850  0.25180  Biso   1.000  H
  H556     1.0000 0.78920  0.27950  0.22490  Biso   1.000  H
  C303     1.0000 0.91590  0.30520  0.23470  Biso   1.000  C
  H557     1.0000 0.89870  0.31640  0.21500  Biso   1.000  H
  H558     1.0000 0.92210  0.33320  0.24830  Biso   1.000  H
  H559     1.0000 0.95710  0.28900  0.23130  Biso   1.000  H
  O44      1.0000 0.95340  0.12800  0.23270  Biso   1.000  O
  C304     1.0000 0.94720  0.10170  0.21040  Biso   1.000  C
  H560     1.0000 0.91830  0.07620  0.21540  Biso   1.000  H
  N241     1.0000 0.99340  0.09080  0.19100  Biso   1.000  N
  C305     1.0000 0.98890  0.04610  0.17270  Biso   1.000  C
  H561     1.0000 0.94920  0.02890  0.17780  Biso   1.000  H
  H562     1.0000 0.98880  0.05440  0.15080  Biso   1.000  H
  H563     1.0000 0.02570  0.02510  0.17720  Biso   1.000  H
  C306     1.0000 0.04860  0.12370  0.18820  Biso   1.000  C
  H564     1.0000 0.04330  0.15120  0.20220  Biso   1.000  H
  H565     1.0000 0.08800  0.10610  0.19330  Biso   1.000  H
  H566     1.0000 0.05130  0.13580  0.16700  Biso   1.000  H
  H567     1.0000 0.05500  0.11870  0.17730  Biso   1.000  H
  Cl65     1.0000 0.86730  0.20870  0.27490  Biso   1.000  Cl
  Cl66     1.0000 0.94360  0.14490  0.22660  Biso   1.000  Cl
  N242     1.0000 0.96400  0.09660  0.18490  Biso   1.000  N
  C307     1.0000 0.94080  0.06180  0.16160  Biso   1.000  C
  C308     1.0000 0.01350  0.12210  0.16710  Biso   1.000  C
  H568     1.0000 0.94720  0.02850  0.16900  Biso   1.000  H
  H569     1.0000 0.96480  0.06640  0.14250  Biso   1.000  H
  H570     1.0000 0.89520  0.06730  0.15780  Biso   1.000  H
  H571     1.0000 0.01600  0.10800  0.14640  Biso   1.000  H
  H572     1.0000 0.00240  0.15660  0.16550  Biso   1.000  H
  Cd45     1.0000 0.43392  0.54306  0.34135  Biso   1.000  Cd
  Cd46     1.0000 0.37726  0.61947  0.27415  Biso   1.000  Cd
  Cl67     1.0000 0.47369  0.62235  0.31125  Biso   1.000  Cl
  N243     1.0000 0.38320  0.50905  0.24669  Biso   1.000  N
  N244     1.0000 0.39540  0.53718  0.27103  Biso   1.000  N
  N245     1.0000 0.41320  0.50976  0.29414  Biso   1.000  N
  N246     1.0000 0.41360  0.46344  0.28600  Biso   1.000  N
  N247     1.0000 0.55220  0.35193  0.18511  Biso   1.000  N
  N248     1.0000 0.58360  0.33459  0.16030  Biso   1.000  N
  N249     1.0000 0.54310  0.33010  0.13782  Biso   1.000  N
  N250     1.0000 0.48410  0.34376  0.14638  Biso   1.000  N
  C309     1.0000 0.39490  0.46394  0.25658  Biso   1.000  C
  C310     1.0000 0.38540  0.41998  0.23686  Biso   1.000  C
  C311     1.0000 0.44480  0.41247  0.21645  Biso   1.000  C
  H573     1.0000 0.45180  0.44160  0.20350  Biso   1.000  H
  H574     1.0000 0.48320  0.40770  0.22950  Biso   1.000  H
  C312     1.0000 0.43460  0.36747  0.19592  Biso   1.000  C
  H575     1.0000 0.38130  0.40370  0.16260  Biso   1.000  H
  H576     1.0000 0.33710  0.37990  0.27040  Biso   1.000  H
  C313     1.0000 0.32640  0.42773  0.21640  Biso   1.000  C
  H577     1.0000 0.28820  0.43340  0.22940  Biso   1.000  H
  H578     1.0000 0.33290  0.45670  0.20330  Biso   1.000  H
  C314     1.0000 0.49100  0.35647  0.17598  Biso   1.000  C
  O45      1.0000 0.34940  0.69830  0.27110  Biso   1.000  O
  N251     1.0000 0.37070  0.77090  0.24890  Biso   1.000  N
  C315     1.0000 0.38750  0.72920  0.26090  Biso   1.000  C
  H579     1.0000 0.43200  0.72190  0.26190  Biso   1.000  H
  C316     1.0000 0.30340  0.78430  0.24610  Biso   1.000  C
  H580     1.0000 0.27760  0.76390  0.25980  Biso   1.000  H
  H581     1.0000 0.29800  0.81850  0.25180  Biso   1.000  H
  H582     1.0000 0.28920  0.77950  0.22490  Biso   1.000  H
  C317     1.0000 0.41590  0.80520  0.23470  Biso   1.000  C
  H583     1.0000 0.39870  0.81640  0.21500  Biso   1.000  H
  H584     1.0000 0.42210  0.83320  0.24830  Biso   1.000  H
  H585     1.0000 0.45710  0.78900  0.23130  Biso   1.000  H
  O46      1.0000 0.45340  0.62800  0.23270  Biso   1.000  O
  C318     1.0000 0.44720  0.60170  0.21040  Biso   1.000  C
  H586     1.0000 0.41830  0.57620  0.21540  Biso   1.000  H
  N252     1.0000 0.49340  0.59080  0.19100  Biso   1.000  N
  C319     1.0000 0.48890  0.54610  0.17270  Biso   1.000  C
  H587     1.0000 0.44920  0.52890  0.17780  Biso   1.000  H
  H588     1.0000 0.48880  0.55440  0.15080  Biso   1.000  H
  H589     1.0000 0.52570  0.52510  0.17720  Biso   1.000  H
  C320     1.0000 0.54860  0.62370  0.18820  Biso   1.000  C
  H590     1.0000 0.54330  0.65120  0.20220  Biso   1.000  H
  H591     1.0000 0.58800  0.60610  0.19330  Biso   1.000  H
  H592     1.0000 0.55130  0.63580  0.16700  Biso   1.000  H
  H593     1.0000 0.55500  0.61870  0.17730  Biso   1.000  H
  Cl68     1.0000 0.36730  0.70870  0.27490  Biso   1.000  Cl
  Cl69     1.0000 0.44360  0.64490  0.22660  Biso   1.000  Cl
  N253     1.0000 0.46400  0.59660  0.18490  Biso   1.000  N
  C321     1.0000 0.44080  0.56180  0.16160  Biso   1.000  C
  C322     1.0000 0.51350  0.62210  0.16710  Biso   1.000  C
  H594     1.0000 0.44720  0.52850  0.16900  Biso   1.000  H
  H595     1.0000 0.46480  0.56640  0.14250  Biso   1.000  H
  H596     1.0000 0.39520  0.56730  0.15780  Biso   1.000  H
  H597     1.0000 0.51600  0.60800  0.14640  Biso   1.000  H
  H598     1.0000 0.50240  0.65660  0.16550  Biso   1.000  H
  Cd47     1.0000 0.43392  0.04306  0.84135  Biso   1.000  Cd
  Cd48     1.0000 0.37726  0.11947  0.77415  Biso   1.000  Cd
  Cl70     1.0000 0.47369  0.12235  0.81125  Biso   1.000  Cl
  N254     1.0000 0.38320  0.00905  0.74669  Biso   1.000  N
  N255     1.0000 0.39540  0.03718  0.77103  Biso   1.000  N
  N256     1.0000 0.41320  0.00976  0.79414  Biso   1.000  N
  N257     1.0000 0.41360  0.96344  0.78600  Biso   1.000  N
  N258     1.0000 0.55220  0.85193  0.68511  Biso   1.000  N
  N259     1.0000 0.58360  0.83459  0.66030  Biso   1.000  N
  N260     1.0000 0.54310  0.83010  0.63782  Biso   1.000  N
  N261     1.0000 0.48410  0.84376  0.64638  Biso   1.000  N
  C323     1.0000 0.39490  0.96394  0.75658  Biso   1.000  C
  C324     1.0000 0.38540  0.91998  0.73686  Biso   1.000  C
  C325     1.0000 0.44480  0.91247  0.71645  Biso   1.000  C
  H599     1.0000 0.45180  0.94160  0.70350  Biso   1.000  H
  H600     1.0000 0.48320  0.90770  0.72950  Biso   1.000  H
  C326     1.0000 0.43460  0.86747  0.69592  Biso   1.000  C
  H601     1.0000 0.38130  0.90370  0.66260  Biso   1.000  H
  H602     1.0000 0.33710  0.87990  0.77040  Biso   1.000  H
  C327     1.0000 0.32640  0.92773  0.71640  Biso   1.000  C
  H603     1.0000 0.28820  0.93340  0.72940  Biso   1.000  H
  H604     1.0000 0.33290  0.95670  0.70330  Biso   1.000  H
  C328     1.0000 0.49100  0.85647  0.67598  Biso   1.000  C
  O47      1.0000 0.34940  0.19830  0.77110  Biso   1.000  O
  N262     1.0000 0.37070  0.27090  0.74890  Biso   1.000  N
  C329     1.0000 0.38750  0.22920  0.76090  Biso   1.000  C
  H605     1.0000 0.43200  0.22190  0.76190  Biso   1.000  H
  C330     1.0000 0.30340  0.28430  0.74610  Biso   1.000  C
  H606     1.0000 0.27760  0.26390  0.75980  Biso   1.000  H
  H607     1.0000 0.29800  0.31850  0.75180  Biso   1.000  H
  H608     1.0000 0.28920  0.27950  0.72490  Biso   1.000  H
  C331     1.0000 0.41590  0.30520  0.73470  Biso   1.000  C
  H609     1.0000 0.39870  0.31640  0.71500  Biso   1.000  H
  H610     1.0000 0.42210  0.33320  0.74830  Biso   1.000  H
  H611     1.0000 0.45710  0.28900  0.73130  Biso   1.000  H
  O48      1.0000 0.45340  0.12800  0.73270  Biso   1.000  O
  C332     1.0000 0.44720  0.10170  0.71040  Biso   1.000  C
  H612     1.0000 0.41830  0.07620  0.71540  Biso   1.000  H
  N263     1.0000 0.49340  0.09080  0.69100  Biso   1.000  N
  C333     1.0000 0.48890  0.04610  0.67270  Biso   1.000  C
  H613     1.0000 0.44920  0.02890  0.67780  Biso   1.000  H
  H614     1.0000 0.48880  0.05440  0.65080  Biso   1.000  H
  H615     1.0000 0.52570  0.02510  0.67720  Biso   1.000  H
  C334     1.0000 0.54860  0.12370  0.68820  Biso   1.000  C
  H616     1.0000 0.54330  0.15120  0.70220  Biso   1.000  H
  H617     1.0000 0.58800  0.10610  0.69330  Biso   1.000  H
  H618     1.0000 0.55130  0.13580  0.66700  Biso   1.000  H
  H619     1.0000 0.55500  0.11870  0.67730  Biso   1.000  H
  Cl71     1.0000 0.36730  0.20870  0.77490  Biso   1.000  Cl
  Cl72     1.0000 0.44360  0.14490  0.72660  Biso   1.000  Cl
  N264     1.0000 0.46400  0.09660  0.68490  Biso   1.000  N
  C335     1.0000 0.44080  0.06180  0.66160  Biso   1.000  C
  C336     1.0000 0.51350  0.12210  0.66710  Biso   1.000  C
  H620     1.0000 0.44720  0.02850  0.66900  Biso   1.000  H
  H621     1.0000 0.46480  0.06640  0.64250  Biso   1.000  H
  H622     1.0000 0.39520  0.06730  0.65780  Biso   1.000  H
  H623     1.0000 0.51600  0.10800  0.64640  Biso   1.000  H
  H624     1.0000 0.50240  0.15660  0.66550  Biso   1.000  H
  Cd49     1.0000 0.93392  0.70694  0.40865  Biso   1.000  Cd
  Cd50     1.0000 0.87726  0.63053  0.47585  Biso   1.000  Cd
  Cl73     1.0000 0.97369  0.62765  0.43875  Biso   1.000  Cl
  N265     1.0000 0.88320  0.74095  0.50331  Biso   1.000  N
  N266     1.0000 0.89540  0.71282  0.47897  Biso   1.000  N
  N267     1.0000 0.91320  0.74024  0.45586  Biso   1.000  N
  N268     1.0000 0.91360  0.78656  0.46400  Biso   1.000  N
  N269     1.0000 0.05220  0.89807  0.56489  Biso   1.000  N
  N270     1.0000 0.08360  0.91541  0.58970  Biso   1.000  N
  N271     1.0000 0.04310  0.91990  0.61218  Biso   1.000  N
  N272     1.0000 0.98410  0.90624  0.60362  Biso   1.000  N
  C337     1.0000 0.89490  0.78606  0.49342  Biso   1.000  C
  C338     1.0000 0.88540  0.83002  0.51314  Biso   1.000  C
  C339     1.0000 0.94480  0.83753  0.53355  Biso   1.000  C
  H625     1.0000 0.95180  0.80840  0.54650  Biso   1.000  H
  H626     1.0000 0.98320  0.84230  0.52050  Biso   1.000  H
  C340     1.0000 0.93460  0.88253  0.55408  Biso   1.000  C
  H627     1.0000 0.88130  0.84630  0.58740  Biso   1.000  H
  H628     1.0000 0.83710  0.87010  0.47960  Biso   1.000  H
  C341     1.0000 0.82640  0.82227  0.53360  Biso   1.000  C
  H629     1.0000 0.78820  0.81660  0.52060  Biso   1.000  H
  H630     1.0000 0.83290  0.79330  0.54670  Biso   1.000  H
  C342     1.0000 0.99100  0.89353  0.57402  Biso   1.000  C
  O49      1.0000 0.84940  0.55170  0.47890  Biso   1.000  O
  N273     1.0000 0.87070  0.47910  0.50110  Biso   1.000  N
  C343     1.0000 0.88750  0.52080  0.48910  Biso   1.000  C
  H631     1.0000 0.93200  0.52810  0.48810  Biso   1.000  H
  C344     1.0000 0.80340  0.46570  0.50390  Biso   1.000  C
  H632     1.0000 0.77760  0.48610  0.49020  Biso   1.000  H
  H633     1.0000 0.79800  0.43150  0.49820  Biso   1.000  H
  H634     1.0000 0.78920  0.47050  0.52510  Biso   1.000  H
  C345     1.0000 0.91590  0.44480  0.51530  Biso   1.000  C
  H635     1.0000 0.89870  0.43360  0.53500  Biso   1.000  H
  H636     1.0000 0.92210  0.41680  0.50170  Biso   1.000  H
  H637     1.0000 0.95710  0.46100  0.51870  Biso   1.000  H
  O50      1.0000 0.95340  0.62200  0.51730  Biso   1.000  O
  C346     1.0000 0.94720  0.64830  0.53960  Biso   1.000  C
  H638     1.0000 0.91830  0.67380  0.53460  Biso   1.000  H
  N274     1.0000 0.99340  0.65920  0.55900  Biso   1.000  N
  C347     1.0000 0.98890  0.70390  0.57730  Biso   1.000  C
  H639     1.0000 0.94920  0.72110  0.57220  Biso   1.000  H
  H640     1.0000 0.98880  0.69560  0.59920  Biso   1.000  H
  H641     1.0000 0.02570  0.72490  0.57280  Biso   1.000  H
  C348     1.0000 0.04860  0.62630  0.56180  Biso   1.000  C
  H642     1.0000 0.04330  0.59880  0.54780  Biso   1.000  H
  H643     1.0000 0.08800  0.64390  0.55670  Biso   1.000  H
  H644     1.0000 0.05130  0.61420  0.58300  Biso   1.000  H
  H645     1.0000 0.05500  0.63130  0.57270  Biso   1.000  H
  Cl74     1.0000 0.86730  0.54130  0.47510  Biso   1.000  Cl
  Cl75     1.0000 0.94360  0.60510  0.52340  Biso   1.000  Cl
  N275     1.0000 0.96400  0.65340  0.56510  Biso   1.000  N
  C349     1.0000 0.94080  0.68820  0.58840  Biso   1.000  C
  C350     1.0000 0.01350  0.62790  0.58290  Biso   1.000  C
  H646     1.0000 0.94720  0.72150  0.58100  Biso   1.000  H
  H647     1.0000 0.96480  0.68360  0.60750  Biso   1.000  H
  H648     1.0000 0.89520  0.68270  0.59220  Biso   1.000  H
  H649     1.0000 0.01600  0.64200  0.60360  Biso   1.000  H
  H650     1.0000 0.00240  0.59340  0.58450  Biso   1.000  H
  Cd51     1.0000 0.93392  0.20694  0.90865  Biso   1.000  Cd
  Cd52     1.0000 0.87726  0.13053  0.97585  Biso   1.000  Cd
  Cl76     1.0000 0.97369  0.12765  0.93875  Biso   1.000  Cl
  N276     1.0000 0.88320  0.24095  0.00331  Biso   1.000  N
  N277     1.0000 0.89540  0.21282  0.97897  Biso   1.000  N
  N278     1.0000 0.91320  0.24024  0.95586  Biso   1.000  N
  N279     1.0000 0.91360  0.28656  0.96400  Biso   1.000  N
  N280     1.0000 0.05220  0.39807  0.06489  Biso   1.000  N
  N281     1.0000 0.08360  0.41541  0.08970  Biso   1.000  N
  N282     1.0000 0.04310  0.41990  0.11218  Biso   1.000  N
  N283     1.0000 0.98410  0.40624  0.10362  Biso   1.000  N
  C351     1.0000 0.89490  0.28606  0.99342  Biso   1.000  C
  C352     1.0000 0.88540  0.33002  0.01314  Biso   1.000  C
  C353     1.0000 0.94480  0.33753  0.03355  Biso   1.000  C
  H651     1.0000 0.95180  0.30840  0.04650  Biso   1.000  H
  H652     1.0000 0.98320  0.34230  0.02050  Biso   1.000  H
  C354     1.0000 0.93460  0.38253  0.05408  Biso   1.000  C
  H653     1.0000 0.88130  0.34630  0.08740  Biso   1.000  H
  H654     1.0000 0.83710  0.37010  0.97960  Biso   1.000  H
  C355     1.0000 0.82640  0.32227  0.03360  Biso   1.000  C
  H655     1.0000 0.78820  0.31660  0.02060  Biso   1.000  H
  H656     1.0000 0.83290  0.29330  0.04670  Biso   1.000  H
  C356     1.0000 0.99100  0.39353  0.07402  Biso   1.000  C
  O51      1.0000 0.84940  0.05170  0.97890  Biso   1.000  O
  N284     1.0000 0.87070  0.97910  0.00110  Biso   1.000  N
  C357     1.0000 0.88750  0.02080  0.98910  Biso   1.000  C
  H657     1.0000 0.93200  0.02810  0.98810  Biso   1.000  H
  C358     1.0000 0.80340  0.96570  0.00390  Biso   1.000  C
  H658     1.0000 0.77760  0.98610  0.99020  Biso   1.000  H
  H659     1.0000 0.79800  0.93150  0.99820  Biso   1.000  H
  H660     1.0000 0.78920  0.97050  0.02510  Biso   1.000  H
  C359     1.0000 0.91590  0.94480  0.01530  Biso   1.000  C
  H661     1.0000 0.89870  0.93360  0.03500  Biso   1.000  H
  H662     1.0000 0.92210  0.91680  0.00170  Biso   1.000  H
  H663     1.0000 0.95710  0.96100  0.01870  Biso   1.000  H
  O52      1.0000 0.95340  0.12200  0.01730  Biso   1.000  O
  C360     1.0000 0.94720  0.14830  0.03960  Biso   1.000  C
  H664     1.0000 0.91830  0.17380  0.03460  Biso   1.000  H
  N285     1.0000 0.99340  0.15920  0.05900  Biso   1.000  N
  C361     1.0000 0.98890  0.20390  0.07730  Biso   1.000  C
  H665     1.0000 0.94920  0.22110  0.07220  Biso   1.000  H
  H666     1.0000 0.98880  0.19560  0.09920  Biso   1.000  H
  H667     1.0000 0.02570  0.22490  0.07280  Biso   1.000  H
  C362     1.0000 0.04860  0.12630  0.06180  Biso   1.000  C
  H668     1.0000 0.04330  0.09880  0.04780  Biso   1.000  H
  H669     1.0000 0.08800  0.14390  0.05670  Biso   1.000  H
  H670     1.0000 0.05130  0.11420  0.08300  Biso   1.000  H
  H671     1.0000 0.05500  0.13130  0.07270  Biso   1.000  H
  Cl77     1.0000 0.86730  0.04130  0.97510  Biso   1.000  Cl
  Cl78     1.0000 0.94360  0.10510  0.02340  Biso   1.000  Cl
  N286     1.0000 0.96400  0.15340  0.06510  Biso   1.000  N
  C363     1.0000 0.94080  0.18820  0.08840  Biso   1.000  C
  C364     1.0000 0.01350  0.12790  0.08290  Biso   1.000  C
  H672     1.0000 0.94720  0.22150  0.08100  Biso   1.000  H
  H673     1.0000 0.96480  0.18360  0.10750  Biso   1.000  H
  H674     1.0000 0.89520  0.18270  0.09220  Biso   1.000  H
  H675     1.0000 0.01600  0.14200  0.10360  Biso   1.000  H
  H676     1.0000 0.00240  0.09340  0.08450  Biso   1.000  H
  Cd53     1.0000 0.43392  0.70694  0.90865  Biso   1.000  Cd
  Cd54     1.0000 0.37726  0.63053  0.97585  Biso   1.000  Cd
  Cl79     1.0000 0.47369  0.62765  0.93875  Biso   1.000  Cl
  N287     1.0000 0.38320  0.74095  0.00331  Biso   1.000  N
  N288     1.0000 0.39540  0.71282  0.97897  Biso   1.000  N
  N289     1.0000 0.41320  0.74024  0.95586  Biso   1.000  N
  N290     1.0000 0.41360  0.78656  0.96400  Biso   1.000  N
  N291     1.0000 0.55220  0.89807  0.06489  Biso   1.000  N
  N292     1.0000 0.58360  0.91541  0.08970  Biso   1.000  N
  N293     1.0000 0.54310  0.91990  0.11218  Biso   1.000  N
  N294     1.0000 0.48410  0.90624  0.10362  Biso   1.000  N
  C365     1.0000 0.39490  0.78606  0.99342  Biso   1.000  C
  C366     1.0000 0.38540  0.83002  0.01314  Biso   1.000  C
  C367     1.0000 0.44480  0.83753  0.03355  Biso   1.000  C
  H677     1.0000 0.45180  0.80840  0.04650  Biso   1.000  H
  H678     1.0000 0.48320  0.84230  0.02050  Biso   1.000  H
  C368     1.0000 0.43460  0.88253  0.05408  Biso   1.000  C
  H679     1.0000 0.38130  0.84630  0.08740  Biso   1.000  H
  H680     1.0000 0.33710  0.87010  0.97960  Biso   1.000  H
  C369     1.0000 0.32640  0.82227  0.03360  Biso   1.000  C
  H681     1.0000 0.28820  0.81660  0.02060  Biso   1.000  H
  H682     1.0000 0.33290  0.79330  0.04670  Biso   1.000  H
  C370     1.0000 0.49100  0.89353  0.07402  Biso   1.000  C
  O53      1.0000 0.34940  0.55170  0.97890  Biso   1.000  O
  N295     1.0000 0.37070  0.47910  0.00110  Biso   1.000  N
  C371     1.0000 0.38750  0.52080  0.98910  Biso   1.000  C
  H683     1.0000 0.43200  0.52810  0.98810  Biso   1.000  H
  C372     1.0000 0.30340  0.46570  0.00390  Biso   1.000  C
  H684     1.0000 0.27760  0.48610  0.99020  Biso   1.000  H
  H685     1.0000 0.29800  0.43150  0.99820  Biso   1.000  H
  H686     1.0000 0.28920  0.47050  0.02510  Biso   1.000  H
  C373     1.0000 0.41590  0.44480  0.01530  Biso   1.000  C
  H687     1.0000 0.39870  0.43360  0.03500  Biso   1.000  H
  H688     1.0000 0.42210  0.41680  0.00170  Biso   1.000  H
  H689     1.0000 0.45710  0.46100  0.01870  Biso   1.000  H
  O54      1.0000 0.45340  0.62200  0.01730  Biso   1.000  O
  C374     1.0000 0.44720  0.64830  0.03960  Biso   1.000  C
  H690     1.0000 0.41830  0.67380  0.03460  Biso   1.000  H
  N296     1.0000 0.49340  0.65920  0.05900  Biso   1.000  N
  C375     1.0000 0.48890  0.70390  0.07730  Biso   1.000  C
  H691     1.0000 0.44920  0.72110  0.07220  Biso   1.000  H
  H692     1.0000 0.48880  0.69560  0.09920  Biso   1.000  H
  H693     1.0000 0.52570  0.72490  0.07280  Biso   1.000  H
  C376     1.0000 0.54860  0.62630  0.06180  Biso   1.000  C
  H694     1.0000 0.54330  0.59880  0.04780  Biso   1.000  H
  H695     1.0000 0.58800  0.64390  0.05670  Biso   1.000  H
  H696     1.0000 0.55130  0.61420  0.08300  Biso   1.000  H
  H697     1.0000 0.55500  0.63130  0.07270  Biso   1.000  H
  Cl80     1.0000 0.36730  0.54130  0.97510  Biso   1.000  Cl
  Cl81     1.0000 0.44360  0.60510  0.02340  Biso   1.000  Cl
  N297     1.0000 0.46400  0.65340  0.06510  Biso   1.000  N
  C377     1.0000 0.44080  0.68820  0.08840  Biso   1.000  C
  C378     1.0000 0.51350  0.62790  0.08290  Biso   1.000  C
  H698     1.0000 0.44720  0.72150  0.08100  Biso   1.000  H
  H699     1.0000 0.46480  0.68360  0.10750  Biso   1.000  H
  H700     1.0000 0.39520  0.68270  0.09220  Biso   1.000  H
  H701     1.0000 0.51600  0.64200  0.10360  Biso   1.000  H
  H702     1.0000 0.50240  0.59340  0.08450  Biso   1.000  H
  Cd55     1.0000 0.43392  0.20694  0.40865  Biso   1.000  Cd
  Cd56     1.0000 0.37726  0.13053  0.47585  Biso   1.000  Cd
  Cl82     1.0000 0.47369  0.12765  0.43875  Biso   1.000  Cl
  N298     1.0000 0.38320  0.24095  0.50331  Biso   1.000  N
  N299     1.0000 0.39540  0.21282  0.47897  Biso   1.000  N
  N300     1.0000 0.41320  0.24024  0.45586  Biso   1.000  N
  N301     1.0000 0.41360  0.28656  0.46400  Biso   1.000  N
  N302     1.0000 0.55220  0.39807  0.56489  Biso   1.000  N
  N303     1.0000 0.58360  0.41541  0.58970  Biso   1.000  N
  N304     1.0000 0.54310  0.41990  0.61218  Biso   1.000  N
  N305     1.0000 0.48410  0.40624  0.60362  Biso   1.000  N
  C379     1.0000 0.39490  0.28606  0.49342  Biso   1.000  C
  C380     1.0000 0.38540  0.33002  0.51314  Biso   1.000  C
  C381     1.0000 0.44480  0.33753  0.53355  Biso   1.000  C
  H703     1.0000 0.45180  0.30840  0.54650  Biso   1.000  H
  H704     1.0000 0.48320  0.34230  0.52050  Biso   1.000  H
  C382     1.0000 0.43460  0.38253  0.55408  Biso   1.000  C
  H705     1.0000 0.38130  0.34630  0.58740  Biso   1.000  H
  H706     1.0000 0.33710  0.37010  0.47960  Biso   1.000  H
  C383     1.0000 0.32640  0.32227  0.53360  Biso   1.000  C
  H707     1.0000 0.28820  0.31660  0.52060  Biso   1.000  H
  H708     1.0000 0.33290  0.29330  0.54670  Biso   1.000  H
  C384     1.0000 0.49100  0.39353  0.57402  Biso   1.000  C
  O55      1.0000 0.34940  0.05170  0.47890  Biso   1.000  O
  N306     1.0000 0.37070  0.97910  0.50110  Biso   1.000  N
  C385     1.0000 0.38750  0.02080  0.48910  Biso   1.000  C
  H709     1.0000 0.43200  0.02810  0.48810  Biso   1.000  H
  C386     1.0000 0.30340  0.96570  0.50390  Biso   1.000  C
  H710     1.0000 0.27760  0.98610  0.49020  Biso   1.000  H
  H711     1.0000 0.29800  0.93150  0.49820  Biso   1.000  H
  H712     1.0000 0.28920  0.97050  0.52510  Biso   1.000  H
  C387     1.0000 0.41590  0.94480  0.51530  Biso   1.000  C
  H713     1.0000 0.39870  0.93360  0.53500  Biso   1.000  H
  H714     1.0000 0.42210  0.91680  0.50170  Biso   1.000  H
  H715     1.0000 0.45710  0.96100  0.51870  Biso   1.000  H
  O56      1.0000 0.45340  0.12200  0.51730  Biso   1.000  O
  C388     1.0000 0.44720  0.14830  0.53960  Biso   1.000  C
  H716     1.0000 0.41830  0.17380  0.53460  Biso   1.000  H
  N307     1.0000 0.49340  0.15920  0.55900  Biso   1.000  N
  C389     1.0000 0.48890  0.20390  0.57730  Biso   1.000  C
  H717     1.0000 0.44920  0.22110  0.57220  Biso   1.000  H
  H718     1.0000 0.48880  0.19560  0.59920  Biso   1.000  H
  H719     1.0000 0.52570  0.22490  0.57280  Biso   1.000  H
  C390     1.0000 0.54860  0.12630  0.56180  Biso   1.000  C
  H720     1.0000 0.54330  0.09880  0.54780  Biso   1.000  H
  H721     1.0000 0.58800  0.14390  0.55670  Biso   1.000  H
  H722     1.0000 0.55130  0.11420  0.58300  Biso   1.000  H
  H723     1.0000 0.55500  0.13130  0.57270  Biso   1.000  H
  Cl83     1.0000 0.36730  0.04130  0.47510  Biso   1.000  Cl
  Cl84     1.0000 0.44360  0.10510  0.52340  Biso   1.000  Cl
  N308     1.0000 0.46400  0.15340  0.56510  Biso   1.000  N
  C391     1.0000 0.44080  0.18820  0.58840  Biso   1.000  C
  C392     1.0000 0.51350  0.12790  0.58290  Biso   1.000  C
  H724     1.0000 0.44720  0.22150  0.58100  Biso   1.000  H
  H725     1.0000 0.46480  0.18360  0.60750  Biso   1.000  H
  H726     1.0000 0.39520  0.18270  0.59220  Biso   1.000  H
  H727     1.0000 0.51600  0.14200  0.60360  Biso   1.000  H
  H728     1.0000 0.50240  0.09340  0.58450  Biso   1.000  H
  Cd57     1.0000 0.31608  0.54306  0.40865  Biso   1.000  Cd
  Cd58     1.0000 0.37274  0.61947  0.47585  Biso   1.000  Cd
  Cl85     1.0000 0.27631  0.62235  0.43875  Biso   1.000  Cl
  N309     1.0000 0.36680  0.50905  0.50331  Biso   1.000  N
  N310     1.0000 0.35460  0.53718  0.47897  Biso   1.000  N
  N311     1.0000 0.33680  0.50976  0.45586  Biso   1.000  N
  N312     1.0000 0.33640  0.46344  0.46400  Biso   1.000  N
  N313     1.0000 0.19780  0.35193  0.56489  Biso   1.000  N
  N314     1.0000 0.16640  0.33459  0.58970  Biso   1.000  N
  N315     1.0000 0.20690  0.33010  0.61218  Biso   1.000  N
  N316     1.0000 0.26590  0.34376  0.60362  Biso   1.000  N
  C393     1.0000 0.35510  0.46394  0.49342  Biso   1.000  C
  C394     1.0000 0.36460  0.41998  0.51314  Biso   1.000  C
  C395     1.0000 0.30520  0.41247  0.53355  Biso   1.000  C
  H729     1.0000 0.29820  0.44160  0.54650  Biso   1.000  H
  H730     1.0000 0.26680  0.40770  0.52050  Biso   1.000  H
  C396     1.0000 0.31540  0.36747  0.55408  Biso   1.000  C
  H731     1.0000 0.36870  0.40370  0.58740  Biso   1.000  H
  H732     1.0000 0.41290  0.37990  0.47960  Biso   1.000  H
  C397     1.0000 0.42360  0.42773  0.53360  Biso   1.000  C
  H733     1.0000 0.46180  0.43340  0.52060  Biso   1.000  H
  H734     1.0000 0.41710  0.45670  0.54670  Biso   1.000  H
  C398     1.0000 0.25900  0.35647  0.57402  Biso   1.000  C
  O57      1.0000 0.40060  0.69830  0.47890  Biso   1.000  O
  N317     1.0000 0.37930  0.77090  0.50110  Biso   1.000  N
  C399     1.0000 0.36250  0.72920  0.48910  Biso   1.000  C
  H735     1.0000 0.31800  0.72190  0.48810  Biso   1.000  H
  C400     1.0000 0.44660  0.78430  0.50390  Biso   1.000  C
  H736     1.0000 0.47240  0.76390  0.49020  Biso   1.000  H
  H737     1.0000 0.45200  0.81850  0.49820  Biso   1.000  H
  H738     1.0000 0.46080  0.77950  0.52510  Biso   1.000  H
  C401     1.0000 0.33410  0.80520  0.51530  Biso   1.000  C
  H739     1.0000 0.35130  0.81640  0.53500  Biso   1.000  H
  H740     1.0000 0.32790  0.83320  0.50170  Biso   1.000  H
  H741     1.0000 0.29290  0.78900  0.51870  Biso   1.000  H
  O58      1.0000 0.29660  0.62800  0.51730  Biso   1.000  O
  C402     1.0000 0.30280  0.60170  0.53960  Biso   1.000  C
  H742     1.0000 0.33170  0.57620  0.53460  Biso   1.000  H
  N318     1.0000 0.25660  0.59080  0.55900  Biso   1.000  N
  C403     1.0000 0.26110  0.54610  0.57730  Biso   1.000  C
  H743     1.0000 0.30080  0.52890  0.57220  Biso   1.000  H
  H744     1.0000 0.26120  0.55440  0.59920  Biso   1.000  H
  H745     1.0000 0.22430  0.52510  0.57280  Biso   1.000  H
  C404     1.0000 0.20140  0.62370  0.56180  Biso   1.000  C
  H746     1.0000 0.20670  0.65120  0.54780  Biso   1.000  H
  H747     1.0000 0.16200  0.60610  0.55670  Biso   1.000  H
  H748     1.0000 0.19870  0.63580  0.58300  Biso   1.000  H
  H749     1.0000 0.19500  0.61870  0.57270  Biso   1.000  H
  Cl86     1.0000 0.38270  0.70870  0.47510  Biso   1.000  Cl
  Cl87     1.0000 0.30640  0.64490  0.52340  Biso   1.000  Cl
  N319     1.0000 0.28600  0.59660  0.56510  Biso   1.000  N
  C405     1.0000 0.30920  0.56180  0.58840  Biso   1.000  C
  C406     1.0000 0.23650  0.62210  0.58290  Biso   1.000  C
  H750     1.0000 0.30280  0.52850  0.58100  Biso   1.000  H
  H751     1.0000 0.28520  0.56640  0.60750  Biso   1.000  H
  H752     1.0000 0.35480  0.56730  0.59220  Biso   1.000  H
  H753     1.0000 0.23400  0.60800  0.60360  Biso   1.000  H
  H754     1.0000 0.24760  0.65660  0.58450  Biso   1.000  H
  Cd59     1.0000 0.31608  0.04306  0.90865  Biso   1.000  Cd
  Cd60     1.0000 0.37274  0.11947  0.97585  Biso   1.000  Cd
  Cl88     1.0000 0.27631  0.12235  0.93875  Biso   1.000  Cl
  N320     1.0000 0.36680  0.00905  0.00331  Biso   1.000  N
  N321     1.0000 0.35460  0.03718  0.97897  Biso   1.000  N
  N322     1.0000 0.33680  0.00976  0.95586  Biso   1.000  N
  N323     1.0000 0.33640  0.96344  0.96400  Biso   1.000  N
  N324     1.0000 0.19780  0.85193  0.06489  Biso   1.000  N
  N325     1.0000 0.16640  0.83459  0.08970  Biso   1.000  N
  N326     1.0000 0.20690  0.83010  0.11218  Biso   1.000  N
  N327     1.0000 0.26590  0.84376  0.10362  Biso   1.000  N
  C407     1.0000 0.35510  0.96394  0.99342  Biso   1.000  C
  C408     1.0000 0.36460  0.91998  0.01314  Biso   1.000  C
  C409     1.0000 0.30520  0.91247  0.03355  Biso   1.000  C
  H755     1.0000 0.29820  0.94160  0.04650  Biso   1.000  H
  H756     1.0000 0.26680  0.90770  0.02050  Biso   1.000  H
  C410     1.0000 0.31540  0.86747  0.05408  Biso   1.000  C
  H757     1.0000 0.36870  0.90370  0.08740  Biso   1.000  H
  H758     1.0000 0.41290  0.87990  0.97960  Biso   1.000  H
  C411     1.0000 0.42360  0.92773  0.03360  Biso   1.000  C
  H759     1.0000 0.46180  0.93340  0.02060  Biso   1.000  H
  H760     1.0000 0.41710  0.95670  0.04670  Biso   1.000  H
  C412     1.0000 0.25900  0.85647  0.07402  Biso   1.000  C
  O59      1.0000 0.40060  0.19830  0.97890  Biso   1.000  O
  N328     1.0000 0.37930  0.27090  0.00110  Biso   1.000  N
  C413     1.0000 0.36250  0.22920  0.98910  Biso   1.000  C
  H761     1.0000 0.31800  0.22190  0.98810  Biso   1.000  H
  C414     1.0000 0.44660  0.28430  0.00390  Biso   1.000  C
  H762     1.0000 0.47240  0.26390  0.99020  Biso   1.000  H
  H763     1.0000 0.45200  0.31850  0.99820  Biso   1.000  H
  H764     1.0000 0.46080  0.27950  0.02510  Biso   1.000  H
  C415     1.0000 0.33410  0.30520  0.01530  Biso   1.000  C
  H765     1.0000 0.35130  0.31640  0.03500  Biso   1.000  H
  H766     1.0000 0.32790  0.33320  0.00170  Biso   1.000  H
  H767     1.0000 0.29290  0.28900  0.01870  Biso   1.000  H
  O60      1.0000 0.29660  0.12800  0.01730  Biso   1.000  O
  C416     1.0000 0.30280  0.10170  0.03960  Biso   1.000  C
  H768     1.0000 0.33170  0.07620  0.03460  Biso   1.000  H
  N329     1.0000 0.25660  0.09080  0.05900  Biso   1.000  N
  C417     1.0000 0.26110  0.04610  0.07730  Biso   1.000  C
  H769     1.0000 0.30080  0.02890  0.07220  Biso   1.000  H
  H770     1.0000 0.26120  0.05440  0.09920  Biso   1.000  H
  H771     1.0000 0.22430  0.02510  0.07280  Biso   1.000  H
  C418     1.0000 0.20140  0.12370  0.06180  Biso   1.000  C
  H772     1.0000 0.20670  0.15120  0.04780  Biso   1.000  H
  H773     1.0000 0.16200  0.10610  0.05670  Biso   1.000  H
  H774     1.0000 0.19870  0.13580  0.08300  Biso   1.000  H
  H775     1.0000 0.19500  0.11870  0.07270  Biso   1.000  H
  Cl89     1.0000 0.38270  0.20870  0.97510  Biso   1.000  Cl
  Cl90     1.0000 0.30640  0.14490  0.02340  Biso   1.000  Cl
  N330     1.0000 0.28600  0.09660  0.06510  Biso   1.000  N
  C419     1.0000 0.30920  0.06180  0.08840  Biso   1.000  C
  C420     1.0000 0.23650  0.12210  0.08290  Biso   1.000  C
  H776     1.0000 0.30280  0.02850  0.08100  Biso   1.000  H
  H777     1.0000 0.28520  0.06640  0.10750  Biso   1.000  H
  H778     1.0000 0.35480  0.06730  0.09220  Biso   1.000  H
  H779     1.0000 0.23400  0.10800  0.10360  Biso   1.000  H
  H780     1.0000 0.24760  0.15660  0.08450  Biso   1.000  H
  Cd61     1.0000 0.81608  0.54306  0.90865  Biso   1.000  Cd
  Cd62     1.0000 0.87274  0.61947  0.97585  Biso   1.000  Cd
  Cl91     1.0000 0.77631  0.62235  0.93875  Biso   1.000  Cl
  N331     1.0000 0.86680  0.50905  0.00331  Biso   1.000  N
  N332     1.0000 0.85460  0.53718  0.97897  Biso   1.000  N
  N333     1.0000 0.83680  0.50976  0.95586  Biso   1.000  N
  N334     1.0000 0.83640  0.46344  0.96400  Biso   1.000  N
  N335     1.0000 0.69780  0.35193  0.06489  Biso   1.000  N
  N336     1.0000 0.66640  0.33459  0.08970  Biso   1.000  N
  N337     1.0000 0.70690  0.33010  0.11218  Biso   1.000  N
  N338     1.0000 0.76590  0.34376  0.10362  Biso   1.000  N
  C421     1.0000 0.85510  0.46394  0.99342  Biso   1.000  C
  C422     1.0000 0.86460  0.41998  0.01314  Biso   1.000  C
  C423     1.0000 0.80520  0.41247  0.03355  Biso   1.000  C
  H781     1.0000 0.79820  0.44160  0.04650  Biso   1.000  H
  H782     1.0000 0.76680  0.40770  0.02050  Biso   1.000  H
  C424     1.0000 0.81540  0.36747  0.05408  Biso   1.000  C
  H783     1.0000 0.86870  0.40370  0.08740  Biso   1.000  H
  H784     1.0000 0.91290  0.37990  0.97960  Biso   1.000  H
  C425     1.0000 0.92360  0.42773  0.03360  Biso   1.000  C
  H785     1.0000 0.96180  0.43340  0.02060  Biso   1.000  H
  H786     1.0000 0.91710  0.45670  0.04670  Biso   1.000  H
  C426     1.0000 0.75900  0.35647  0.07402  Biso   1.000  C
  O61      1.0000 0.90060  0.69830  0.97890  Biso   1.000  O
  N339     1.0000 0.87930  0.77090  0.00110  Biso   1.000  N
  C427     1.0000 0.86250  0.72920  0.98910  Biso   1.000  C
  H787     1.0000 0.81800  0.72190  0.98810  Biso   1.000  H
  C428     1.0000 0.94660  0.78430  0.00390  Biso   1.000  C
  H788     1.0000 0.97240  0.76390  0.99020  Biso   1.000  H
  H789     1.0000 0.95200  0.81850  0.99820  Biso   1.000  H
  H790     1.0000 0.96080  0.77950  0.02510  Biso   1.000  H
  C429     1.0000 0.83410  0.80520  0.01530  Biso   1.000  C
  H791     1.0000 0.85130  0.81640  0.03500  Biso   1.000  H
  H792     1.0000 0.82790  0.83320  0.00170  Biso   1.000  H
  H793     1.0000 0.79290  0.78900  0.01870  Biso   1.000  H
  O62      1.0000 0.79660  0.62800  0.01730  Biso   1.000  O
  C430     1.0000 0.80280  0.60170  0.03960  Biso   1.000  C
  H794     1.0000 0.83170  0.57620  0.03460  Biso   1.000  H
  N340     1.0000 0.75660  0.59080  0.05900  Biso   1.000  N
  C431     1.0000 0.76110  0.54610  0.07730  Biso   1.000  C
  H795     1.0000 0.80080  0.52890  0.07220  Biso   1.000  H
  H796     1.0000 0.76120  0.55440  0.09920  Biso   1.000  H
  H797     1.0000 0.72430  0.52510  0.07280  Biso   1.000  H
  C432     1.0000 0.70140  0.62370  0.06180  Biso   1.000  C
  H798     1.0000 0.70670  0.65120  0.04780  Biso   1.000  H
  H799     1.0000 0.66200  0.60610  0.05670  Biso   1.000  H
  H800     1.0000 0.69870  0.63580  0.08300  Biso   1.000  H
  H801     1.0000 0.69500  0.61870  0.07270  Biso   1.000  H
  Cl92     1.0000 0.88270  0.70870  0.97510  Biso   1.000  Cl
  Cl93     1.0000 0.80640  0.64490  0.02340  Biso   1.000  Cl
  N341     1.0000 0.78600  0.59660  0.06510  Biso   1.000  N
  C433     1.0000 0.80920  0.56180  0.08840  Biso   1.000  C
  C434     1.0000 0.73650  0.62210  0.08290  Biso   1.000  C
  H802     1.0000 0.80280  0.52850  0.08100  Biso   1.000  H
  H803     1.0000 0.78520  0.56640  0.10750  Biso   1.000  H
  H804     1.0000 0.85480  0.56730  0.09220  Biso   1.000  H
  H805     1.0000 0.73400  0.60800  0.10360  Biso   1.000  H
  H806     1.0000 0.74760  0.65660  0.08450  Biso   1.000  H
  Cd63     1.0000 0.81608  0.04306  0.40865  Biso   1.000  Cd
  Cd64     1.0000 0.87274  0.11947  0.47585  Biso   1.000  Cd
  Cl94     1.0000 0.77631  0.12235  0.43875  Biso   1.000  Cl
  N342     1.0000 0.86680  0.00905  0.50331  Biso   1.000  N
  N343     1.0000 0.85460  0.03718  0.47897  Biso   1.000  N
  N344     1.0000 0.83680  0.00976  0.45586  Biso   1.000  N
  N345     1.0000 0.83640  0.96344  0.46400  Biso   1.000  N
  N346     1.0000 0.69780  0.85193  0.56489  Biso   1.000  N
  N347     1.0000 0.66640  0.83459  0.58970  Biso   1.000  N
  N348     1.0000 0.70690  0.83010  0.61218  Biso   1.000  N
  N349     1.0000 0.76590  0.84376  0.60362  Biso   1.000  N
  C435     1.0000 0.85510  0.96394  0.49342  Biso   1.000  C
  C436     1.0000 0.86460  0.91998  0.51314  Biso   1.000  C
  C437     1.0000 0.80520  0.91247  0.53355  Biso   1.000  C
  H807     1.0000 0.79820  0.94160  0.54650  Biso   1.000  H
  H808     1.0000 0.76680  0.90770  0.52050  Biso   1.000  H
  C438     1.0000 0.81540  0.86747  0.55408  Biso   1.000  C
  H809     1.0000 0.86870  0.90370  0.58740  Biso   1.000  H
  H810     1.0000 0.91290  0.87990  0.47960  Biso   1.000  H
  C439     1.0000 0.92360  0.92773  0.53360  Biso   1.000  C
  H811     1.0000 0.96180  0.93340  0.52060  Biso   1.000  H
  H812     1.0000 0.91710  0.95670  0.54670  Biso   1.000  H
  C440     1.0000 0.75900  0.85647  0.57402  Biso   1.000  C
  O63      1.0000 0.90060  0.19830  0.47890  Biso   1.000  O
  N350     1.0000 0.87930  0.27090  0.50110  Biso   1.000  N
  C441     1.0000 0.86250  0.22920  0.48910  Biso   1.000  C
  H813     1.0000 0.81800  0.22190  0.48810  Biso   1.000  H
  C442     1.0000 0.94660  0.28430  0.50390  Biso   1.000  C
  H814     1.0000 0.97240  0.26390  0.49020  Biso   1.000  H
  H815     1.0000 0.95200  0.31850  0.49820  Biso   1.000  H
  H816     1.0000 0.96080  0.27950  0.52510  Biso   1.000  H
  C443     1.0000 0.83410  0.30520  0.51530  Biso   1.000  C
  H817     1.0000 0.85130  0.31640  0.53500  Biso   1.000  H
  H818     1.0000 0.82790  0.33320  0.50170  Biso   1.000  H
  H819     1.0000 0.79290  0.28900  0.51870  Biso   1.000  H
  O64      1.0000 0.79660  0.12800  0.51730  Biso   1.000  O
  C444     1.0000 0.80280  0.10170  0.53960  Biso   1.000  C
  H820     1.0000 0.83170  0.07620  0.53460  Biso   1.000  H
  N351     1.0000 0.75660  0.09080  0.55900  Biso   1.000  N
  C445     1.0000 0.76110  0.04610  0.57730  Biso   1.000  C
  H821     1.0000 0.80080  0.02890  0.57220  Biso   1.000  H
  H822     1.0000 0.76120  0.05440  0.59920  Biso   1.000  H
  H823     1.0000 0.72430  0.02510  0.57280  Biso   1.000  H
  C446     1.0000 0.70140  0.12370  0.56180  Biso   1.000  C
  H824     1.0000 0.70670  0.15120  0.54780  Biso   1.000  H
  H825     1.0000 0.66200  0.10610  0.55670  Biso   1.000  H
  H826     1.0000 0.69870  0.13580  0.58300  Biso   1.000  H
  H827     1.0000 0.69500  0.11870  0.57270  Biso   1.000  H
  Cl95     1.0000 0.88270  0.20870  0.47510  Biso   1.000  Cl
  Cl96     1.0000 0.80640  0.14490  0.52340  Biso   1.000  Cl
  N352     1.0000 0.78600  0.09660  0.56510  Biso   1.000  N
  C447     1.0000 0.80920  0.06180  0.58840  Biso   1.000  C
  C448     1.0000 0.73650  0.12210  0.58290  Biso   1.000  C
  H828     1.0000 0.80280  0.02850  0.58100  Biso   1.000  H
  H829     1.0000 0.78520  0.06640  0.60750  Biso   1.000  H
  H830     1.0000 0.85480  0.06730  0.59220  Biso   1.000  H
  H831     1.0000 0.73400  0.10800  0.60360  Biso   1.000  H
  H832     1.0000 0.74760  0.15660  0.58450  Biso   1.000  H
  Cl97     1.0000 0.62500  0.22842  0.12500  Biso   1.000  Cl
  Cl98     1.0000 0.62500  0.72842  0.62500  Biso   1.000  Cl
  Cl99     1.0000 0.12500  0.52158  0.12500  Biso   1.000  Cl
  Cl100    1.0000 0.12500  0.02158  0.62500  Biso   1.000  Cl
  Cl101    1.0000 0.62500  0.52158  0.62500  Biso   1.000  Cl
  Cl102    1.0000 0.12500  0.22842  0.62500  Biso   1.000  Cl
  Cl103    1.0000 0.12500  0.72842  0.12500  Biso   1.000  Cl
  Cl104    1.0000 0.62500  0.02158  0.12500  Biso   1.000  Cl
  Cl105    1.0000 0.37500  0.77158  0.87500  Biso   1.000  Cl
  Cl106    1.0000 0.37500  0.27158  0.37500  Biso   1.000  Cl
  Cl107    1.0000 0.87500  0.47842  0.87500  Biso   1.000  Cl
  Cl108    1.0000 0.87500  0.97842  0.37500  Biso   1.000  Cl
  Cl109    1.0000 0.87500  0.77158  0.37500  Biso   1.000  Cl
  Cl110    1.0000 0.87500  0.27158  0.87500  Biso   1.000  Cl
  Cl111    1.0000 0.37500  0.47842  0.37500  Biso   1.000  Cl
  Cl112    1.0000 0.37500  0.97842  0.87500  Biso   1.000  Cl
  C449     1.0000 0.62500  0.12500  0.32408  Biso   1.000  C
  C450     1.0000 0.62500  0.12500  0.24288  Biso   1.000  C
  C451     1.0000 0.62500  0.62500  0.82408  Biso   1.000  C
  C452     1.0000 0.62500  0.62500  0.74288  Biso   1.000  C
  C453     1.0000 0.12500  0.62500  0.32408  Biso   1.000  C
  C454     1.0000 0.12500  0.62500  0.24288  Biso   1.000  C
  C455     1.0000 0.12500  0.12500  0.82408  Biso   1.000  C
  C456     1.0000 0.12500  0.12500  0.74288  Biso   1.000  C
  C457     1.0000 0.12500  0.12500  0.42592  Biso   1.000  C
  C458     1.0000 0.12500  0.12500  0.50712  Biso   1.000  C
  C459     1.0000 0.12500  0.62500  0.92592  Biso   1.000  C
  C460     1.0000 0.12500  0.62500  0.00712  Biso   1.000  C
  C461     1.0000 0.62500  0.62500  0.42592  Biso   1.000  C
  C462     1.0000 0.62500  0.62500  0.50712  Biso   1.000  C
  C463     1.0000 0.62500  0.12500  0.92592  Biso   1.000  C
  C464     1.0000 0.62500  0.12500  0.00712  Biso   1.000  C
  C465     1.0000 0.37500  0.87500  0.67592  Biso   1.000  C
  C466     1.0000 0.37500  0.87500  0.75712  Biso   1.000  C
  C467     1.0000 0.37500  0.37500  0.17592  Biso   1.000  C
  C468     1.0000 0.37500  0.37500  0.25712  Biso   1.000  C
  C469     1.0000 0.87500  0.37500  0.67592  Biso   1.000  C
  C470     1.0000 0.87500  0.37500  0.75712  Biso   1.000  C
  C471     1.0000 0.87500  0.87500  0.17592  Biso   1.000  C
  C472     1.0000 0.87500  0.87500  0.25712  Biso   1.000  C
  C473     1.0000 0.87500  0.87500  0.57408  Biso   1.000  C
  C474     1.0000 0.87500  0.87500  0.49288  Biso   1.000  C
  C475     1.0000 0.87500  0.37500  0.07408  Biso   1.000  C
  C476     1.0000 0.87500  0.37500  0.99288  Biso   1.000  C
  C477     1.0000 0.37500  0.37500  0.57408  Biso   1.000  C
  C478     1.0000 0.37500  0.37500  0.49288  Biso   1.000  C
  C479     1.0000 0.37500  0.87500  0.07408  Biso   1.000  C
  C480     1.0000 0.37500  0.87500  0.99288  Biso   1.000  C
