data_image0
_cell_length_a       10.7402
_cell_length_b       28.559
_cell_length_c       42.642
_cell_angle_alpha    90
_cell_angle_beta     90
_cell_angle_gamma    90

_symmetry_space_group_name_H-M    "P 1"
_symmetry_int_tables_number       1

loop_
  _symmetry_equiv_pos_as_xyz
  'x, y, z'

loop_
  _atom_site_label
  _atom_site_occupancy
  _atom_site_fract_x
  _atom_site_fract_y
  _atom_site_fract_z
  _atom_site_thermal_displace_type
  _atom_site_B_iso_or_equiv
  _atom_site_type_symbol
  C1       1.0000 0.75770  0.99810  0.41430  Biso   1.000  C
  C2       1.0000 0.70620  0.03780  0.43270  Biso   1.000  C
  C3       1.0000 0.73030  0.08350  0.42260  Biso   1.000  C
  H1       1.0000 0.77930  0.08880  0.40440  Biso   1.000  H
  C4       1.0000 0.68300  0.12080  0.43910  Biso   1.000  C
  C5       1.0000 0.70400  0.17020  0.42748  Biso   1.000  C
  C6       1.0000 0.61330  0.11380  0.46640  Biso   1.000  C
  H2       1.0000 0.58250  0.13960  0.47810  Biso   1.000  H
  C7       1.0000 0.59000  0.06770  0.47600  Biso   1.000  C
  C8       1.0000 0.63450  0.03010  0.45870  Biso   1.000  C
  H3       1.0000 0.61520  0.99900  0.46490  Biso   1.000  H
  C9       1.0000 0.51100  0.08920  0.52440  Biso   1.000  C
  H4       1.0000 0.48260  0.07660  0.54460  Biso   1.000  H
  H5       1.0000 0.44150  0.10530  0.51400  Biso   1.000  H
  H6       1.0000 0.57900  0.11140  0.52790  Biso   1.000  H
  C10      1.0000 0.55090  0.30210  0.37469  Biso   1.000  C
  C11      1.0000 0.43660  0.30850  0.35460  Biso   1.000  C
  C12      1.0000 0.32460  0.28800  0.36330  Biso   1.000  C
  H7       1.0000 0.32090  0.26810  0.38120  Biso   1.000  H
  C13      1.0000 0.21840  0.29650  0.34580  Biso   1.000  C
  C14      1.0000 0.09360  0.27790  0.35620  Biso   1.000  C
  C15      1.0000 0.21590  0.33810  0.32320  Biso   1.000  C
  H8       1.0000 0.14040  0.34880  0.31400  Biso   1.000  H
  C16      1.0000 0.32530  0.35900  0.31680  Biso   1.000  C
  C17      1.0000 0.43380  0.34630  0.33270  Biso   1.000  C
  H9       1.0000 0.50820  0.36340  0.32880  Biso   1.000  H
  C18      1.0000 0.23600  0.41710  0.28220  Biso   1.000  C
  C19      1.0000 0.67240  0.34350  0.46130  Biso   1.000  C
  C20      1.0000 0.63820  0.37340  0.48860  Biso   1.000  C
  C21      1.0000 0.59210  0.35270  0.51640  Biso   1.000  C
  H10      1.0000 0.57900  0.31990  0.51740  Biso   1.000  H
  C22      1.0000 0.56640  0.38040  0.54190  Biso   1.000  C
  C23      1.0000 0.53060  0.35850  0.57270  Biso   1.000  C
  C24      1.0000 0.60300  0.43040  0.54040  Biso   1.000  C
  H11      1.0000 0.59560  0.44960  0.55850  Biso   1.000  H
  C25      1.0000 0.64800  0.44860  0.51390  Biso   1.000  C
  C26      1.0000 0.68500  0.41940  0.48810  Biso   1.000  C
  H12      1.0000 0.73860  0.43040  0.47190  Biso   1.000  H
  C27      1.0000 0.65700  0.52670  0.53410  Biso   1.000  C
  H13      1.0000 0.68520  0.55800  0.52790  Biso   1.000  H
  H14      1.0000 0.70160  0.51690  0.55310  Biso   1.000  H
  H15      1.0000 0.56750  0.52730  0.53830  Biso   1.000  H
  C28      1.0000 0.27600  0.29700  0.66344  Biso   1.000  C
  C29      1.0000 0.19560  0.33400  0.67730  Biso   1.000  C
  C30      1.0000 0.22840  0.38110  0.67260  Biso   1.000  C
  H16      1.0000 0.30400  0.38800  0.66200  Biso   1.000  H
  C31      1.0000 0.15500  0.41740  0.68280  Biso   1.000  C
  C32      1.0000 0.19180  0.46780  0.67470  Biso   1.000  C
  C33      1.0000 0.04960  0.40590  0.69810  Biso   1.000  C
  H17      1.0000 0.99650  0.43050  0.70490  Biso   1.000  H
  C34      1.0000 0.01270  0.35800  0.70470  Biso   1.000  C
  C35      1.0000 0.08730  0.32200  0.69340  Biso   1.000  C
  H18      1.0000 0.06510  0.29010  0.69660  Biso   1.000  H
  C36      1.0000 0.81600  0.38700  0.72650  Biso   1.000  C
  H19      1.0000 0.74370  0.37460  0.73770  Biso   1.000  H
  H20      1.0000 0.78910  0.40080  0.70660  Biso   1.000  H
  H21      1.0000 0.85700  0.41090  0.73930  Biso   1.000  H
  C37      1.0000 0.01660  0.60920  0.61940  Biso   1.000  C
  C38      1.0000 0.90200  0.62020  0.60170  Biso   1.000  C
  C39      1.0000 0.78970  0.59830  0.60940  Biso   1.000  C
  H22      1.0000 0.78690  0.57590  0.62590  Biso   1.000  H
  C40      1.0000 0.68300  0.60930  0.59300  Biso   1.000  C
  C41      1.0000 0.56170  0.58670  0.60220  Biso   1.000  C
  C42      1.0000 0.68530  0.64230  0.56910  Biso   1.000  C
  H23      1.0000 0.61110  0.64970  0.55800  Biso   1.000  H
  C43      1.0000 0.79460  0.66440  0.56160  Biso   1.000  C
  C44      1.0000 0.90390  0.65280  0.57780  Biso   1.000  C
  H24      1.0000 0.98020  0.66750  0.57230  Biso   1.000  H
  C45      1.0000 0.70160  0.70690  0.51990  Biso   1.000  C
  H25      1.0000 0.63140  0.68770  0.52690  Biso   1.000  H
  H26      1.0000 0.71920  0.70040  0.49780  Biso   1.000  H
  H27      1.0000 0.68070  0.74010  0.52240  Biso   1.000  H
  C46      1.0000 0.14140  0.63640  0.70408  Biso   1.000  C
  C47      1.0000 0.06980  0.66360  0.72811  Biso   1.000  C
  C48      1.0000 0.07360  0.71290  0.72810  Biso   1.000  C
  C49      1.0000 0.02490  0.73620  0.74970  Biso   1.000  C
  C50      1.0000 0.99100  0.81180  0.77340  Biso   1.000  C
  O1       1.0000 0.71200  0.95817  0.41809  Biso   1.000  O
  O2       1.0000 0.83790  0.27179  0.39994  Biso   1.000  O
  O3       1.0000 0.84620  0.00800  0.39620  Biso   1.000  O
  O4       1.0000 0.30840  0.57435  0.64483  Biso   1.000  O
  O5       1.0000 0.75500  0.17550  0.40180  Biso   1.000  O
  O6       1.0000 0.66240  0.20290  0.44439  Biso   1.000  O
  O7       1.0000 0.55000  0.05470  0.50650  Biso   1.000  O
  O8       1.0000 0.54460  0.27270  0.39619  Biso   1.000  O
  O9       1.0000 0.64360  0.32797  0.36866  Biso   1.000  O
  O10      1.0000 0.09180  0.24450  0.37555  Biso   1.000  O
  O11      1.0000 0.99940  0.29800  0.34501  Biso   1.000  O
  O12      1.0000 0.34120  0.39590  0.29570  Biso   1.000  O
  O13      1.0000 0.63700  0.30120  0.46244  Biso   1.000  O
  O14      1.0000 0.73930  0.35900  0.43941  Biso   1.000  O
  O15      1.0000 0.49270  0.31620  0.57125  Biso   1.000  O
  O16      1.0000 0.54110  0.38080  0.59781  Biso   1.000  O
  O17      1.0000 0.68200  0.49540  0.51020  Biso   1.000  O
  O18      1.0000 0.37980  0.30920  0.65245  Biso   1.000  O
  O19      1.0000 0.23520  0.25575  0.66399  Biso   1.000  O
  O20      1.0000 0.29000  0.47200  0.66080  Biso   1.000  O
  O21      1.0000 0.11260  0.49510  0.67660  Biso   1.000  O
  O22      1.0000 0.90540  0.34820  0.72010  Biso   1.000  O
  O23      1.0000 0.01100  0.57690  0.63973  Biso   1.000  O
  O24      1.0000 0.11630  0.63180  0.61375  Biso   1.000  O
  O25      1.0000 0.56890  0.55500  0.62290  Biso   1.000  O
  O26      1.0000 0.46680  0.60030  0.58890  Biso   1.000  O
  O27      1.0000 0.80540  0.69650  0.53774  Biso   1.000  O
  O28      1.0000 0.12820  0.59210  0.70515  Biso   1.000  O
  O29      1.0000 0.20670  0.65630  0.68366  Biso   1.000  O
  O30      1.0000 0.03760  0.78460  0.74840  Biso   1.000  O
  Zn1      1.0000 0.92914  0.98155  0.35801  Biso   1.000  Zn
  Zn2      1.0000 0.68615  0.26415  0.42564  Biso   1.000  Zn
  Zn3      1.0000 0.43194  0.28819  0.60983  Biso   1.000  Zn
  Zn4      1.0000 0.31629  0.19882  0.64469  Biso   1.000  Zn
  Zn5      1.0000 0.15271  0.55830  0.66575  Biso   1.000  Zn
  Zn6      1.0000 0.28623  0.60079  0.59965  Biso   1.000  Zn
  H28      1.0000 0.04800  0.48800  0.69080  Biso   1.000  H
  C51      1.0000 0.45000  0.09660  0.51700  Biso   1.000  C
  H29      1.0000 0.38610  0.08480  0.53150  Biso   1.000  H
  H30      1.0000 0.41240  0.11980  0.50290  Biso   1.000  H
  H31      1.0000 0.51720  0.11120  0.52900  Biso   1.000  H
  C52      1.0000 0.23190  0.31290  0.31650  Biso   1.000  C
  H32      1.0000 0.16180  0.31370  0.30290  Biso   1.000  H
  C53      1.0000 0.34800  0.32900  0.30540  Biso   1.000  C
  C54      1.0000 0.45220  0.32520  0.32410  Biso   1.000  C
  H33      1.0000 0.53210  0.33370  0.31640  Biso   1.000  H
  C55      1.0000 0.46100  0.36530  0.26170  Biso   1.000  C
  C56      1.0000 0.55700  0.42830  0.54040  Biso   1.000  C
  H34      1.0000 0.52580  0.44600  0.55750  Biso   1.000  H
  C57      1.0000 0.59600  0.45020  0.51240  Biso   1.000  C
  C58      1.0000 0.63100  0.42270  0.48640  Biso   1.000  C
  H35      1.0000 0.65040  0.43750  0.46700  Biso   1.000  H
  C59      1.0000 0.58500  0.52590  0.53280  Biso   1.000  C
  H36      1.0000 0.59660  0.55900  0.52740  Biso   1.000  H
  H37      1.0000 0.64170  0.51750  0.54990  Biso   1.000  H
  H38      1.0000 0.49880  0.52070  0.53940  Biso   1.000  H
  C60      1.0000 0.86740  0.30340  0.72560  Biso   1.000  C
  H39      1.0000 0.78800  0.30390  0.73690  Biso   1.000  H
  H40      1.0000 0.93010  0.28720  0.73830  Biso   1.000  H
  H41      1.0000 0.85680  0.28700  0.70560  Biso   1.000  H
  C61      1.0000 0.94400  0.81270  0.77030  Biso   1.000  C
  O31      1.0000 0.49860  0.05830  0.49880  Biso   1.000  O
  O32      1.0000 0.34510  0.35010  0.27570  Biso   1.000  O
  O33      1.0000 0.61140  0.49780  0.50620  Biso   1.000  O
  O34      1.0000 0.30540  0.47720  0.67530  Biso   1.000  O
  O35      1.0000 0.21300  0.43890  0.30800  Biso   1.000  O
  H42      1.0000 0.97400  0.70040  0.52300  Biso   1.000  H
  H43      1.0000 0.88450  0.74130  0.51070  Biso   1.000  H
  H44      1.0000 0.93330  0.74180  0.54610  Biso   1.000  H
  C62      1.0000 0.90600  0.72180  0.52880  Biso   1.000  C
  C63      1.0000 0.74230  0.50190  0.91430  Biso   1.000  C
  C64      1.0000 0.79380  0.46220  0.93270  Biso   1.000  C
  C65      1.0000 0.76970  0.41650  0.92260  Biso   1.000  C
  H45      1.0000 0.72070  0.41120  0.90440  Biso   1.000  H
  C66      1.0000 0.81700  0.37920  0.93910  Biso   1.000  C
  C67      1.0000 0.79600  0.32980  0.92748  Biso   1.000  C
  C68      1.0000 0.88670  0.38620  0.96640  Biso   1.000  C
  H46      1.0000 0.91750  0.36040  0.97810  Biso   1.000  H
  C69      1.0000 0.91000  0.43230  0.97600  Biso   1.000  C
  C70      1.0000 0.86550  0.46990  0.95870  Biso   1.000  C
  H47      1.0000 0.88480  0.50100  0.96490  Biso   1.000  H
  C71      1.0000 0.98900  0.41080  0.02440  Biso   1.000  C
  H48      1.0000 0.01740  0.42340  0.04460  Biso   1.000  H
  H49      1.0000 0.05850  0.39470  0.01400  Biso   1.000  H
  H50      1.0000 0.92100  0.38860  0.02790  Biso   1.000  H
  C72      1.0000 0.94910  0.19790  0.87469  Biso   1.000  C
  C73      1.0000 0.06340  0.19150  0.85460  Biso   1.000  C
  C74      1.0000 0.17540  0.21200  0.86330  Biso   1.000  C
  H51      1.0000 0.17910  0.23190  0.88120  Biso   1.000  H
  C75      1.0000 0.28160  0.20350  0.84580  Biso   1.000  C
  C76      1.0000 0.40640  0.22210  0.85620  Biso   1.000  C
  C77      1.0000 0.28410  0.16190  0.82320  Biso   1.000  C
  H52      1.0000 0.35960  0.15120  0.81400  Biso   1.000  H
  C78      1.0000 0.17470  0.14100  0.81680  Biso   1.000  C
  C79      1.0000 0.06620  0.15370  0.83270  Biso   1.000  C
  H53      1.0000 0.99180  0.13660  0.82880  Biso   1.000  H
  C80      1.0000 0.26400  0.08290  0.78220  Biso   1.000  C
  C81      1.0000 0.82760  0.15650  0.96130  Biso   1.000  C
  C82      1.0000 0.86180  0.12660  0.98860  Biso   1.000  C
  C83      1.0000 0.90790  0.14730  0.01640  Biso   1.000  C
  H54      1.0000 0.92100  0.18010  0.01740  Biso   1.000  H
  C84      1.0000 0.93360  0.11960  0.04190  Biso   1.000  C
  C85      1.0000 0.96940  0.14150  0.07270  Biso   1.000  C
  C86      1.0000 0.89700  0.06960  0.04040  Biso   1.000  C
  H55      1.0000 0.90440  0.05040  0.05850  Biso   1.000  H
  C87      1.0000 0.85200  0.05140  0.01390  Biso   1.000  C
  C88      1.0000 0.81500  0.08060  0.98810  Biso   1.000  C
  H56      1.0000 0.76140  0.06960  0.97190  Biso   1.000  H
  C89      1.0000 0.84300  0.97330  0.03410  Biso   1.000  C
  H57      1.0000 0.81480  0.94200  0.02790  Biso   1.000  H
  H58      1.0000 0.79840  0.98310  0.05310  Biso   1.000  H
  H59      1.0000 0.93250  0.97270  0.03830  Biso   1.000  H
  C90      1.0000 0.22400  0.20300  0.16344  Biso   1.000  C
  C91      1.0000 0.30440  0.16600  0.17730  Biso   1.000  C
  C92      1.0000 0.27160  0.11890  0.17260  Biso   1.000  C
  H60      1.0000 0.19600  0.11200  0.16200  Biso   1.000  H
  C93      1.0000 0.34500  0.08260  0.18280  Biso   1.000  C
  C94      1.0000 0.30820  0.03220  0.17470  Biso   1.000  C
  C95      1.0000 0.45040  0.09410  0.19810  Biso   1.000  C
  H61      1.0000 0.50350  0.06950  0.20490  Biso   1.000  H
  C96      1.0000 0.48730  0.14200  0.20470  Biso   1.000  C
  C97      1.0000 0.41270  0.17800  0.19340  Biso   1.000  C
  H62      1.0000 0.43490  0.20990  0.19660  Biso   1.000  H
  C98      1.0000 0.68400  0.11300  0.22650  Biso   1.000  C
  H63      1.0000 0.75630  0.12540  0.23770  Biso   1.000  H
  H64      1.0000 0.71090  0.09920  0.20660  Biso   1.000  H
  H65      1.0000 0.64300  0.08910  0.23930  Biso   1.000  H
  C99      1.0000 0.48340  0.89080  0.11940  Biso   1.000  C
  C100     1.0000 0.59800  0.87980  0.10170  Biso   1.000  C
  C101     1.0000 0.71030  0.90170  0.10940  Biso   1.000  C
  H66      1.0000 0.71310  0.92410  0.12590  Biso   1.000  H
  C102     1.0000 0.81700  0.89070  0.09300  Biso   1.000  C
  C103     1.0000 0.93830  0.91330  0.10220  Biso   1.000  C
  C104     1.0000 0.81470  0.85770  0.06910  Biso   1.000  C
  H67      1.0000 0.88890  0.85030  0.05800  Biso   1.000  H
  C105     1.0000 0.70540  0.83560  0.06160  Biso   1.000  C
  C106     1.0000 0.59610  0.84720  0.07780  Biso   1.000  C
  H68      1.0000 0.51980  0.83250  0.07230  Biso   1.000  H
  C107     1.0000 0.79840  0.79310  0.01990  Biso   1.000  C
  H69      1.0000 0.86860  0.81230  0.02690  Biso   1.000  H
  H70      1.0000 0.78080  0.79960  0.99780  Biso   1.000  H
  H71      1.0000 0.81930  0.75990  0.02240  Biso   1.000  H
  C108     1.0000 0.35860  0.86360  0.20408  Biso   1.000  C
  C109     1.0000 0.43020  0.83640  0.22811  Biso   1.000  C
  C110     1.0000 0.42640  0.78710  0.22810  Biso   1.000  C
  C111     1.0000 0.47510  0.76380  0.24970  Biso   1.000  C
  C112     1.0000 0.50900  0.68820  0.27340  Biso   1.000  C
  O36      1.0000 0.78800  0.54183  0.91809  Biso   1.000  O
  O37      1.0000 0.66210  0.22821  0.89994  Biso   1.000  O
  O38      1.0000 0.65380  0.49200  0.89620  Biso   1.000  O
  O39      1.0000 0.19160  0.92565  0.14483  Biso   1.000  O
  O40      1.0000 0.74500  0.32450  0.90180  Biso   1.000  O
  O41      1.0000 0.83760  0.29710  0.94439  Biso   1.000  O
  O42      1.0000 0.95000  0.44530  0.00650  Biso   1.000  O
  O43      1.0000 0.95540  0.22730  0.89619  Biso   1.000  O
  O44      1.0000 0.85640  0.17203  0.86866  Biso   1.000  O
  O45      1.0000 0.40820  0.25550  0.87555  Biso   1.000  O
  O46      1.0000 0.50060  0.20200  0.84501  Biso   1.000  O
  O47      1.0000 0.15880  0.10410  0.79570  Biso   1.000  O
  O48      1.0000 0.86300  0.19880  0.96244  Biso   1.000  O
  O49      1.0000 0.76070  0.14100  0.93941  Biso   1.000  O
  O50      1.0000 0.00730  0.18380  0.07125  Biso   1.000  O
  O51      1.0000 0.95890  0.11920  0.09781  Biso   1.000  O
  O52      1.0000 0.81800  0.00460  0.01020  Biso   1.000  O
  O53      1.0000 0.12020  0.19080  0.15245  Biso   1.000  O
  O54      1.0000 0.26480  0.24425  0.16399  Biso   1.000  O
  O55      1.0000 0.21000  0.02800  0.16080  Biso   1.000  O
  O56      1.0000 0.38740  0.00490  0.17660  Biso   1.000  O
  O57      1.0000 0.59460  0.15180  0.22010  Biso   1.000  O
  O58      1.0000 0.48900  0.92310  0.13973  Biso   1.000  O
  O59      1.0000 0.38370  0.86820  0.11375  Biso   1.000  O
  O60      1.0000 0.93110  0.94500  0.12290  Biso   1.000  O
  O61      1.0000 0.03320  0.89970  0.08890  Biso   1.000  O
  O62      1.0000 0.69460  0.80350  0.03774  Biso   1.000  O
  O63      1.0000 0.37180  0.90790  0.20515  Biso   1.000  O
  O64      1.0000 0.29330  0.84370  0.18366  Biso   1.000  O
  O65      1.0000 0.46240  0.71540  0.24840  Biso   1.000  O
  Zn7      1.0000 0.57086  0.51845  0.85801  Biso   1.000  Zn
  Zn8      1.0000 0.81385  0.23585  0.92564  Biso   1.000  Zn
  Zn9      1.0000 0.06806  0.21181  0.10983  Biso   1.000  Zn
  Zn10     1.0000 0.18371  0.30118  0.14469  Biso   1.000  Zn
  Zn11     1.0000 0.34729  0.94170  0.16575  Biso   1.000  Zn
  Zn12     1.0000 0.21377  0.89921  0.09965  Biso   1.000  Zn
  H72      1.0000 0.45200  0.01200  0.19080  Biso   1.000  H
  C113     1.0000 0.05000  0.40340  0.01700  Biso   1.000  C
  H73      1.0000 0.11390  0.41520  0.03150  Biso   1.000  H
  H74      1.0000 0.08760  0.38020  0.00290  Biso   1.000  H
  H75      1.0000 0.98280  0.38880  0.02900  Biso   1.000  H
  C114     1.0000 0.26810  0.18710  0.81650  Biso   1.000  C
  H76      1.0000 0.33820  0.18630  0.80290  Biso   1.000  H
  C115     1.0000 0.15200  0.17100  0.80540  Biso   1.000  C
  C116     1.0000 0.04780  0.17480  0.82410  Biso   1.000  C
  H77      1.0000 0.96790  0.16630  0.81640  Biso   1.000  H
  C117     1.0000 0.03900  0.13470  0.76170  Biso   1.000  C
  C118     1.0000 0.94300  0.07170  0.04040  Biso   1.000  C
  H78      1.0000 0.97420  0.05400  0.05750  Biso   1.000  H
  C119     1.0000 0.90400  0.04980  0.01240  Biso   1.000  C
  C120     1.0000 0.86900  0.07730  0.98640  Biso   1.000  C
  H79      1.0000 0.84960  0.06250  0.96700  Biso   1.000  H
  C121     1.0000 0.91500  0.97410  0.03280  Biso   1.000  C
  H80      1.0000 0.90340  0.94100  0.02740  Biso   1.000  H
  H81      1.0000 0.85830  0.98250  0.04990  Biso   1.000  H
  H82      1.0000 0.00120  0.97930  0.03940  Biso   1.000  H
  C122     1.0000 0.63260  0.19660  0.22560  Biso   1.000  C
  H83      1.0000 0.71200  0.19610  0.23690  Biso   1.000  H
  H84      1.0000 0.56990  0.21280  0.23830  Biso   1.000  H
  H85      1.0000 0.64320  0.21300  0.20560  Biso   1.000  H
  C123     1.0000 0.55600  0.68730  0.27030  Biso   1.000  C
  O66      1.0000 0.00140  0.44170  0.99880  Biso   1.000  O
  O67      1.0000 0.15490  0.14990  0.77570  Biso   1.000  O
  O68      1.0000 0.88860  0.00220  0.00620  Biso   1.000  O
  O69      1.0000 0.19460  0.02280  0.17530  Biso   1.000  O
  O70      1.0000 0.28700  0.06110  0.80800  Biso   1.000  O
  H86      1.0000 0.52600  0.79960  0.02300  Biso   1.000  H
  H87      1.0000 0.61550  0.75870  0.01070  Biso   1.000  H
  H88      1.0000 0.56670  0.75820  0.04610  Biso   1.000  H
  C124     1.0000 0.59400  0.77820  0.02880  Biso   1.000  C
  C125     1.0000 0.24230  0.99810  0.08570  Biso   1.000  C
  C126     1.0000 0.29380  0.03780  0.06730  Biso   1.000  C
  C127     1.0000 0.26970  0.08350  0.07740  Biso   1.000  C
  H89      1.0000 0.22070  0.08880  0.09560  Biso   1.000  H
  C128     1.0000 0.31700  0.12080  0.06090  Biso   1.000  C
  C129     1.0000 0.29600  0.17020  0.07252  Biso   1.000  C
  C130     1.0000 0.38670  0.11380  0.03360  Biso   1.000  C
  H90      1.0000 0.41750  0.13960  0.02190  Biso   1.000  H
  C131     1.0000 0.41000  0.06770  0.02400  Biso   1.000  C
  C132     1.0000 0.36550  0.03010  0.04130  Biso   1.000  C
  H91      1.0000 0.38480  0.99900  0.03510  Biso   1.000  H
  C133     1.0000 0.48900  0.08920  0.97560  Biso   1.000  C
  H92      1.0000 0.51740  0.07660  0.95540  Biso   1.000  H
  H93      1.0000 0.55850  0.10530  0.98600  Biso   1.000  H
  H94      1.0000 0.42100  0.11140  0.97210  Biso   1.000  H
  C134     1.0000 0.44910  0.30210  0.12531  Biso   1.000  C
  C135     1.0000 0.56340  0.30850  0.14540  Biso   1.000  C
  C136     1.0000 0.67540  0.28800  0.13670  Biso   1.000  C
  H95      1.0000 0.67910  0.26810  0.11880  Biso   1.000  H
  C137     1.0000 0.78160  0.29650  0.15420  Biso   1.000  C
  C138     1.0000 0.90640  0.27790  0.14380  Biso   1.000  C
  C139     1.0000 0.78410  0.33810  0.17680  Biso   1.000  C
  H96      1.0000 0.85960  0.34880  0.18600  Biso   1.000  H
  C140     1.0000 0.67470  0.35900  0.18320  Biso   1.000  C
  C141     1.0000 0.56620  0.34630  0.16730  Biso   1.000  C
  H97      1.0000 0.49180  0.36340  0.17120  Biso   1.000  H
  C142     1.0000 0.76400  0.41710  0.21780  Biso   1.000  C
  C143     1.0000 0.32760  0.34350  0.03870  Biso   1.000  C
  C144     1.0000 0.36180  0.37340  0.01140  Biso   1.000  C
  C145     1.0000 0.40790  0.35270  0.98360  Biso   1.000  C
  H98      1.0000 0.42100  0.31990  0.98260  Biso   1.000  H
  C146     1.0000 0.43360  0.38040  0.95810  Biso   1.000  C
  C147     1.0000 0.46940  0.35850  0.92730  Biso   1.000  C
  C148     1.0000 0.39700  0.43040  0.95960  Biso   1.000  C
  H99      1.0000 0.40440  0.44960  0.94150  Biso   1.000  H
  C149     1.0000 0.35200  0.44860  0.98610  Biso   1.000  C
  C150     1.0000 0.31500  0.41940  0.01190  Biso   1.000  C
  H100     1.0000 0.26140  0.43040  0.02810  Biso   1.000  H
  C151     1.0000 0.34300  0.52670  0.96590  Biso   1.000  C
  H101     1.0000 0.31480  0.55800  0.97210  Biso   1.000  H
  H102     1.0000 0.29840  0.51690  0.94690  Biso   1.000  H
  H103     1.0000 0.43250  0.52730  0.96170  Biso   1.000  H
  C152     1.0000 0.72400  0.29700  0.83656  Biso   1.000  C
  C153     1.0000 0.80440  0.33400  0.82270  Biso   1.000  C
  C154     1.0000 0.77160  0.38110  0.82740  Biso   1.000  C
  H104     1.0000 0.69600  0.38800  0.83800  Biso   1.000  H
  C155     1.0000 0.84500  0.41740  0.81720  Biso   1.000  C
  C156     1.0000 0.80820  0.46780  0.82530  Biso   1.000  C
  C157     1.0000 0.95040  0.40590  0.80190  Biso   1.000  C
  H105     1.0000 0.00350  0.43050  0.79510  Biso   1.000  H
  C158     1.0000 0.98730  0.35800  0.79530  Biso   1.000  C
  C159     1.0000 0.91270  0.32200  0.80660  Biso   1.000  C
  H106     1.0000 0.93490  0.29010  0.80340  Biso   1.000  H
  C160     1.0000 0.18400  0.38700  0.77350  Biso   1.000  C
  H107     1.0000 0.25630  0.37460  0.76230  Biso   1.000  H
  H108     1.0000 0.21090  0.40080  0.79340  Biso   1.000  H
  H109     1.0000 0.14300  0.41090  0.76070  Biso   1.000  H
  C161     1.0000 0.98340  0.60920  0.88060  Biso   1.000  C
  C162     1.0000 0.09800  0.62020  0.89830  Biso   1.000  C
  C163     1.0000 0.21030  0.59830  0.89060  Biso   1.000  C
  H110     1.0000 0.21310  0.57590  0.87410  Biso   1.000  H
  C164     1.0000 0.31700  0.60930  0.90700  Biso   1.000  C
  C165     1.0000 0.43830  0.58670  0.89780  Biso   1.000  C
  C166     1.0000 0.31470  0.64230  0.93090  Biso   1.000  C
  H111     1.0000 0.38890  0.64970  0.94200  Biso   1.000  H
  C167     1.0000 0.20540  0.66440  0.93840  Biso   1.000  C
  C168     1.0000 0.09610  0.65280  0.92220  Biso   1.000  C
  H112     1.0000 0.01980  0.66750  0.92770  Biso   1.000  H
  C169     1.0000 0.29840  0.70690  0.98010  Biso   1.000  C
  H113     1.0000 0.36860  0.68770  0.97310  Biso   1.000  H
  H114     1.0000 0.28080  0.70040  0.00220  Biso   1.000  H
  H115     1.0000 0.31930  0.74010  0.97760  Biso   1.000  H
  C170     1.0000 0.85860  0.63640  0.79592  Biso   1.000  C
  C171     1.0000 0.93020  0.66360  0.77189  Biso   1.000  C
  C172     1.0000 0.92640  0.71290  0.77190  Biso   1.000  C
  C173     1.0000 0.97510  0.73620  0.75030  Biso   1.000  C
  C174     1.0000 0.00900  0.81180  0.72660  Biso   1.000  C
  O71      1.0000 0.28800  0.95817  0.08191  Biso   1.000  O
  O72      1.0000 0.16210  0.27179  0.10006  Biso   1.000  O
  O73      1.0000 0.15380  0.00800  0.10380  Biso   1.000  O
  O74      1.0000 0.69160  0.57435  0.85517  Biso   1.000  O
  O75      1.0000 0.24500  0.17550  0.09820  Biso   1.000  O
  O76      1.0000 0.33760  0.20290  0.05561  Biso   1.000  O
  O77      1.0000 0.45000  0.05470  0.99350  Biso   1.000  O
  O78      1.0000 0.45540  0.27270  0.10381  Biso   1.000  O
  O79      1.0000 0.35640  0.32797  0.13134  Biso   1.000  O
  O80      1.0000 0.90820  0.24450  0.12445  Biso   1.000  O
  O81      1.0000 0.00060  0.29800  0.15499  Biso   1.000  O
  O82      1.0000 0.65880  0.39590  0.20430  Biso   1.000  O
  O83      1.0000 0.36300  0.30120  0.03756  Biso   1.000  O
  O84      1.0000 0.26070  0.35900  0.06059  Biso   1.000  O
  O85      1.0000 0.50730  0.31620  0.92875  Biso   1.000  O
  O86      1.0000 0.45890  0.38080  0.90219  Biso   1.000  O
  O87      1.0000 0.31800  0.49540  0.98980  Biso   1.000  O
  O88      1.0000 0.62020  0.30920  0.84755  Biso   1.000  O
  O89      1.0000 0.76480  0.25575  0.83601  Biso   1.000  O
  O90      1.0000 0.71000  0.47200  0.83920  Biso   1.000  O
  O91      1.0000 0.88740  0.49510  0.82340  Biso   1.000  O
  O92      1.0000 0.09460  0.34820  0.77990  Biso   1.000  O
  O93      1.0000 0.98900  0.57690  0.86027  Biso   1.000  O
  O94      1.0000 0.88370  0.63180  0.88625  Biso   1.000  O
  O95      1.0000 0.43110  0.55500  0.87710  Biso   1.000  O
  O96      1.0000 0.53320  0.60030  0.91110  Biso   1.000  O
  O97      1.0000 0.19460  0.69650  0.96226  Biso   1.000  O
  O98      1.0000 0.87180  0.59210  0.79485  Biso   1.000  O
  O99      1.0000 0.79330  0.65630  0.81634  Biso   1.000  O
  O100     1.0000 0.96240  0.78460  0.75160  Biso   1.000  O
  Zn13     1.0000 0.07086  0.98155  0.14199  Biso   1.000  Zn
  Zn14     1.0000 0.31385  0.26415  0.07436  Biso   1.000  Zn
  Zn15     1.0000 0.56806  0.28819  0.89017  Biso   1.000  Zn
  Zn16     1.0000 0.68371  0.19882  0.85531  Biso   1.000  Zn
  Zn17     1.0000 0.84729  0.55830  0.83425  Biso   1.000  Zn
  Zn18     1.0000 0.71377  0.60079  0.90035  Biso   1.000  Zn
  H116     1.0000 0.95200  0.48800  0.80920  Biso   1.000  H
  C175     1.0000 0.55000  0.09660  0.98300  Biso   1.000  C
  H117     1.0000 0.61390  0.08480  0.96850  Biso   1.000  H
  H118     1.0000 0.58760  0.11980  0.99710  Biso   1.000  H
  H119     1.0000 0.48280  0.11120  0.97100  Biso   1.000  H
  C176     1.0000 0.76810  0.31290  0.18350  Biso   1.000  C
  H120     1.0000 0.83820  0.31370  0.19710  Biso   1.000  H
  C177     1.0000 0.65200  0.32900  0.19460  Biso   1.000  C
  C178     1.0000 0.54780  0.32520  0.17590  Biso   1.000  C
  H121     1.0000 0.46790  0.33370  0.18360  Biso   1.000  H
  C179     1.0000 0.53900  0.36530  0.23830  Biso   1.000  C
  C180     1.0000 0.44300  0.42830  0.95960  Biso   1.000  C
  H122     1.0000 0.47420  0.44600  0.94250  Biso   1.000  H
  C181     1.0000 0.40400  0.45020  0.98760  Biso   1.000  C
  C182     1.0000 0.36900  0.42270  0.01360  Biso   1.000  C
  H123     1.0000 0.34960  0.43750  0.03300  Biso   1.000  H
  C183     1.0000 0.41500  0.52590  0.96720  Biso   1.000  C
  H124     1.0000 0.40340  0.55900  0.97260  Biso   1.000  H
  H125     1.0000 0.35830  0.51750  0.95010  Biso   1.000  H
  H126     1.0000 0.50120  0.52070  0.96060  Biso   1.000  H
  C184     1.0000 0.13260  0.30340  0.77440  Biso   1.000  C
  H127     1.0000 0.21200  0.30390  0.76310  Biso   1.000  H
  H128     1.0000 0.06990  0.28720  0.76170  Biso   1.000  H
  H129     1.0000 0.14320  0.28700  0.79440  Biso   1.000  H
  C185     1.0000 0.05600  0.81270  0.72970  Biso   1.000  C
  O101     1.0000 0.50140  0.05830  0.00120  Biso   1.000  O
  O102     1.0000 0.65490  0.35010  0.22430  Biso   1.000  O
  O103     1.0000 0.38860  0.49780  0.99380  Biso   1.000  O
  O104     1.0000 0.69460  0.47720  0.82470  Biso   1.000  O
  O105     1.0000 0.78700  0.43890  0.19200  Biso   1.000  O
  H130     1.0000 0.02600  0.70040  0.97700  Biso   1.000  H
  H131     1.0000 0.11550  0.74130  0.98930  Biso   1.000  H
  H132     1.0000 0.06670  0.74180  0.95390  Biso   1.000  H
  C186     1.0000 0.09400  0.72180  0.97120  Biso   1.000  C
  C187     1.0000 0.25770  0.50190  0.58570  Biso   1.000  C
  C188     1.0000 0.20620  0.46220  0.56730  Biso   1.000  C
  C189     1.0000 0.23030  0.41650  0.57740  Biso   1.000  C
  H133     1.0000 0.27930  0.41120  0.59560  Biso   1.000  H
  C190     1.0000 0.18300  0.37920  0.56090  Biso   1.000  C
  C191     1.0000 0.20400  0.32980  0.57252  Biso   1.000  C
  C192     1.0000 0.11330  0.38620  0.53360  Biso   1.000  C
  H134     1.0000 0.08250  0.36040  0.52190  Biso   1.000  H
  C193     1.0000 0.09000  0.43230  0.52400  Biso   1.000  C
  C194     1.0000 0.13450  0.46990  0.54130  Biso   1.000  C
  H135     1.0000 0.11520  0.50100  0.53510  Biso   1.000  H
  C195     1.0000 0.01100  0.41080  0.47560  Biso   1.000  C
  H136     1.0000 0.98260  0.42340  0.45540  Biso   1.000  H
  H137     1.0000 0.94150  0.39470  0.48600  Biso   1.000  H
  H138     1.0000 0.07900  0.38860  0.47210  Biso   1.000  H
  C196     1.0000 0.05090  0.19790  0.62531  Biso   1.000  C
  C197     1.0000 0.93660  0.19150  0.64540  Biso   1.000  C
  C198     1.0000 0.82460  0.21200  0.63670  Biso   1.000  C
  H139     1.0000 0.82090  0.23190  0.61880  Biso   1.000  H
  C199     1.0000 0.71840  0.20350  0.65420  Biso   1.000  C
  C200     1.0000 0.59360  0.22210  0.64380  Biso   1.000  C
  C201     1.0000 0.71590  0.16190  0.67680  Biso   1.000  C
  H140     1.0000 0.64040  0.15120  0.68600  Biso   1.000  H
  C202     1.0000 0.82530  0.14100  0.68320  Biso   1.000  C
  C203     1.0000 0.93380  0.15370  0.66730  Biso   1.000  C
  H141     1.0000 0.00820  0.13660  0.67120  Biso   1.000  H
  C204     1.0000 0.73600  0.08290  0.71780  Biso   1.000  C
  C205     1.0000 0.17240  0.15650  0.53870  Biso   1.000  C
  C206     1.0000 0.13820  0.12660  0.51140  Biso   1.000  C
  C207     1.0000 0.09210  0.14730  0.48360  Biso   1.000  C
  H142     1.0000 0.07900  0.18010  0.48260  Biso   1.000  H
  C208     1.0000 0.06640  0.11960  0.45810  Biso   1.000  C
  C209     1.0000 0.03060  0.14150  0.42730  Biso   1.000  C
  C210     1.0000 0.10300  0.06960  0.45960  Biso   1.000  C
  H143     1.0000 0.09560  0.05040  0.44150  Biso   1.000  H
  C211     1.0000 0.14800  0.05140  0.48610  Biso   1.000  C
  C212     1.0000 0.18500  0.08060  0.51190  Biso   1.000  C
  H144     1.0000 0.23860  0.06960  0.52810  Biso   1.000  H
  C213     1.0000 0.15700  0.97330  0.46590  Biso   1.000  C
  H145     1.0000 0.18520  0.94200  0.47210  Biso   1.000  H
  H146     1.0000 0.20160  0.98310  0.44690  Biso   1.000  H
  H147     1.0000 0.06750  0.97270  0.46170  Biso   1.000  H
  C214     1.0000 0.77600  0.20300  0.33656  Biso   1.000  C
  C215     1.0000 0.69560  0.16600  0.32270  Biso   1.000  C
  C216     1.0000 0.72840  0.11890  0.32740  Biso   1.000  C
  H148     1.0000 0.80400  0.11200  0.33800  Biso   1.000  H
  C217     1.0000 0.65500  0.08260  0.31720  Biso   1.000  C
  C218     1.0000 0.69180  0.03220  0.32530  Biso   1.000  C
  C219     1.0000 0.54960  0.09410  0.30190  Biso   1.000  C
  H149     1.0000 0.49650  0.06950  0.29510  Biso   1.000  H
  C220     1.0000 0.51270  0.14200  0.29530  Biso   1.000  C
  C221     1.0000 0.58730  0.17800  0.30660  Biso   1.000  C
  H150     1.0000 0.56510  0.20990  0.30340  Biso   1.000  H
  C222     1.0000 0.31600  0.11300  0.27350  Biso   1.000  C
  H151     1.0000 0.24370  0.12540  0.26230  Biso   1.000  H
  H152     1.0000 0.28910  0.09920  0.29340  Biso   1.000  H
  H153     1.0000 0.35700  0.08910  0.26070  Biso   1.000  H
  C223     1.0000 0.51660  0.89080  0.38060  Biso   1.000  C
  C224     1.0000 0.40200  0.87980  0.39830  Biso   1.000  C
  C225     1.0000 0.28970  0.90170  0.39060  Biso   1.000  C
  H154     1.0000 0.28690  0.92410  0.37410  Biso   1.000  H
  C226     1.0000 0.18300  0.89070  0.40700  Biso   1.000  C
  C227     1.0000 0.06170  0.91330  0.39780  Biso   1.000  C
  C228     1.0000 0.18530  0.85770  0.43090  Biso   1.000  C
  H155     1.0000 0.11110  0.85030  0.44200  Biso   1.000  H
  C229     1.0000 0.29460  0.83560  0.43840  Biso   1.000  C
  C230     1.0000 0.40390  0.84720  0.42220  Biso   1.000  C
  H156     1.0000 0.48020  0.83250  0.42770  Biso   1.000  H
  C231     1.0000 0.20160  0.79310  0.48010  Biso   1.000  C
  H157     1.0000 0.13140  0.81230  0.47310  Biso   1.000  H
  H158     1.0000 0.21920  0.79960  0.50220  Biso   1.000  H
  H159     1.0000 0.18070  0.75990  0.47760  Biso   1.000  H
  C232     1.0000 0.64140  0.86360  0.29592  Biso   1.000  C
  C233     1.0000 0.56980  0.83640  0.27189  Biso   1.000  C
  C234     1.0000 0.57360  0.78710  0.27190  Biso   1.000  C
  C235     1.0000 0.52490  0.76380  0.25030  Biso   1.000  C
  C236     1.0000 0.49100  0.68820  0.22660  Biso   1.000  C
  O106     1.0000 0.21200  0.54183  0.58191  Biso   1.000  O
  O107     1.0000 0.33790  0.22821  0.60006  Biso   1.000  O
  O108     1.0000 0.34620  0.49200  0.60380  Biso   1.000  O
  O109     1.0000 0.80840  0.92565  0.35517  Biso   1.000  O
  O110     1.0000 0.25500  0.32450  0.59820  Biso   1.000  O
  O111     1.0000 0.16240  0.29710  0.55561  Biso   1.000  O
  O112     1.0000 0.05000  0.44530  0.49350  Biso   1.000  O
  O113     1.0000 0.04460  0.22730  0.60381  Biso   1.000  O
  O114     1.0000 0.14360  0.17203  0.63134  Biso   1.000  O
  O115     1.0000 0.59180  0.25550  0.62445  Biso   1.000  O
  O116     1.0000 0.49940  0.20200  0.65499  Biso   1.000  O
  O117     1.0000 0.84120  0.10410  0.70430  Biso   1.000  O
  O118     1.0000 0.13700  0.19880  0.53756  Biso   1.000  O
  O119     1.0000 0.23930  0.14100  0.56059  Biso   1.000  O
  O120     1.0000 0.99270  0.18380  0.42875  Biso   1.000  O
  O121     1.0000 0.04110  0.11920  0.40219  Biso   1.000  O
  O122     1.0000 0.18200  0.00460  0.48980  Biso   1.000  O
  O123     1.0000 0.87980  0.19080  0.34755  Biso   1.000  O
  O124     1.0000 0.73520  0.24425  0.33601  Biso   1.000  O
  O125     1.0000 0.79000  0.02800  0.33920  Biso   1.000  O
  O126     1.0000 0.61260  0.00490  0.32340  Biso   1.000  O
  O127     1.0000 0.40540  0.15180  0.27990  Biso   1.000  O
  O128     1.0000 0.51100  0.92310  0.36027  Biso   1.000  O
  O129     1.0000 0.61630  0.86820  0.38625  Biso   1.000  O
  O130     1.0000 0.06890  0.94500  0.37710  Biso   1.000  O
  O131     1.0000 0.96680  0.89970  0.41110  Biso   1.000  O
  O132     1.0000 0.30540  0.80350  0.46226  Biso   1.000  O
  O133     1.0000 0.62820  0.90790  0.29485  Biso   1.000  O
  O134     1.0000 0.70670  0.84370  0.31634  Biso   1.000  O
  O135     1.0000 0.53760  0.71540  0.25160  Biso   1.000  O
  Zn19     1.0000 0.42914  0.51845  0.64199  Biso   1.000  Zn
  Zn20     1.0000 0.18615  0.23585  0.57436  Biso   1.000  Zn
  Zn21     1.0000 0.93194  0.21181  0.39017  Biso   1.000  Zn
  Zn22     1.0000 0.81629  0.30118  0.35531  Biso   1.000  Zn
  Zn23     1.0000 0.65271  0.94170  0.33425  Biso   1.000  Zn
  Zn24     1.0000 0.78623  0.89921  0.40035  Biso   1.000  Zn
  H160     1.0000 0.54800  0.01200  0.30920  Biso   1.000  H
  C237     1.0000 0.95000  0.40340  0.48300  Biso   1.000  C
  H161     1.0000 0.88610  0.41520  0.46850  Biso   1.000  H
  H162     1.0000 0.91240  0.38020  0.49710  Biso   1.000  H
  H163     1.0000 0.01720  0.38880  0.47100  Biso   1.000  H
  C238     1.0000 0.73190  0.18710  0.68350  Biso   1.000  C
  H164     1.0000 0.66180  0.18630  0.69710  Biso   1.000  H
  C239     1.0000 0.84800  0.17100  0.69460  Biso   1.000  C
  C240     1.0000 0.95220  0.17480  0.67590  Biso   1.000  C
  H165     1.0000 0.03210  0.16630  0.68360  Biso   1.000  H
  C241     1.0000 0.96100  0.13470  0.73830  Biso   1.000  C
  C242     1.0000 0.05700  0.07170  0.45960  Biso   1.000  C
  H166     1.0000 0.02580  0.05400  0.44250  Biso   1.000  H
  C243     1.0000 0.09600  0.04980  0.48760  Biso   1.000  C
  C244     1.0000 0.13100  0.07730  0.51360  Biso   1.000  C
  H167     1.0000 0.15040  0.06250  0.53300  Biso   1.000  H
  C245     1.0000 0.08500  0.97410  0.46720  Biso   1.000  C
  H168     1.0000 0.09660  0.94100  0.47260  Biso   1.000  H
  H169     1.0000 0.14170  0.98250  0.45010  Biso   1.000  H
  H170     1.0000 0.99880  0.97930  0.46060  Biso   1.000  H
  C246     1.0000 0.36740  0.19660  0.27440  Biso   1.000  C
  H171     1.0000 0.28800  0.19610  0.26310  Biso   1.000  H
  H172     1.0000 0.43010  0.21280  0.26170  Biso   1.000  H
  H173     1.0000 0.35680  0.21300  0.29440  Biso   1.000  H
  C247     1.0000 0.44400  0.68730  0.22970  Biso   1.000  C
  O136     1.0000 0.99860  0.44170  0.50120  Biso   1.000  O
  O137     1.0000 0.84510  0.14990  0.72430  Biso   1.000  O
  O138     1.0000 0.11140  0.00220  0.49380  Biso   1.000  O
  O139     1.0000 0.80540  0.02280  0.32470  Biso   1.000  O
  O140     1.0000 0.71300  0.06110  0.69200  Biso   1.000  O
  H174     1.0000 0.47400  0.79960  0.47700  Biso   1.000  H
  H175     1.0000 0.38450  0.75870  0.48930  Biso   1.000  H
  H176     1.0000 0.43330  0.75820  0.45390  Biso   1.000  H
  C248     1.0000 0.40600  0.77820  0.47120  Biso   1.000  C
  C249     1.0000 0.24230  0.00190  0.58570  Biso   1.000  C
  C250     1.0000 0.29380  0.96220  0.56730  Biso   1.000  C
  C251     1.0000 0.26970  0.91650  0.57740  Biso   1.000  C
  H177     1.0000 0.22070  0.91120  0.59560  Biso   1.000  H
  C252     1.0000 0.31700  0.87920  0.56090  Biso   1.000  C
  C253     1.0000 0.29600  0.82980  0.57252  Biso   1.000  C
  C254     1.0000 0.38670  0.88620  0.53360  Biso   1.000  C
  H178     1.0000 0.41750  0.86040  0.52190  Biso   1.000  H
  C255     1.0000 0.41000  0.93230  0.52400  Biso   1.000  C
  C256     1.0000 0.36550  0.96990  0.54130  Biso   1.000  C
  H179     1.0000 0.38480  0.00100  0.53510  Biso   1.000  H
  C257     1.0000 0.48900  0.91080  0.47560  Biso   1.000  C
  H180     1.0000 0.51740  0.92340  0.45540  Biso   1.000  H
  H181     1.0000 0.55850  0.89470  0.48600  Biso   1.000  H
  H182     1.0000 0.42100  0.88860  0.47210  Biso   1.000  H
  C258     1.0000 0.44910  0.69790  0.62531  Biso   1.000  C
  C259     1.0000 0.56340  0.69150  0.64540  Biso   1.000  C
  C260     1.0000 0.67540  0.71200  0.63670  Biso   1.000  C
  H183     1.0000 0.67910  0.73190  0.61880  Biso   1.000  H
  C261     1.0000 0.78160  0.70350  0.65420  Biso   1.000  C
  C262     1.0000 0.90640  0.72210  0.64380  Biso   1.000  C
  C263     1.0000 0.78410  0.66190  0.67680  Biso   1.000  C
  H184     1.0000 0.85960  0.65120  0.68600  Biso   1.000  H
  C264     1.0000 0.67470  0.64100  0.68320  Biso   1.000  C
  C265     1.0000 0.56620  0.65370  0.66730  Biso   1.000  C
  H185     1.0000 0.49180  0.63660  0.67120  Biso   1.000  H
  C266     1.0000 0.76400  0.58290  0.71780  Biso   1.000  C
  C267     1.0000 0.32760  0.65650  0.53870  Biso   1.000  C
  C268     1.0000 0.36180  0.62660  0.51140  Biso   1.000  C
  C269     1.0000 0.40790  0.64730  0.48360  Biso   1.000  C
  H186     1.0000 0.42100  0.68010  0.48260  Biso   1.000  H
  C270     1.0000 0.43360  0.61960  0.45810  Biso   1.000  C
  C271     1.0000 0.46940  0.64150  0.42730  Biso   1.000  C
  C272     1.0000 0.39700  0.56960  0.45960  Biso   1.000  C
  H187     1.0000 0.40440  0.55040  0.44150  Biso   1.000  H
  C273     1.0000 0.35200  0.55140  0.48610  Biso   1.000  C
  C274     1.0000 0.31500  0.58060  0.51190  Biso   1.000  C
  H188     1.0000 0.26140  0.56960  0.52810  Biso   1.000  H
  C275     1.0000 0.34300  0.47330  0.46590  Biso   1.000  C
  H189     1.0000 0.31480  0.44200  0.47210  Biso   1.000  H
  H190     1.0000 0.29840  0.48310  0.44690  Biso   1.000  H
  H191     1.0000 0.43250  0.47270  0.46170  Biso   1.000  H
  C276     1.0000 0.72400  0.70300  0.33656  Biso   1.000  C
  C277     1.0000 0.80440  0.66600  0.32270  Biso   1.000  C
  C278     1.0000 0.77160  0.61890  0.32740  Biso   1.000  C
  H192     1.0000 0.69600  0.61200  0.33800  Biso   1.000  H
  C279     1.0000 0.84500  0.58260  0.31720  Biso   1.000  C
  C280     1.0000 0.80820  0.53220  0.32530  Biso   1.000  C
  C281     1.0000 0.95040  0.59410  0.30190  Biso   1.000  C
  H193     1.0000 0.00350  0.56950  0.29510  Biso   1.000  H
  C282     1.0000 0.98730  0.64200  0.29530  Biso   1.000  C
  C283     1.0000 0.91270  0.67800  0.30660  Biso   1.000  C
  H194     1.0000 0.93490  0.70990  0.30340  Biso   1.000  H
  C284     1.0000 0.18400  0.61300  0.27350  Biso   1.000  C
  H195     1.0000 0.25630  0.62540  0.26230  Biso   1.000  H
  H196     1.0000 0.21090  0.59920  0.29340  Biso   1.000  H
  H197     1.0000 0.14300  0.58910  0.26070  Biso   1.000  H
  C285     1.0000 0.98340  0.39080  0.38060  Biso   1.000  C
  C286     1.0000 0.09800  0.37980  0.39830  Biso   1.000  C
  C287     1.0000 0.21030  0.40170  0.39060  Biso   1.000  C
  H198     1.0000 0.21310  0.42410  0.37410  Biso   1.000  H
  C288     1.0000 0.31700  0.39070  0.40700  Biso   1.000  C
  C289     1.0000 0.43830  0.41330  0.39780  Biso   1.000  C
  C290     1.0000 0.31470  0.35770  0.43090  Biso   1.000  C
  H199     1.0000 0.38890  0.35030  0.44200  Biso   1.000  H
  C291     1.0000 0.20540  0.33560  0.43840  Biso   1.000  C
  C292     1.0000 0.09610  0.34720  0.42220  Biso   1.000  C
  H200     1.0000 0.01980  0.33250  0.42770  Biso   1.000  H
  C293     1.0000 0.29840  0.29310  0.48010  Biso   1.000  C
  H201     1.0000 0.36860  0.31230  0.47310  Biso   1.000  H
  H202     1.0000 0.28080  0.29960  0.50220  Biso   1.000  H
  H203     1.0000 0.31930  0.25990  0.47760  Biso   1.000  H
  C294     1.0000 0.85860  0.36360  0.29592  Biso   1.000  C
  C295     1.0000 0.93020  0.33640  0.27189  Biso   1.000  C
  C296     1.0000 0.92640  0.28710  0.27190  Biso   1.000  C
  C297     1.0000 0.97510  0.26380  0.25030  Biso   1.000  C
  C298     1.0000 0.00900  0.18820  0.22660  Biso   1.000  C
  O141     1.0000 0.28800  0.04183  0.58191  Biso   1.000  O
  O142     1.0000 0.16210  0.72821  0.60006  Biso   1.000  O
  O143     1.0000 0.15380  0.99200  0.60380  Biso   1.000  O
  O144     1.0000 0.69160  0.42565  0.35517  Biso   1.000  O
  O145     1.0000 0.24500  0.82450  0.59820  Biso   1.000  O
  O146     1.0000 0.33760  0.79710  0.55561  Biso   1.000  O
  O147     1.0000 0.45000  0.94530  0.49350  Biso   1.000  O
  O148     1.0000 0.45540  0.72730  0.60381  Biso   1.000  O
  O149     1.0000 0.35640  0.67203  0.63134  Biso   1.000  O
  O150     1.0000 0.90820  0.75550  0.62445  Biso   1.000  O
  O151     1.0000 0.00060  0.70200  0.65499  Biso   1.000  O
  O152     1.0000 0.65880  0.60410  0.70430  Biso   1.000  O
  O153     1.0000 0.36300  0.69880  0.53756  Biso   1.000  O
  O154     1.0000 0.26070  0.64100  0.56059  Biso   1.000  O
  O155     1.0000 0.50730  0.68380  0.42875  Biso   1.000  O
  O156     1.0000 0.45890  0.61920  0.40219  Biso   1.000  O
  O157     1.0000 0.31800  0.50460  0.48980  Biso   1.000  O
  O158     1.0000 0.62020  0.69080  0.34755  Biso   1.000  O
  O159     1.0000 0.76480  0.74425  0.33601  Biso   1.000  O
  O160     1.0000 0.71000  0.52800  0.33920  Biso   1.000  O
  O161     1.0000 0.88740  0.50490  0.32340  Biso   1.000  O
  O162     1.0000 0.09460  0.65180  0.27990  Biso   1.000  O
  O163     1.0000 0.98900  0.42310  0.36027  Biso   1.000  O
  O164     1.0000 0.88370  0.36820  0.38625  Biso   1.000  O
  O165     1.0000 0.43110  0.44500  0.37710  Biso   1.000  O
  O166     1.0000 0.53320  0.39970  0.41110  Biso   1.000  O
  O167     1.0000 0.19460  0.30350  0.46226  Biso   1.000  O
  O168     1.0000 0.87180  0.40790  0.29485  Biso   1.000  O
  O169     1.0000 0.79330  0.34370  0.31634  Biso   1.000  O
  O170     1.0000 0.96240  0.21540  0.25160  Biso   1.000  O
  Zn25     1.0000 0.07086  0.01845  0.64199  Biso   1.000  Zn
  Zn26     1.0000 0.31385  0.73585  0.57436  Biso   1.000  Zn
  Zn27     1.0000 0.56806  0.71181  0.39017  Biso   1.000  Zn
  Zn28     1.0000 0.68371  0.80118  0.35531  Biso   1.000  Zn
  Zn29     1.0000 0.84729  0.44170  0.33425  Biso   1.000  Zn
  Zn30     1.0000 0.71377  0.39921  0.40035  Biso   1.000  Zn
  H204     1.0000 0.95200  0.51200  0.30920  Biso   1.000  H
  C299     1.0000 0.55000  0.90340  0.48300  Biso   1.000  C
  H205     1.0000 0.61390  0.91520  0.46850  Biso   1.000  H
  H206     1.0000 0.58760  0.88020  0.49710  Biso   1.000  H
  H207     1.0000 0.48280  0.88880  0.47100  Biso   1.000  H
  C300     1.0000 0.76810  0.68710  0.68350  Biso   1.000  C
  H208     1.0000 0.83820  0.68630  0.69710  Biso   1.000  H
  C301     1.0000 0.65200  0.67100  0.69460  Biso   1.000  C
  C302     1.0000 0.54780  0.67480  0.67590  Biso   1.000  C
  H209     1.0000 0.46790  0.66630  0.68360  Biso   1.000  H
  C303     1.0000 0.53900  0.63470  0.73830  Biso   1.000  C
  C304     1.0000 0.44300  0.57170  0.45960  Biso   1.000  C
  H210     1.0000 0.47420  0.55400  0.44250  Biso   1.000  H
  C305     1.0000 0.40400  0.54980  0.48760  Biso   1.000  C
  C306     1.0000 0.36900  0.57730  0.51360  Biso   1.000  C
  H211     1.0000 0.34960  0.56250  0.53300  Biso   1.000  H
  C307     1.0000 0.41500  0.47410  0.46720  Biso   1.000  C
  H212     1.0000 0.40340  0.44100  0.47260  Biso   1.000  H
  H213     1.0000 0.35830  0.48250  0.45010  Biso   1.000  H
  H214     1.0000 0.50120  0.47930  0.46060  Biso   1.000  H
  C308     1.0000 0.13260  0.69660  0.27440  Biso   1.000  C
  H215     1.0000 0.21200  0.69610  0.26310  Biso   1.000  H
  H216     1.0000 0.06990  0.71280  0.26170  Biso   1.000  H
  H217     1.0000 0.14320  0.71300  0.29440  Biso   1.000  H
  C309     1.0000 0.05600  0.18730  0.22970  Biso   1.000  C
  O171     1.0000 0.50140  0.94170  0.50120  Biso   1.000  O
  O172     1.0000 0.65490  0.64990  0.72430  Biso   1.000  O
  O173     1.0000 0.38860  0.50220  0.49380  Biso   1.000  O
  O174     1.0000 0.69460  0.52280  0.32470  Biso   1.000  O
  O175     1.0000 0.78700  0.56110  0.69200  Biso   1.000  O
  H218     1.0000 0.02600  0.29960  0.47700  Biso   1.000  H
  H219     1.0000 0.11550  0.25870  0.48930  Biso   1.000  H
  H220     1.0000 0.06670  0.25820  0.45390  Biso   1.000  H
  C310     1.0000 0.09400  0.27820  0.47120  Biso   1.000  C
  C311     1.0000 0.25770  0.49810  0.08570  Biso   1.000  C
  C312     1.0000 0.20620  0.53780  0.06730  Biso   1.000  C
  C313     1.0000 0.23030  0.58350  0.07740  Biso   1.000  C
  H221     1.0000 0.27930  0.58880  0.09560  Biso   1.000  H
  C314     1.0000 0.18300  0.62080  0.06090  Biso   1.000  C
  C315     1.0000 0.20400  0.67020  0.07252  Biso   1.000  C
  C316     1.0000 0.11330  0.61380  0.03360  Biso   1.000  C
  H222     1.0000 0.08250  0.63960  0.02190  Biso   1.000  H
  C317     1.0000 0.09000  0.56770  0.02400  Biso   1.000  C
  C318     1.0000 0.13450  0.53010  0.04130  Biso   1.000  C
  H223     1.0000 0.11520  0.49900  0.03510  Biso   1.000  H
  C319     1.0000 0.01100  0.58920  0.97560  Biso   1.000  C
  H224     1.0000 0.98260  0.57660  0.95540  Biso   1.000  H
  H225     1.0000 0.94150  0.60530  0.98600  Biso   1.000  H
  H226     1.0000 0.07900  0.61140  0.97210  Biso   1.000  H
  C320     1.0000 0.05090  0.80210  0.12531  Biso   1.000  C
  C321     1.0000 0.93660  0.80850  0.14540  Biso   1.000  C
  C322     1.0000 0.82460  0.78800  0.13670  Biso   1.000  C
  H227     1.0000 0.82090  0.76810  0.11880  Biso   1.000  H
  C323     1.0000 0.71840  0.79650  0.15420  Biso   1.000  C
  C324     1.0000 0.59360  0.77790  0.14380  Biso   1.000  C
  C325     1.0000 0.71590  0.83810  0.17680  Biso   1.000  C
  H228     1.0000 0.64040  0.84880  0.18600  Biso   1.000  H
  C326     1.0000 0.82530  0.85900  0.18320  Biso   1.000  C
  C327     1.0000 0.93380  0.84630  0.16730  Biso   1.000  C
  H229     1.0000 0.00820  0.86340  0.17120  Biso   1.000  H
  C328     1.0000 0.73600  0.91710  0.21780  Biso   1.000  C
  C329     1.0000 0.17240  0.84350  0.03870  Biso   1.000  C
  C330     1.0000 0.13820  0.87340  0.01140  Biso   1.000  C
  C331     1.0000 0.09210  0.85270  0.98360  Biso   1.000  C
  H230     1.0000 0.07900  0.81990  0.98260  Biso   1.000  H
  C332     1.0000 0.06640  0.88040  0.95810  Biso   1.000  C
  C333     1.0000 0.03060  0.85850  0.92730  Biso   1.000  C
  C334     1.0000 0.10300  0.93040  0.95960  Biso   1.000  C
  H231     1.0000 0.09560  0.94960  0.94150  Biso   1.000  H
  C335     1.0000 0.14800  0.94860  0.98610  Biso   1.000  C
  C336     1.0000 0.18500  0.91940  0.01190  Biso   1.000  C
  H232     1.0000 0.23860  0.93040  0.02810  Biso   1.000  H
  C337     1.0000 0.15700  0.02670  0.96590  Biso   1.000  C
  H233     1.0000 0.18520  0.05800  0.97210  Biso   1.000  H
  H234     1.0000 0.20160  0.01690  0.94690  Biso   1.000  H
  H235     1.0000 0.06750  0.02730  0.96170  Biso   1.000  H
  C338     1.0000 0.77600  0.79700  0.83656  Biso   1.000  C
  C339     1.0000 0.69560  0.83400  0.82270  Biso   1.000  C
  C340     1.0000 0.72840  0.88110  0.82740  Biso   1.000  C
  H236     1.0000 0.80400  0.88800  0.83800  Biso   1.000  H
  C341     1.0000 0.65500  0.91740  0.81720  Biso   1.000  C
  C342     1.0000 0.69180  0.96780  0.82530  Biso   1.000  C
  C343     1.0000 0.54960  0.90590  0.80190  Biso   1.000  C
  H237     1.0000 0.49650  0.93050  0.79510  Biso   1.000  H
  C344     1.0000 0.51270  0.85800  0.79530  Biso   1.000  C
  C345     1.0000 0.58730  0.82200  0.80660  Biso   1.000  C
  H238     1.0000 0.56510  0.79010  0.80340  Biso   1.000  H
  C346     1.0000 0.31600  0.88700  0.77350  Biso   1.000  C
  H239     1.0000 0.24370  0.87460  0.76230  Biso   1.000  H
  H240     1.0000 0.28910  0.90080  0.79340  Biso   1.000  H
  H241     1.0000 0.35700  0.91090  0.76070  Biso   1.000  H
  C347     1.0000 0.51660  0.10920  0.88060  Biso   1.000  C
  C348     1.0000 0.40200  0.12020  0.89830  Biso   1.000  C
  C349     1.0000 0.28970  0.09830  0.89060  Biso   1.000  C
  H242     1.0000 0.28690  0.07590  0.87410  Biso   1.000  H
  C350     1.0000 0.18300  0.10930  0.90700  Biso   1.000  C
  C351     1.0000 0.06170  0.08670  0.89780  Biso   1.000  C
  C352     1.0000 0.18530  0.14230  0.93090  Biso   1.000  C
  H243     1.0000 0.11110  0.14970  0.94200  Biso   1.000  H
  C353     1.0000 0.29460  0.16440  0.93840  Biso   1.000  C
  C354     1.0000 0.40390  0.15280  0.92220  Biso   1.000  C
  H244     1.0000 0.48020  0.16750  0.92770  Biso   1.000  H
  C355     1.0000 0.20160  0.20690  0.98010  Biso   1.000  C
  H245     1.0000 0.13140  0.18770  0.97310  Biso   1.000  H
  H246     1.0000 0.21920  0.20040  0.00220  Biso   1.000  H
  H247     1.0000 0.18070  0.24010  0.97760  Biso   1.000  H
  C356     1.0000 0.64140  0.13640  0.79592  Biso   1.000  C
  C357     1.0000 0.56980  0.16360  0.77189  Biso   1.000  C
  C358     1.0000 0.57360  0.21290  0.77190  Biso   1.000  C
  C359     1.0000 0.52490  0.23620  0.75030  Biso   1.000  C
  C360     1.0000 0.49100  0.31180  0.72660  Biso   1.000  C
  O176     1.0000 0.21200  0.45817  0.08191  Biso   1.000  O
  O177     1.0000 0.33790  0.77179  0.10006  Biso   1.000  O
  O178     1.0000 0.34620  0.50800  0.10380  Biso   1.000  O
  O179     1.0000 0.80840  0.07435  0.85517  Biso   1.000  O
  O180     1.0000 0.25500  0.67550  0.09820  Biso   1.000  O
  O181     1.0000 0.16240  0.70290  0.05561  Biso   1.000  O
  O182     1.0000 0.05000  0.55470  0.99350  Biso   1.000  O
  O183     1.0000 0.04460  0.77270  0.10381  Biso   1.000  O
  O184     1.0000 0.14360  0.82797  0.13134  Biso   1.000  O
  O185     1.0000 0.59180  0.74450  0.12445  Biso   1.000  O
  O186     1.0000 0.49940  0.79800  0.15499  Biso   1.000  O
  O187     1.0000 0.84120  0.89590  0.20430  Biso   1.000  O
  O188     1.0000 0.13700  0.80120  0.03756  Biso   1.000  O
  O189     1.0000 0.23930  0.85900  0.06059  Biso   1.000  O
  O190     1.0000 0.99270  0.81620  0.92875  Biso   1.000  O
  O191     1.0000 0.04110  0.88080  0.90219  Biso   1.000  O
  O192     1.0000 0.18200  0.99540  0.98980  Biso   1.000  O
  O193     1.0000 0.87980  0.80920  0.84755  Biso   1.000  O
  O194     1.0000 0.73520  0.75575  0.83601  Biso   1.000  O
  O195     1.0000 0.79000  0.97200  0.83920  Biso   1.000  O
  O196     1.0000 0.61260  0.99510  0.82340  Biso   1.000  O
  O197     1.0000 0.40540  0.84820  0.77990  Biso   1.000  O
  O198     1.0000 0.51100  0.07690  0.86027  Biso   1.000  O
  O199     1.0000 0.61630  0.13180  0.88625  Biso   1.000  O
  O200     1.0000 0.06890  0.05500  0.87710  Biso   1.000  O
  O201     1.0000 0.96680  0.10030  0.91110  Biso   1.000  O
  O202     1.0000 0.30540  0.19650  0.96226  Biso   1.000  O
  O203     1.0000 0.62820  0.09210  0.79485  Biso   1.000  O
  O204     1.0000 0.70670  0.15630  0.81634  Biso   1.000  O
  O205     1.0000 0.53760  0.28460  0.75160  Biso   1.000  O
  Zn31     1.0000 0.42914  0.48155  0.14199  Biso   1.000  Zn
  Zn32     1.0000 0.18615  0.76415  0.07436  Biso   1.000  Zn
  Zn33     1.0000 0.93194  0.78819  0.89017  Biso   1.000  Zn
  Zn34     1.0000 0.81629  0.69882  0.85531  Biso   1.000  Zn
  Zn35     1.0000 0.65271  0.05830  0.83425  Biso   1.000  Zn
  Zn36     1.0000 0.78623  0.10079  0.90035  Biso   1.000  Zn
  H248     1.0000 0.54800  0.98800  0.80920  Biso   1.000  H
  C361     1.0000 0.95000  0.59660  0.98300  Biso   1.000  C
  H249     1.0000 0.88610  0.58480  0.96850  Biso   1.000  H
  H250     1.0000 0.91240  0.61980  0.99710  Biso   1.000  H
  H251     1.0000 0.01720  0.61120  0.97100  Biso   1.000  H
  C362     1.0000 0.73190  0.81290  0.18350  Biso   1.000  C
  H252     1.0000 0.66180  0.81370  0.19710  Biso   1.000  H
  C363     1.0000 0.84800  0.82900  0.19460  Biso   1.000  C
  C364     1.0000 0.95220  0.82520  0.17590  Biso   1.000  C
  H253     1.0000 0.03210  0.83370  0.18360  Biso   1.000  H
  C365     1.0000 0.96100  0.86530  0.23830  Biso   1.000  C
  C366     1.0000 0.05700  0.92830  0.95960  Biso   1.000  C
  H254     1.0000 0.02580  0.94600  0.94250  Biso   1.000  H
  C367     1.0000 0.09600  0.95020  0.98760  Biso   1.000  C
  C368     1.0000 0.13100  0.92270  0.01360  Biso   1.000  C
  H255     1.0000 0.15040  0.93750  0.03300  Biso   1.000  H
  C369     1.0000 0.08500  0.02590  0.96720  Biso   1.000  C
  H256     1.0000 0.09660  0.05900  0.97260  Biso   1.000  H
  H257     1.0000 0.14170  0.01750  0.95010  Biso   1.000  H
  H258     1.0000 0.99880  0.02070  0.96060  Biso   1.000  H
  C370     1.0000 0.36740  0.80340  0.77440  Biso   1.000  C
  H259     1.0000 0.28800  0.80390  0.76310  Biso   1.000  H
  H260     1.0000 0.43010  0.78720  0.76170  Biso   1.000  H
  H261     1.0000 0.35680  0.78700  0.79440  Biso   1.000  H
  C371     1.0000 0.44400  0.31270  0.72970  Biso   1.000  C
  O206     1.0000 0.99860  0.55830  0.00120  Biso   1.000  O
  O207     1.0000 0.84510  0.85010  0.22430  Biso   1.000  O
  O208     1.0000 0.11140  0.99780  0.99380  Biso   1.000  O
  O209     1.0000 0.80540  0.97720  0.82470  Biso   1.000  O
  O210     1.0000 0.71300  0.93890  0.19200  Biso   1.000  O
  H262     1.0000 0.47400  0.20040  0.97700  Biso   1.000  H
  H263     1.0000 0.38450  0.24130  0.98930  Biso   1.000  H
  H264     1.0000 0.43330  0.24180  0.95390  Biso   1.000  H
  C372     1.0000 0.40600  0.22180  0.97120  Biso   1.000  C
  C373     1.0000 0.75770  0.00190  0.91430  Biso   1.000  C
  C374     1.0000 0.70620  0.96220  0.93270  Biso   1.000  C
  C375     1.0000 0.73030  0.91650  0.92260  Biso   1.000  C
  H265     1.0000 0.77930  0.91120  0.90440  Biso   1.000  H
  C376     1.0000 0.68300  0.87920  0.93910  Biso   1.000  C
  C377     1.0000 0.70400  0.82980  0.92748  Biso   1.000  C
  C378     1.0000 0.61330  0.88620  0.96640  Biso   1.000  C
  H266     1.0000 0.58250  0.86040  0.97810  Biso   1.000  H
  C379     1.0000 0.59000  0.93230  0.97600  Biso   1.000  C
  C380     1.0000 0.63450  0.96990  0.95870  Biso   1.000  C
  H267     1.0000 0.61520  0.00100  0.96490  Biso   1.000  H
  C381     1.0000 0.51100  0.91080  0.02440  Biso   1.000  C
  H268     1.0000 0.48260  0.92340  0.04460  Biso   1.000  H
  H269     1.0000 0.44150  0.89470  0.01400  Biso   1.000  H
  H270     1.0000 0.57900  0.88860  0.02790  Biso   1.000  H
  C382     1.0000 0.55090  0.69790  0.87469  Biso   1.000  C
  C383     1.0000 0.43660  0.69150  0.85460  Biso   1.000  C
  C384     1.0000 0.32460  0.71200  0.86330  Biso   1.000  C
  H271     1.0000 0.32090  0.73190  0.88120  Biso   1.000  H
  C385     1.0000 0.21840  0.70350  0.84580  Biso   1.000  C
  C386     1.0000 0.09360  0.72210  0.85620  Biso   1.000  C
  C387     1.0000 0.21590  0.66190  0.82320  Biso   1.000  C
  H272     1.0000 0.14040  0.65120  0.81400  Biso   1.000  H
  C388     1.0000 0.32530  0.64100  0.81680  Biso   1.000  C
  C389     1.0000 0.43380  0.65370  0.83270  Biso   1.000  C
  H273     1.0000 0.50820  0.63660  0.82880  Biso   1.000  H
  C390     1.0000 0.23600  0.58290  0.78220  Biso   1.000  C
  C391     1.0000 0.67240  0.65650  0.96130  Biso   1.000  C
  C392     1.0000 0.63820  0.62660  0.98860  Biso   1.000  C
  C393     1.0000 0.59210  0.64730  0.01640  Biso   1.000  C
  H274     1.0000 0.57900  0.68010  0.01740  Biso   1.000  H
  C394     1.0000 0.56640  0.61960  0.04190  Biso   1.000  C
  C395     1.0000 0.53060  0.64150  0.07270  Biso   1.000  C
  C396     1.0000 0.60300  0.56960  0.04040  Biso   1.000  C
  H275     1.0000 0.59560  0.55040  0.05850  Biso   1.000  H
  C397     1.0000 0.64800  0.55140  0.01390  Biso   1.000  C
  C398     1.0000 0.68500  0.58060  0.98810  Biso   1.000  C
  H276     1.0000 0.73860  0.56960  0.97190  Biso   1.000  H
  C399     1.0000 0.65700  0.47330  0.03410  Biso   1.000  C
  H277     1.0000 0.68520  0.44200  0.02790  Biso   1.000  H
  H278     1.0000 0.70160  0.48310  0.05310  Biso   1.000  H
  H279     1.0000 0.56750  0.47270  0.03830  Biso   1.000  H
  C400     1.0000 0.27600  0.70300  0.16344  Biso   1.000  C
  C401     1.0000 0.19560  0.66600  0.17730  Biso   1.000  C
  C402     1.0000 0.22840  0.61890  0.17260  Biso   1.000  C
  H280     1.0000 0.30400  0.61200  0.16200  Biso   1.000  H
  C403     1.0000 0.15500  0.58260  0.18280  Biso   1.000  C
  C404     1.0000 0.19180  0.53220  0.17470  Biso   1.000  C
  C405     1.0000 0.04960  0.59410  0.19810  Biso   1.000  C
  H281     1.0000 0.99650  0.56950  0.20490  Biso   1.000  H
  C406     1.0000 0.01270  0.64200  0.20470  Biso   1.000  C
  C407     1.0000 0.08730  0.67800  0.19340  Biso   1.000  C
  H282     1.0000 0.06510  0.70990  0.19660  Biso   1.000  H
  C408     1.0000 0.81600  0.61300  0.22650  Biso   1.000  C
  H283     1.0000 0.74370  0.62540  0.23770  Biso   1.000  H
  H284     1.0000 0.78910  0.59920  0.20660  Biso   1.000  H
  H285     1.0000 0.85700  0.58910  0.23930  Biso   1.000  H
  C409     1.0000 0.01660  0.39080  0.11940  Biso   1.000  C
  C410     1.0000 0.90200  0.37980  0.10170  Biso   1.000  C
  C411     1.0000 0.78970  0.40170  0.10940  Biso   1.000  C
  H286     1.0000 0.78690  0.42410  0.12590  Biso   1.000  H
  C412     1.0000 0.68300  0.39070  0.09300  Biso   1.000  C
  C413     1.0000 0.56170  0.41330  0.10220  Biso   1.000  C
  C414     1.0000 0.68530  0.35770  0.06910  Biso   1.000  C
  H287     1.0000 0.61110  0.35030  0.05800  Biso   1.000  H
  C415     1.0000 0.79460  0.33560  0.06160  Biso   1.000  C
  C416     1.0000 0.90390  0.34720  0.07780  Biso   1.000  C
  H288     1.0000 0.98020  0.33250  0.07230  Biso   1.000  H
  C417     1.0000 0.70160  0.29310  0.01990  Biso   1.000  C
  H289     1.0000 0.63140  0.31230  0.02690  Biso   1.000  H
  H290     1.0000 0.71920  0.29960  0.99780  Biso   1.000  H
  H291     1.0000 0.68070  0.25990  0.02240  Biso   1.000  H
  C418     1.0000 0.14140  0.36360  0.20408  Biso   1.000  C
  C419     1.0000 0.06980  0.33640  0.22811  Biso   1.000  C
  C420     1.0000 0.07360  0.28710  0.22810  Biso   1.000  C
  C421     1.0000 0.02490  0.26380  0.24970  Biso   1.000  C
  C422     1.0000 0.99100  0.18820  0.27340  Biso   1.000  C
  O211     1.0000 0.71200  0.04183  0.91809  Biso   1.000  O
  O212     1.0000 0.83790  0.72821  0.89994  Biso   1.000  O
  O213     1.0000 0.84620  0.99200  0.89620  Biso   1.000  O
  O214     1.0000 0.30840  0.42565  0.14483  Biso   1.000  O
  O215     1.0000 0.75500  0.82450  0.90180  Biso   1.000  O
  O216     1.0000 0.66240  0.79710  0.94439  Biso   1.000  O
  O217     1.0000 0.55000  0.94530  0.00650  Biso   1.000  O
  O218     1.0000 0.54460  0.72730  0.89619  Biso   1.000  O
  O219     1.0000 0.64360  0.67203  0.86866  Biso   1.000  O
  O220     1.0000 0.09180  0.75550  0.87555  Biso   1.000  O
  O221     1.0000 0.99940  0.70200  0.84501  Biso   1.000  O
  O222     1.0000 0.34120  0.60410  0.79570  Biso   1.000  O
  O223     1.0000 0.63700  0.69880  0.96244  Biso   1.000  O
  O224     1.0000 0.73930  0.64100  0.93941  Biso   1.000  O
  O225     1.0000 0.49270  0.68380  0.07125  Biso   1.000  O
  O226     1.0000 0.54110  0.61920  0.09781  Biso   1.000  O
  O227     1.0000 0.68200  0.50460  0.01020  Biso   1.000  O
  O228     1.0000 0.37980  0.69080  0.15245  Biso   1.000  O
  O229     1.0000 0.23520  0.74425  0.16399  Biso   1.000  O
  O230     1.0000 0.29000  0.52800  0.16080  Biso   1.000  O
  O231     1.0000 0.11260  0.50490  0.17660  Biso   1.000  O
  O232     1.0000 0.90540  0.65180  0.22010  Biso   1.000  O
  O233     1.0000 0.01100  0.42310  0.13973  Biso   1.000  O
  O234     1.0000 0.11630  0.36820  0.11375  Biso   1.000  O
  O235     1.0000 0.56890  0.44500  0.12290  Biso   1.000  O
  O236     1.0000 0.46680  0.39970  0.08890  Biso   1.000  O
  O237     1.0000 0.80540  0.30350  0.03774  Biso   1.000  O
  O238     1.0000 0.12820  0.40790  0.20515  Biso   1.000  O
  O239     1.0000 0.20670  0.34370  0.18366  Biso   1.000  O
  O240     1.0000 0.03760  0.21540  0.24840  Biso   1.000  O
  Zn37     1.0000 0.92914  0.01845  0.85801  Biso   1.000  Zn
  Zn38     1.0000 0.68615  0.73585  0.92564  Biso   1.000  Zn
  Zn39     1.0000 0.43194  0.71181  0.10983  Biso   1.000  Zn
  Zn40     1.0000 0.31629  0.80118  0.14469  Biso   1.000  Zn
  Zn41     1.0000 0.15271  0.44170  0.16575  Biso   1.000  Zn
  Zn42     1.0000 0.28623  0.39921  0.09965  Biso   1.000  Zn
  H292     1.0000 0.04800  0.51200  0.19080  Biso   1.000  H
  C423     1.0000 0.45000  0.90340  0.01700  Biso   1.000  C
  H293     1.0000 0.38610  0.91520  0.03150  Biso   1.000  H
  H294     1.0000 0.41240  0.88020  0.00290  Biso   1.000  H
  H295     1.0000 0.51720  0.88880  0.02900  Biso   1.000  H
  C424     1.0000 0.23190  0.68710  0.81650  Biso   1.000  C
  H296     1.0000 0.16180  0.68630  0.80290  Biso   1.000  H
  C425     1.0000 0.34800  0.67100  0.80540  Biso   1.000  C
  C426     1.0000 0.45220  0.67480  0.82410  Biso   1.000  C
  H297     1.0000 0.53210  0.66630  0.81640  Biso   1.000  H
  C427     1.0000 0.46100  0.63470  0.76170  Biso   1.000  C
  C428     1.0000 0.55700  0.57170  0.04040  Biso   1.000  C
  H298     1.0000 0.52580  0.55400  0.05750  Biso   1.000  H
  C429     1.0000 0.59600  0.54980  0.01240  Biso   1.000  C
  C430     1.0000 0.63100  0.57730  0.98640  Biso   1.000  C
  H299     1.0000 0.65040  0.56250  0.96700  Biso   1.000  H
  C431     1.0000 0.58500  0.47410  0.03280  Biso   1.000  C
  H300     1.0000 0.59660  0.44100  0.02740  Biso   1.000  H
  H301     1.0000 0.64170  0.48250  0.04990  Biso   1.000  H
  H302     1.0000 0.49880  0.47930  0.03940  Biso   1.000  H
  C432     1.0000 0.86740  0.69660  0.22560  Biso   1.000  C
  H303     1.0000 0.78800  0.69610  0.23690  Biso   1.000  H
  H304     1.0000 0.93010  0.71280  0.23830  Biso   1.000  H
  H305     1.0000 0.85680  0.71300  0.20560  Biso   1.000  H
  C433     1.0000 0.94400  0.18730  0.27030  Biso   1.000  C
  O241     1.0000 0.49860  0.94170  0.99880  Biso   1.000  O
  O242     1.0000 0.34510  0.64990  0.77570  Biso   1.000  O
  O243     1.0000 0.61140  0.50220  0.00620  Biso   1.000  O
  O244     1.0000 0.30540  0.52280  0.17530  Biso   1.000  O
  O245     1.0000 0.21300  0.56110  0.80800  Biso   1.000  O
  H306     1.0000 0.97400  0.29960  0.02300  Biso   1.000  H
  H307     1.0000 0.88450  0.25870  0.01070  Biso   1.000  H
  H308     1.0000 0.93330  0.25820  0.04610  Biso   1.000  H
  C434     1.0000 0.90600  0.27820  0.02880  Biso   1.000  C
  C435     1.0000 0.74230  0.49810  0.41430  Biso   1.000  C
  C436     1.0000 0.79380  0.53780  0.43270  Biso   1.000  C
  C437     1.0000 0.76970  0.58350  0.42260  Biso   1.000  C
  H309     1.0000 0.72070  0.58880  0.40440  Biso   1.000  H
  C438     1.0000 0.81700  0.62080  0.43910  Biso   1.000  C
  C439     1.0000 0.79600  0.67020  0.42748  Biso   1.000  C
  C440     1.0000 0.88670  0.61380  0.46640  Biso   1.000  C
  H310     1.0000 0.91750  0.63960  0.47810  Biso   1.000  H
  C441     1.0000 0.91000  0.56770  0.47600  Biso   1.000  C
  C442     1.0000 0.86550  0.53010  0.45870  Biso   1.000  C
  H311     1.0000 0.88480  0.49900  0.46490  Biso   1.000  H
  C443     1.0000 0.98900  0.58920  0.52440  Biso   1.000  C
  H312     1.0000 0.01740  0.57660  0.54460  Biso   1.000  H
  H313     1.0000 0.05850  0.60530  0.51400  Biso   1.000  H
  H314     1.0000 0.92100  0.61140  0.52790  Biso   1.000  H
  C444     1.0000 0.94910  0.80210  0.37469  Biso   1.000  C
  C445     1.0000 0.06340  0.80850  0.35460  Biso   1.000  C
  C446     1.0000 0.17540  0.78800  0.36330  Biso   1.000  C
  H315     1.0000 0.17910  0.76810  0.38120  Biso   1.000  H
  C447     1.0000 0.28160  0.79650  0.34580  Biso   1.000  C
  C448     1.0000 0.40640  0.77790  0.35620  Biso   1.000  C
  C449     1.0000 0.28410  0.83810  0.32320  Biso   1.000  C
  H316     1.0000 0.35960  0.84880  0.31400  Biso   1.000  H
  C450     1.0000 0.17470  0.85900  0.31680  Biso   1.000  C
  C451     1.0000 0.06620  0.84630  0.33270  Biso   1.000  C
  H317     1.0000 0.99180  0.86340  0.32880  Biso   1.000  H
  C452     1.0000 0.26400  0.91710  0.28220  Biso   1.000  C
  C453     1.0000 0.82760  0.84350  0.46130  Biso   1.000  C
  C454     1.0000 0.86180  0.87340  0.48860  Biso   1.000  C
  C455     1.0000 0.90790  0.85270  0.51640  Biso   1.000  C
  H318     1.0000 0.92100  0.81990  0.51740  Biso   1.000  H
  C456     1.0000 0.93360  0.88040  0.54190  Biso   1.000  C
  C457     1.0000 0.96940  0.85850  0.57270  Biso   1.000  C
  C458     1.0000 0.89700  0.93040  0.54040  Biso   1.000  C
  H319     1.0000 0.90440  0.94960  0.55850  Biso   1.000  H
  C459     1.0000 0.85200  0.94860  0.51390  Biso   1.000  C
  C460     1.0000 0.81500  0.91940  0.48810  Biso   1.000  C
  H320     1.0000 0.76140  0.93040  0.47190  Biso   1.000  H
  C461     1.0000 0.84300  0.02670  0.53410  Biso   1.000  C
  H321     1.0000 0.81480  0.05800  0.52790  Biso   1.000  H
  H322     1.0000 0.79840  0.01690  0.55310  Biso   1.000  H
  H323     1.0000 0.93250  0.02730  0.53830  Biso   1.000  H
  C462     1.0000 0.22400  0.79700  0.66344  Biso   1.000  C
  C463     1.0000 0.30440  0.83400  0.67730  Biso   1.000  C
  C464     1.0000 0.27160  0.88110  0.67260  Biso   1.000  C
  H324     1.0000 0.19600  0.88800  0.66200  Biso   1.000  H
  C465     1.0000 0.34500  0.91740  0.68280  Biso   1.000  C
  C466     1.0000 0.30820  0.96780  0.67470  Biso   1.000  C
  C467     1.0000 0.45040  0.90590  0.69810  Biso   1.000  C
  H325     1.0000 0.50350  0.93050  0.70490  Biso   1.000  H
  C468     1.0000 0.48730  0.85800  0.70470  Biso   1.000  C
  C469     1.0000 0.41270  0.82200  0.69340  Biso   1.000  C
  H326     1.0000 0.43490  0.79010  0.69660  Biso   1.000  H
  C470     1.0000 0.68400  0.88700  0.72650  Biso   1.000  C
  H327     1.0000 0.75630  0.87460  0.73770  Biso   1.000  H
  H328     1.0000 0.71090  0.90080  0.70660  Biso   1.000  H
  H329     1.0000 0.64300  0.91090  0.73930  Biso   1.000  H
  C471     1.0000 0.48340  0.10920  0.61940  Biso   1.000  C
  C472     1.0000 0.59800  0.12020  0.60170  Biso   1.000  C
  C473     1.0000 0.71030  0.09830  0.60940  Biso   1.000  C
  H330     1.0000 0.71310  0.07590  0.62590  Biso   1.000  H
  C474     1.0000 0.81700  0.10930  0.59300  Biso   1.000  C
  C475     1.0000 0.93830  0.08670  0.60220  Biso   1.000  C
  C476     1.0000 0.81470  0.14230  0.56910  Biso   1.000  C
  H331     1.0000 0.88890  0.14970  0.55800  Biso   1.000  H
  C477     1.0000 0.70540  0.16440  0.56160  Biso   1.000  C
  C478     1.0000 0.59610  0.15280  0.57780  Biso   1.000  C
  H332     1.0000 0.51980  0.16750  0.57230  Biso   1.000  H
  C479     1.0000 0.79840  0.20690  0.51990  Biso   1.000  C
  H333     1.0000 0.86860  0.18770  0.52690  Biso   1.000  H
  H334     1.0000 0.78080  0.20040  0.49780  Biso   1.000  H
  H335     1.0000 0.81930  0.24010  0.52240  Biso   1.000  H
  C480     1.0000 0.35860  0.13640  0.70408  Biso   1.000  C
  C481     1.0000 0.43020  0.16360  0.72811  Biso   1.000  C
  C482     1.0000 0.42640  0.21290  0.72810  Biso   1.000  C
  C483     1.0000 0.47510  0.23620  0.74970  Biso   1.000  C
  C484     1.0000 0.50900  0.31180  0.77340  Biso   1.000  C
  O246     1.0000 0.78800  0.45817  0.41809  Biso   1.000  O
  O247     1.0000 0.66210  0.77179  0.39994  Biso   1.000  O
  O248     1.0000 0.65380  0.50800  0.39620  Biso   1.000  O
  O249     1.0000 0.19160  0.07435  0.64483  Biso   1.000  O
  O250     1.0000 0.74500  0.67550  0.40180  Biso   1.000  O
  O251     1.0000 0.83760  0.70290  0.44439  Biso   1.000  O
  O252     1.0000 0.95000  0.55470  0.50650  Biso   1.000  O
  O253     1.0000 0.95540  0.77270  0.39619  Biso   1.000  O
  O254     1.0000 0.85640  0.82797  0.36866  Biso   1.000  O
  O255     1.0000 0.40820  0.74450  0.37555  Biso   1.000  O
  O256     1.0000 0.50060  0.79800  0.34501  Biso   1.000  O
  O257     1.0000 0.15880  0.89590  0.29570  Biso   1.000  O
  O258     1.0000 0.86300  0.80120  0.46244  Biso   1.000  O
  O259     1.0000 0.76070  0.85900  0.43941  Biso   1.000  O
  O260     1.0000 0.00730  0.81620  0.57125  Biso   1.000  O
  O261     1.0000 0.95890  0.88080  0.59781  Biso   1.000  O
  O262     1.0000 0.81800  0.99540  0.51020  Biso   1.000  O
  O263     1.0000 0.12020  0.80920  0.65245  Biso   1.000  O
  O264     1.0000 0.26480  0.75575  0.66399  Biso   1.000  O
  O265     1.0000 0.21000  0.97200  0.66080  Biso   1.000  O
  O266     1.0000 0.38740  0.99510  0.67660  Biso   1.000  O
  O267     1.0000 0.59460  0.84820  0.72010  Biso   1.000  O
  O268     1.0000 0.48900  0.07690  0.63973  Biso   1.000  O
  O269     1.0000 0.38370  0.13180  0.61375  Biso   1.000  O
  O270     1.0000 0.93110  0.05500  0.62290  Biso   1.000  O
  O271     1.0000 0.03320  0.10030  0.58890  Biso   1.000  O
  O272     1.0000 0.69460  0.19650  0.53774  Biso   1.000  O
  O273     1.0000 0.37180  0.09210  0.70515  Biso   1.000  O
  O274     1.0000 0.29330  0.15630  0.68366  Biso   1.000  O
  O275     1.0000 0.46240  0.28460  0.74840  Biso   1.000  O
  Zn43     1.0000 0.57086  0.48155  0.35801  Biso   1.000  Zn
  Zn44     1.0000 0.81385  0.76415  0.42564  Biso   1.000  Zn
  Zn45     1.0000 0.06806  0.78819  0.60983  Biso   1.000  Zn
  Zn46     1.0000 0.18371  0.69882  0.64469  Biso   1.000  Zn
  Zn47     1.0000 0.34729  0.05830  0.66575  Biso   1.000  Zn
  Zn48     1.0000 0.21377  0.10079  0.59965  Biso   1.000  Zn
  H336     1.0000 0.45200  0.98800  0.69080  Biso   1.000  H
  C485     1.0000 0.05000  0.59660  0.51700  Biso   1.000  C
  H337     1.0000 0.11390  0.58480  0.53150  Biso   1.000  H
  H338     1.0000 0.08760  0.61980  0.50290  Biso   1.000  H
  H339     1.0000 0.98280  0.61120  0.52900  Biso   1.000  H
  C486     1.0000 0.26810  0.81290  0.31650  Biso   1.000  C
  H340     1.0000 0.33820  0.81370  0.30290  Biso   1.000  H
  C487     1.0000 0.15200  0.82900  0.30540  Biso   1.000  C
  C488     1.0000 0.04780  0.82520  0.32410  Biso   1.000  C
  H341     1.0000 0.96790  0.83370  0.31640  Biso   1.000  H
  C489     1.0000 0.03900  0.86530  0.26170  Biso   1.000  C
  C490     1.0000 0.94300  0.92830  0.54040  Biso   1.000  C
  H342     1.0000 0.97420  0.94600  0.55750  Biso   1.000  H
  C491     1.0000 0.90400  0.95020  0.51240  Biso   1.000  C
  C492     1.0000 0.86900  0.92270  0.48640  Biso   1.000  C
  H343     1.0000 0.84960  0.93750  0.46700  Biso   1.000  H
  C493     1.0000 0.91500  0.02590  0.53280  Biso   1.000  C
  H344     1.0000 0.90340  0.05900  0.52740  Biso   1.000  H
  H345     1.0000 0.85830  0.01750  0.54990  Biso   1.000  H
  H346     1.0000 0.00120  0.02070  0.53940  Biso   1.000  H
  C494     1.0000 0.63260  0.80340  0.72560  Biso   1.000  C
  H347     1.0000 0.71200  0.80390  0.73690  Biso   1.000  H
  H348     1.0000 0.56990  0.78720  0.73830  Biso   1.000  H
  H349     1.0000 0.64320  0.78700  0.70560  Biso   1.000  H
  C495     1.0000 0.55600  0.31270  0.77030  Biso   1.000  C
  O276     1.0000 0.00140  0.55830  0.49880  Biso   1.000  O
  O277     1.0000 0.15490  0.85010  0.27570  Biso   1.000  O
  O278     1.0000 0.88860  0.99780  0.50620  Biso   1.000  O
  O279     1.0000 0.19460  0.97720  0.67530  Biso   1.000  O
  O280     1.0000 0.28700  0.93890  0.30800  Biso   1.000  O
  H350     1.0000 0.52600  0.20040  0.52300  Biso   1.000  H
  H351     1.0000 0.61550  0.24130  0.51070  Biso   1.000  H
  H352     1.0000 0.56670  0.24180  0.54610  Biso   1.000  H
  C496     1.0000 0.59400  0.22180  0.52880  Biso   1.000  C
  C497     1.0000 0.00000  0.63920  0.75000  Biso   1.000  C
  C498     1.0000 0.50000  0.86080  0.25000  Biso   1.000  C
  C499     1.0000 0.00000  0.36080  0.25000  Biso   1.000  C
  C500     1.0000 0.50000  0.13920  0.75000  Biso   1.000  C
