data_image0
_cell_length_a       30.5539
_cell_length_b       30.5539
_cell_length_c       30.5539
_cell_angle_alpha    90
_cell_angle_beta     90
_cell_angle_gamma    90

_symmetry_space_group_name_H-M    "P 1"
_symmetry_int_tables_number       1

loop_
  _symmetry_equiv_pos_as_xyz
  'x, y, z'

loop_
  _atom_site_label
  _atom_site_occupancy
  _atom_site_fract_x
  _atom_site_fract_y
  _atom_site_fract_z
  _atom_site_thermal_displace_type
  _atom_site_B_iso_or_equiv
  _atom_site_type_symbol
  N1       1.0000 0.72870  0.53750  0.11680  Biso   1.000  N
  N2       1.0000 0.80890  0.61990  0.13760  Biso   1.000  N
  C1       1.0000 0.69350  0.52310  0.13970  Biso   1.000  C
  H1       1.0000 0.67220  0.54120  0.15340  Biso   1.000  H
  C2       1.0000 0.85180  0.61120  0.11380  Biso   1.000  C
  H2       1.0000 0.85570  0.60660  0.08330  Biso   1.000  H
  C3       1.0000 0.83240  0.66290  0.13060  Biso   1.000  C
  H3       1.0000 0.82650  0.68480  0.10930  Biso   1.000  H
  H4       1.0000 0.80490  0.46980  0.08380  Biso   1.000  H
  H5       1.0000 0.81400  0.51540  0.10780  Biso   1.000  H
  H6       1.0000 0.79540  0.51480  0.05890  Biso   1.000  H
  N3       1.0000 0.22870  0.03750  0.61680  Biso   1.000  N
  N4       1.0000 0.30890  0.11990  0.63760  Biso   1.000  N
  C4       1.0000 0.19350  0.02310  0.63970  Biso   1.000  C
  H7       1.0000 0.17220  0.04120  0.65340  Biso   1.000  H
  C5       1.0000 0.35180  0.11120  0.61380  Biso   1.000  C
  H8       1.0000 0.35570  0.10660  0.58330  Biso   1.000  H
  C6       1.0000 0.33240  0.16290  0.63060  Biso   1.000  C
  H9       1.0000 0.32650  0.18480  0.60930  Biso   1.000  H
  H10      1.0000 0.30490  0.96980  0.58380  Biso   1.000  H
  H11      1.0000 0.31400  0.01540  0.60780  Biso   1.000  H
  H12      1.0000 0.29540  0.01480  0.55890  Biso   1.000  H
  N5       1.0000 0.27130  0.46250  0.11680  Biso   1.000  N
  N6       1.0000 0.19110  0.38010  0.13760  Biso   1.000  N
  C7       1.0000 0.30650  0.47690  0.13970  Biso   1.000  C
  H13      1.0000 0.32780  0.45880  0.15340  Biso   1.000  H
  C8       1.0000 0.14820  0.38880  0.11380  Biso   1.000  C
  H14      1.0000 0.14430  0.39340  0.08330  Biso   1.000  H
  C9       1.0000 0.16760  0.33710  0.13060  Biso   1.000  C
  H15      1.0000 0.17350  0.31520  0.10930  Biso   1.000  H
  H16      1.0000 0.19510  0.53020  0.08380  Biso   1.000  H
  H17      1.0000 0.18600  0.48460  0.10780  Biso   1.000  H
  H18      1.0000 0.20460  0.48520  0.05890  Biso   1.000  H
  N7       1.0000 0.77130  0.96250  0.61680  Biso   1.000  N
  N8       1.0000 0.69110  0.88010  0.63760  Biso   1.000  N
  C10      1.0000 0.80650  0.97690  0.63970  Biso   1.000  C
  H19      1.0000 0.82780  0.95880  0.65340  Biso   1.000  H
  C11      1.0000 0.64820  0.88880  0.61380  Biso   1.000  C
  H20      1.0000 0.64430  0.89340  0.58330  Biso   1.000  H
  C12      1.0000 0.66760  0.83710  0.63060  Biso   1.000  C
  H21      1.0000 0.67350  0.81520  0.60930  Biso   1.000  H
  H22      1.0000 0.69510  0.03020  0.58380  Biso   1.000  H
  H23      1.0000 0.68600  0.98460  0.60780  Biso   1.000  H
  H24      1.0000 0.70460  0.98520  0.55890  Biso   1.000  H
  N9       1.0000 0.27130  0.53750  0.88320  Biso   1.000  N
  N10      1.0000 0.19110  0.61990  0.86240  Biso   1.000  N
  C13      1.0000 0.30650  0.52310  0.86030  Biso   1.000  C
  H25      1.0000 0.32780  0.54120  0.84660  Biso   1.000  H
  C14      1.0000 0.14820  0.61120  0.88620  Biso   1.000  C
  H26      1.0000 0.14430  0.60660  0.91670  Biso   1.000  H
  C15      1.0000 0.16760  0.66290  0.86940  Biso   1.000  C
  H27      1.0000 0.17350  0.68480  0.89070  Biso   1.000  H
  H28      1.0000 0.19510  0.46980  0.91620  Biso   1.000  H
  H29      1.0000 0.18600  0.51540  0.89220  Biso   1.000  H
  H30      1.0000 0.20460  0.51480  0.94110  Biso   1.000  H
  N11      1.0000 0.77130  0.03750  0.38320  Biso   1.000  N
  N12      1.0000 0.69110  0.11990  0.36240  Biso   1.000  N
  C16      1.0000 0.80650  0.02310  0.36030  Biso   1.000  C
  H31      1.0000 0.82780  0.04120  0.34660  Biso   1.000  H
  C17      1.0000 0.64820  0.11120  0.38620  Biso   1.000  C
  H32      1.0000 0.64430  0.10660  0.41670  Biso   1.000  H
  C18      1.0000 0.66760  0.16290  0.36940  Biso   1.000  C
  H33      1.0000 0.67350  0.18480  0.39070  Biso   1.000  H
  H34      1.0000 0.69510  0.96980  0.41620  Biso   1.000  H
  H35      1.0000 0.68600  0.01540  0.39220  Biso   1.000  H
  H36      1.0000 0.70460  0.01480  0.44110  Biso   1.000  H
  N13      1.0000 0.72870  0.46250  0.88320  Biso   1.000  N
  N14      1.0000 0.80890  0.38010  0.86240  Biso   1.000  N
  C19      1.0000 0.69350  0.47690  0.86030  Biso   1.000  C
  H37      1.0000 0.67220  0.45880  0.84660  Biso   1.000  H
  C20      1.0000 0.85180  0.38880  0.88620  Biso   1.000  C
  H38      1.0000 0.85570  0.39340  0.91670  Biso   1.000  H
  C21      1.0000 0.83240  0.33710  0.86940  Biso   1.000  C
  H39      1.0000 0.82650  0.31520  0.89070  Biso   1.000  H
  H40      1.0000 0.80490  0.53020  0.91620  Biso   1.000  H
  H41      1.0000 0.81400  0.48460  0.89220  Biso   1.000  H
  H42      1.0000 0.79540  0.48520  0.94110  Biso   1.000  H
  N15      1.0000 0.22870  0.96250  0.38320  Biso   1.000  N
  N16      1.0000 0.30890  0.88010  0.36240  Biso   1.000  N
  C22      1.0000 0.19350  0.97690  0.36030  Biso   1.000  C
  H43      1.0000 0.17220  0.95880  0.34660  Biso   1.000  H
  C23      1.0000 0.35180  0.88880  0.38620  Biso   1.000  C
  H44      1.0000 0.35570  0.89340  0.41670  Biso   1.000  H
  C24      1.0000 0.33240  0.83710  0.36940  Biso   1.000  C
  H45      1.0000 0.32650  0.81520  0.39070  Biso   1.000  H
  H46      1.0000 0.30490  0.03020  0.41620  Biso   1.000  H
  H47      1.0000 0.31400  0.98460  0.39220  Biso   1.000  H
  H48      1.0000 0.29540  0.98520  0.44110  Biso   1.000  H
  N17      1.0000 0.11680  0.72870  0.53750  Biso   1.000  N
  N18      1.0000 0.13760  0.80890  0.61990  Biso   1.000  N
  C25      1.0000 0.13970  0.69350  0.52310  Biso   1.000  C
  H49      1.0000 0.15340  0.67220  0.54120  Biso   1.000  H
  C26      1.0000 0.11380  0.85180  0.61120  Biso   1.000  C
  H50      1.0000 0.08330  0.85570  0.60660  Biso   1.000  H
  C27      1.0000 0.13060  0.83240  0.66290  Biso   1.000  C
  H51      1.0000 0.10930  0.82650  0.68480  Biso   1.000  H
  H52      1.0000 0.08380  0.80490  0.46980  Biso   1.000  H
  H53      1.0000 0.10780  0.81400  0.51540  Biso   1.000  H
  H54      1.0000 0.05890  0.79540  0.51480  Biso   1.000  H
  N19      1.0000 0.61680  0.22870  0.03750  Biso   1.000  N
  N20      1.0000 0.63760  0.30890  0.11990  Biso   1.000  N
  C28      1.0000 0.63970  0.19350  0.02310  Biso   1.000  C
  H55      1.0000 0.65340  0.17220  0.04120  Biso   1.000  H
  C29      1.0000 0.61380  0.35180  0.11120  Biso   1.000  C
  H56      1.0000 0.58330  0.35570  0.10660  Biso   1.000  H
  C30      1.0000 0.63060  0.33240  0.16290  Biso   1.000  C
  H57      1.0000 0.60930  0.32650  0.18480  Biso   1.000  H
  H58      1.0000 0.58380  0.30490  0.96980  Biso   1.000  H
  H59      1.0000 0.60780  0.31400  0.01540  Biso   1.000  H
  H60      1.0000 0.55890  0.29540  0.01480  Biso   1.000  H
  N21      1.0000 0.11680  0.27130  0.46250  Biso   1.000  N
  N22      1.0000 0.13760  0.19110  0.38010  Biso   1.000  N
  C31      1.0000 0.13970  0.30650  0.47690  Biso   1.000  C
  H61      1.0000 0.15340  0.32780  0.45880  Biso   1.000  H
  C32      1.0000 0.11380  0.14820  0.38880  Biso   1.000  C
  H62      1.0000 0.08330  0.14430  0.39340  Biso   1.000  H
  C33      1.0000 0.13060  0.16760  0.33710  Biso   1.000  C
  H63      1.0000 0.10930  0.17350  0.31520  Biso   1.000  H
  H64      1.0000 0.08380  0.19510  0.53020  Biso   1.000  H
  H65      1.0000 0.10780  0.18600  0.48460  Biso   1.000  H
  H66      1.0000 0.05890  0.20460  0.48520  Biso   1.000  H
  N23      1.0000 0.61680  0.77130  0.96250  Biso   1.000  N
  N24      1.0000 0.63760  0.69110  0.88010  Biso   1.000  N
  C34      1.0000 0.63970  0.80650  0.97690  Biso   1.000  C
  H67      1.0000 0.65340  0.82780  0.95880  Biso   1.000  H
  C35      1.0000 0.61380  0.64820  0.88880  Biso   1.000  C
  H68      1.0000 0.58330  0.64430  0.89340  Biso   1.000  H
  C36      1.0000 0.63060  0.66760  0.83710  Biso   1.000  C
  H69      1.0000 0.60930  0.67350  0.81520  Biso   1.000  H
  H70      1.0000 0.58380  0.69510  0.03020  Biso   1.000  H
  H71      1.0000 0.60780  0.68600  0.98460  Biso   1.000  H
  H72      1.0000 0.55890  0.70460  0.98520  Biso   1.000  H
  N25      1.0000 0.88320  0.27130  0.53750  Biso   1.000  N
  N26      1.0000 0.86240  0.19110  0.61990  Biso   1.000  N
  C37      1.0000 0.86030  0.30650  0.52310  Biso   1.000  C
  H73      1.0000 0.84660  0.32780  0.54120  Biso   1.000  H
  C38      1.0000 0.88620  0.14820  0.61120  Biso   1.000  C
  H74      1.0000 0.91670  0.14430  0.60660  Biso   1.000  H
  C39      1.0000 0.86940  0.16760  0.66290  Biso   1.000  C
  H75      1.0000 0.89070  0.17350  0.68480  Biso   1.000  H
  H76      1.0000 0.91620  0.19510  0.46980  Biso   1.000  H
  H77      1.0000 0.89220  0.18600  0.51540  Biso   1.000  H
  H78      1.0000 0.94110  0.20460  0.51480  Biso   1.000  H
  N27      1.0000 0.38320  0.77130  0.03750  Biso   1.000  N
  N28      1.0000 0.36240  0.69110  0.11990  Biso   1.000  N
  C40      1.0000 0.36030  0.80650  0.02310  Biso   1.000  C
  H79      1.0000 0.34660  0.82780  0.04120  Biso   1.000  H
  C41      1.0000 0.38620  0.64820  0.11120  Biso   1.000  C
  H80      1.0000 0.41670  0.64430  0.10660  Biso   1.000  H
  C42      1.0000 0.36940  0.66760  0.16290  Biso   1.000  C
  H81      1.0000 0.39070  0.67350  0.18480  Biso   1.000  H
  H82      1.0000 0.41620  0.69510  0.96980  Biso   1.000  H
  H83      1.0000 0.39220  0.68600  0.01540  Biso   1.000  H
  H84      1.0000 0.44110  0.70460  0.01480  Biso   1.000  H
  N29      1.0000 0.88320  0.72870  0.46250  Biso   1.000  N
  N30      1.0000 0.86240  0.80890  0.38010  Biso   1.000  N
  C43      1.0000 0.86030  0.69350  0.47690  Biso   1.000  C
  H85      1.0000 0.84660  0.67220  0.45880  Biso   1.000  H
  C44      1.0000 0.88620  0.85180  0.38880  Biso   1.000  C
  H86      1.0000 0.91670  0.85570  0.39340  Biso   1.000  H
  C45      1.0000 0.86940  0.83240  0.33710  Biso   1.000  C
  H87      1.0000 0.89070  0.82650  0.31520  Biso   1.000  H
  H88      1.0000 0.91620  0.80490  0.53020  Biso   1.000  H
  H89      1.0000 0.89220  0.81400  0.48460  Biso   1.000  H
  H90      1.0000 0.94110  0.79540  0.48520  Biso   1.000  H
  N31      1.0000 0.38320  0.22870  0.96250  Biso   1.000  N
  N32      1.0000 0.36240  0.30890  0.88010  Biso   1.000  N
  C46      1.0000 0.36030  0.19350  0.97690  Biso   1.000  C
  H91      1.0000 0.34660  0.17220  0.95880  Biso   1.000  H
  C47      1.0000 0.38620  0.35180  0.88880  Biso   1.000  C
  H92      1.0000 0.41670  0.35570  0.89340  Biso   1.000  H
  C48      1.0000 0.36940  0.33240  0.83710  Biso   1.000  C
  H93      1.0000 0.39070  0.32650  0.81520  Biso   1.000  H
  H94      1.0000 0.41620  0.30490  0.03020  Biso   1.000  H
  H95      1.0000 0.39220  0.31400  0.98460  Biso   1.000  H
  H96      1.0000 0.44110  0.29540  0.98520  Biso   1.000  H
  N33      1.0000 0.53750  0.11680  0.72870  Biso   1.000  N
  N34      1.0000 0.61990  0.13760  0.80890  Biso   1.000  N
  C49      1.0000 0.52310  0.13970  0.69350  Biso   1.000  C
  H97      1.0000 0.54120  0.15340  0.67220  Biso   1.000  H
  C50      1.0000 0.61120  0.11380  0.85180  Biso   1.000  C
  H98      1.0000 0.60660  0.08330  0.85570  Biso   1.000  H
  C51      1.0000 0.66290  0.13060  0.83240  Biso   1.000  C
  H99      1.0000 0.68480  0.10930  0.82650  Biso   1.000  H
  H100     1.0000 0.46980  0.08380  0.80490  Biso   1.000  H
  H101     1.0000 0.51540  0.10780  0.81400  Biso   1.000  H
  H102     1.0000 0.51480  0.05890  0.79540  Biso   1.000  H
  N35      1.0000 0.03750  0.61680  0.22870  Biso   1.000  N
  N36      1.0000 0.11990  0.63760  0.30890  Biso   1.000  N
  C52      1.0000 0.02310  0.63970  0.19350  Biso   1.000  C
  H103     1.0000 0.04120  0.65340  0.17220  Biso   1.000  H
  C53      1.0000 0.11120  0.61380  0.35180  Biso   1.000  C
  H104     1.0000 0.10660  0.58330  0.35570  Biso   1.000  H
  C54      1.0000 0.16290  0.63060  0.33240  Biso   1.000  C
  H105     1.0000 0.18480  0.60930  0.32650  Biso   1.000  H
  H106     1.0000 0.96980  0.58380  0.30490  Biso   1.000  H
  H107     1.0000 0.01540  0.60780  0.31400  Biso   1.000  H
  H108     1.0000 0.01480  0.55890  0.29540  Biso   1.000  H
  N37      1.0000 0.46250  0.11680  0.27130  Biso   1.000  N
  N38      1.0000 0.38010  0.13760  0.19110  Biso   1.000  N
  C55      1.0000 0.47690  0.13970  0.30650  Biso   1.000  C
  H109     1.0000 0.45880  0.15340  0.32780  Biso   1.000  H
  C56      1.0000 0.38880  0.11380  0.14820  Biso   1.000  C
  H110     1.0000 0.39340  0.08330  0.14430  Biso   1.000  H
  C57      1.0000 0.33710  0.13060  0.16760  Biso   1.000  C
  H111     1.0000 0.31520  0.10930  0.17350  Biso   1.000  H
  H112     1.0000 0.53020  0.08380  0.19510  Biso   1.000  H
  H113     1.0000 0.48460  0.10780  0.18600  Biso   1.000  H
  H114     1.0000 0.48520  0.05890  0.20460  Biso   1.000  H
  N39      1.0000 0.96250  0.61680  0.77130  Biso   1.000  N
  N40      1.0000 0.88010  0.63760  0.69110  Biso   1.000  N
  C58      1.0000 0.97690  0.63970  0.80650  Biso   1.000  C
  H115     1.0000 0.95880  0.65340  0.82780  Biso   1.000  H
  C59      1.0000 0.88880  0.61380  0.64820  Biso   1.000  C
  H116     1.0000 0.89340  0.58330  0.64430  Biso   1.000  H
  C60      1.0000 0.83710  0.63060  0.66760  Biso   1.000  C
  H117     1.0000 0.81520  0.60930  0.67350  Biso   1.000  H
  H118     1.0000 0.03020  0.58380  0.69510  Biso   1.000  H
  H119     1.0000 0.98460  0.60780  0.68600  Biso   1.000  H
  H120     1.0000 0.98520  0.55890  0.70460  Biso   1.000  H
  N41      1.0000 0.53750  0.88320  0.27130  Biso   1.000  N
  N42      1.0000 0.61990  0.86240  0.19110  Biso   1.000  N
  C61      1.0000 0.52310  0.86030  0.30650  Biso   1.000  C
  H121     1.0000 0.54120  0.84660  0.32780  Biso   1.000  H
  C62      1.0000 0.61120  0.88620  0.14820  Biso   1.000  C
  H122     1.0000 0.60660  0.91670  0.14430  Biso   1.000  H
  C63      1.0000 0.66290  0.86940  0.16760  Biso   1.000  C
  H123     1.0000 0.68480  0.89070  0.17350  Biso   1.000  H
  H124     1.0000 0.46980  0.91620  0.19510  Biso   1.000  H
  H125     1.0000 0.51540  0.89220  0.18600  Biso   1.000  H
  H126     1.0000 0.51480  0.94110  0.20460  Biso   1.000  H
  N43      1.0000 0.03750  0.38320  0.77130  Biso   1.000  N
  N44      1.0000 0.11990  0.36240  0.69110  Biso   1.000  N
  C64      1.0000 0.02310  0.36030  0.80650  Biso   1.000  C
  H127     1.0000 0.04120  0.34660  0.82780  Biso   1.000  H
  C65      1.0000 0.11120  0.38620  0.64820  Biso   1.000  C
  H128     1.0000 0.10660  0.41670  0.64430  Biso   1.000  H
  C66      1.0000 0.16290  0.36940  0.66760  Biso   1.000  C
  H129     1.0000 0.18480  0.39070  0.67350  Biso   1.000  H
  H130     1.0000 0.96980  0.41620  0.69510  Biso   1.000  H
  H131     1.0000 0.01540  0.39220  0.68600  Biso   1.000  H
  H132     1.0000 0.01480  0.44110  0.70460  Biso   1.000  H
  N45      1.0000 0.46250  0.88320  0.72870  Biso   1.000  N
  N46      1.0000 0.38010  0.86240  0.80890  Biso   1.000  N
  C67      1.0000 0.47690  0.86030  0.69350  Biso   1.000  C
  H133     1.0000 0.45880  0.84660  0.67220  Biso   1.000  H
  C68      1.0000 0.38880  0.88620  0.85180  Biso   1.000  C
  H134     1.0000 0.39340  0.91670  0.85570  Biso   1.000  H
  C69      1.0000 0.33710  0.86940  0.83240  Biso   1.000  C
  H135     1.0000 0.31520  0.89070  0.82650  Biso   1.000  H
  H136     1.0000 0.53020  0.91620  0.80490  Biso   1.000  H
  H137     1.0000 0.48460  0.89220  0.81400  Biso   1.000  H
  H138     1.0000 0.48520  0.94110  0.79540  Biso   1.000  H
  N47      1.0000 0.96250  0.38320  0.22870  Biso   1.000  N
  N48      1.0000 0.88010  0.36240  0.30890  Biso   1.000  N
  C70      1.0000 0.97690  0.36030  0.19350  Biso   1.000  C
  H139     1.0000 0.95880  0.34660  0.17220  Biso   1.000  H
  C71      1.0000 0.88880  0.38620  0.35180  Biso   1.000  C
  H140     1.0000 0.89340  0.41670  0.35570  Biso   1.000  H
  C72      1.0000 0.83710  0.36940  0.33240  Biso   1.000  C
  H141     1.0000 0.81520  0.39070  0.32650  Biso   1.000  H
  H142     1.0000 0.03020  0.41620  0.30490  Biso   1.000  H
  H143     1.0000 0.98460  0.39220  0.31400  Biso   1.000  H
  H144     1.0000 0.98520  0.44110  0.29540  Biso   1.000  H
  N49      1.0000 0.53750  0.72870  0.88320  Biso   1.000  N
  N50      1.0000 0.61990  0.80890  0.86240  Biso   1.000  N
  C73      1.0000 0.52310  0.69350  0.86030  Biso   1.000  C
  H145     1.0000 0.54120  0.67220  0.84660  Biso   1.000  H
  C74      1.0000 0.61120  0.85180  0.88620  Biso   1.000  C
  H146     1.0000 0.60660  0.85570  0.91670  Biso   1.000  H
  C75      1.0000 0.66290  0.83240  0.86940  Biso   1.000  C
  H147     1.0000 0.68480  0.82650  0.89070  Biso   1.000  H
  H148     1.0000 0.46980  0.80490  0.91620  Biso   1.000  H
  H149     1.0000 0.51540  0.81400  0.89220  Biso   1.000  H
  H150     1.0000 0.51480  0.79540  0.94110  Biso   1.000  H
  N51      1.0000 0.03750  0.22870  0.38320  Biso   1.000  N
  N52      1.0000 0.11990  0.30890  0.36240  Biso   1.000  N
  C76      1.0000 0.02310  0.19350  0.36030  Biso   1.000  C
  H151     1.0000 0.04120  0.17220  0.34660  Biso   1.000  H
  C77      1.0000 0.11120  0.35180  0.38620  Biso   1.000  C
  H152     1.0000 0.10660  0.35570  0.41670  Biso   1.000  H
  C78      1.0000 0.16290  0.33240  0.36940  Biso   1.000  C
  H153     1.0000 0.18480  0.32650  0.39070  Biso   1.000  H
  H154     1.0000 0.96980  0.30490  0.41620  Biso   1.000  H
  H155     1.0000 0.01540  0.31400  0.39220  Biso   1.000  H
  H156     1.0000 0.01480  0.29540  0.44110  Biso   1.000  H
  N53      1.0000 0.46250  0.27130  0.88320  Biso   1.000  N
  N54      1.0000 0.38010  0.19110  0.86240  Biso   1.000  N
  C79      1.0000 0.47690  0.30650  0.86030  Biso   1.000  C
  H157     1.0000 0.45880  0.32780  0.84660  Biso   1.000  H
  C80      1.0000 0.38880  0.14820  0.88620  Biso   1.000  C
  H158     1.0000 0.39340  0.14430  0.91670  Biso   1.000  H
  C81      1.0000 0.33710  0.16760  0.86940  Biso   1.000  C
  H159     1.0000 0.31520  0.17350  0.89070  Biso   1.000  H
  H160     1.0000 0.53020  0.19510  0.91620  Biso   1.000  H
  H161     1.0000 0.48460  0.18600  0.89220  Biso   1.000  H
  H162     1.0000 0.48520  0.20460  0.94110  Biso   1.000  H
  N55      1.0000 0.96250  0.77130  0.38320  Biso   1.000  N
  N56      1.0000 0.88010  0.69110  0.36240  Biso   1.000  N
  C82      1.0000 0.97690  0.80650  0.36030  Biso   1.000  C
  H163     1.0000 0.95880  0.82780  0.34660  Biso   1.000  H
  C83      1.0000 0.88880  0.64820  0.38620  Biso   1.000  C
  H164     1.0000 0.89340  0.64430  0.41670  Biso   1.000  H
  C84      1.0000 0.83710  0.66760  0.36940  Biso   1.000  C
  H165     1.0000 0.81520  0.67350  0.39070  Biso   1.000  H
  H166     1.0000 0.03020  0.69510  0.41620  Biso   1.000  H
  H167     1.0000 0.98460  0.68600  0.39220  Biso   1.000  H
  H168     1.0000 0.98520  0.70460  0.44110  Biso   1.000  H
  N57      1.0000 0.53750  0.27130  0.11680  Biso   1.000  N
  N58      1.0000 0.61990  0.19110  0.13760  Biso   1.000  N
  C85      1.0000 0.52310  0.30650  0.13970  Biso   1.000  C
  H169     1.0000 0.54120  0.32780  0.15340  Biso   1.000  H
  C86      1.0000 0.61120  0.14820  0.11380  Biso   1.000  C
  H170     1.0000 0.60660  0.14430  0.08330  Biso   1.000  H
  C87      1.0000 0.66290  0.16760  0.13060  Biso   1.000  C
  H171     1.0000 0.68480  0.17350  0.10930  Biso   1.000  H
  H172     1.0000 0.46980  0.19510  0.08380  Biso   1.000  H
  H173     1.0000 0.51540  0.18600  0.10780  Biso   1.000  H
  H174     1.0000 0.51480  0.20460  0.05890  Biso   1.000  H
  N59      1.0000 0.03750  0.77130  0.61680  Biso   1.000  N
  N60      1.0000 0.11990  0.69110  0.63760  Biso   1.000  N
  C88      1.0000 0.02310  0.80650  0.63970  Biso   1.000  C
  H175     1.0000 0.04120  0.82780  0.65340  Biso   1.000  H
  C89      1.0000 0.11120  0.64820  0.61380  Biso   1.000  C
  H176     1.0000 0.10660  0.64430  0.58330  Biso   1.000  H
  C90      1.0000 0.16290  0.66760  0.63060  Biso   1.000  C
  H177     1.0000 0.18480  0.67350  0.60930  Biso   1.000  H
  H178     1.0000 0.96980  0.69510  0.58380  Biso   1.000  H
  H179     1.0000 0.01540  0.68600  0.60780  Biso   1.000  H
  H180     1.0000 0.01480  0.70460  0.55890  Biso   1.000  H
  N61      1.0000 0.46250  0.72870  0.11680  Biso   1.000  N
  N62      1.0000 0.38010  0.80890  0.13760  Biso   1.000  N
  C91      1.0000 0.47690  0.69350  0.13970  Biso   1.000  C
  H181     1.0000 0.45880  0.67220  0.15340  Biso   1.000  H
  C92      1.0000 0.38880  0.85180  0.11380  Biso   1.000  C
  H182     1.0000 0.39340  0.85570  0.08330  Biso   1.000  H
  C93      1.0000 0.33710  0.83240  0.13060  Biso   1.000  C
  H183     1.0000 0.31520  0.82650  0.10930  Biso   1.000  H
  H184     1.0000 0.53020  0.80490  0.08380  Biso   1.000  H
  H185     1.0000 0.48460  0.81400  0.10780  Biso   1.000  H
  H186     1.0000 0.48520  0.79540  0.05890  Biso   1.000  H
  N63      1.0000 0.96250  0.22870  0.61680  Biso   1.000  N
  N64      1.0000 0.88010  0.30890  0.63760  Biso   1.000  N
  C94      1.0000 0.97690  0.19350  0.63970  Biso   1.000  C
  H187     1.0000 0.95880  0.17220  0.65340  Biso   1.000  H
  C95      1.0000 0.88880  0.35180  0.61380  Biso   1.000  C
  H188     1.0000 0.89340  0.35570  0.58330  Biso   1.000  H
  C96      1.0000 0.83710  0.33240  0.63060  Biso   1.000  C
  H189     1.0000 0.81520  0.32650  0.60930  Biso   1.000  H
  H190     1.0000 0.03020  0.30490  0.58380  Biso   1.000  H
  H191     1.0000 0.98460  0.31400  0.60780  Biso   1.000  H
  H192     1.0000 0.98520  0.29540  0.55890  Biso   1.000  H
  N65      1.0000 0.72870  0.11680  0.46250  Biso   1.000  N
  N66      1.0000 0.80890  0.13760  0.38010  Biso   1.000  N
  C97      1.0000 0.69350  0.13970  0.47690  Biso   1.000  C
  H193     1.0000 0.67220  0.15340  0.45880  Biso   1.000  H
  C98      1.0000 0.85180  0.11380  0.38880  Biso   1.000  C
  H194     1.0000 0.85570  0.08330  0.39340  Biso   1.000  H
  C99      1.0000 0.83240  0.13060  0.33710  Biso   1.000  C
  H195     1.0000 0.82650  0.10930  0.31520  Biso   1.000  H
  H196     1.0000 0.80490  0.08380  0.53020  Biso   1.000  H
  H197     1.0000 0.81400  0.10780  0.48460  Biso   1.000  H
  H198     1.0000 0.79540  0.05890  0.48520  Biso   1.000  H
  N67      1.0000 0.22870  0.61680  0.96250  Biso   1.000  N
  N68      1.0000 0.30890  0.63760  0.88010  Biso   1.000  N
  C100     1.0000 0.19350  0.63970  0.97690  Biso   1.000  C
  H199     1.0000 0.17220  0.65340  0.95880  Biso   1.000  H
  C101     1.0000 0.35180  0.61380  0.88880  Biso   1.000  C
  H200     1.0000 0.35570  0.58330  0.89340  Biso   1.000  H
  C102     1.0000 0.33240  0.63060  0.83710  Biso   1.000  C
  H201     1.0000 0.32650  0.60930  0.81520  Biso   1.000  H
  H202     1.0000 0.30490  0.58380  0.03020  Biso   1.000  H
  H203     1.0000 0.31400  0.60780  0.98460  Biso   1.000  H
  H204     1.0000 0.29540  0.55890  0.98520  Biso   1.000  H
  N69      1.0000 0.27130  0.11680  0.53750  Biso   1.000  N
  N70      1.0000 0.19110  0.13760  0.61990  Biso   1.000  N
  C103     1.0000 0.30650  0.13970  0.52310  Biso   1.000  C
  H205     1.0000 0.32780  0.15340  0.54120  Biso   1.000  H
  C104     1.0000 0.14820  0.11380  0.61120  Biso   1.000  C
  H206     1.0000 0.14430  0.08330  0.60660  Biso   1.000  H
  C105     1.0000 0.16760  0.13060  0.66290  Biso   1.000  C
  H207     1.0000 0.17350  0.10930  0.68480  Biso   1.000  H
  H208     1.0000 0.19510  0.08380  0.46980  Biso   1.000  H
  H209     1.0000 0.18600  0.10780  0.51540  Biso   1.000  H
  H210     1.0000 0.20460  0.05890  0.51480  Biso   1.000  H
  N71      1.0000 0.77130  0.61680  0.03750  Biso   1.000  N
  N72      1.0000 0.69110  0.63760  0.11990  Biso   1.000  N
  C106     1.0000 0.80650  0.63970  0.02310  Biso   1.000  C
  H211     1.0000 0.82780  0.65340  0.04120  Biso   1.000  H
  C107     1.0000 0.64820  0.61380  0.11120  Biso   1.000  C
  H212     1.0000 0.64430  0.58330  0.10660  Biso   1.000  H
  C108     1.0000 0.66760  0.63060  0.16290  Biso   1.000  C
  H213     1.0000 0.67350  0.60930  0.18480  Biso   1.000  H
  H214     1.0000 0.69510  0.58380  0.96980  Biso   1.000  H
  H215     1.0000 0.68600  0.60780  0.01540  Biso   1.000  H
  H216     1.0000 0.70460  0.55890  0.01480  Biso   1.000  H
  N73      1.0000 0.27130  0.88320  0.46250  Biso   1.000  N
  N74      1.0000 0.19110  0.86240  0.38010  Biso   1.000  N
  C109     1.0000 0.30650  0.86030  0.47690  Biso   1.000  C
  H217     1.0000 0.32780  0.84660  0.45880  Biso   1.000  H
  C110     1.0000 0.14820  0.88620  0.38880  Biso   1.000  C
  H218     1.0000 0.14430  0.91670  0.39340  Biso   1.000  H
  C111     1.0000 0.16760  0.86940  0.33710  Biso   1.000  C
  H219     1.0000 0.17350  0.89070  0.31520  Biso   1.000  H
  H220     1.0000 0.19510  0.91620  0.53020  Biso   1.000  H
  H221     1.0000 0.18600  0.89220  0.48460  Biso   1.000  H
  H222     1.0000 0.20460  0.94110  0.48520  Biso   1.000  H
  N75      1.0000 0.77130  0.38320  0.96250  Biso   1.000  N
  N76      1.0000 0.69110  0.36240  0.88010  Biso   1.000  N
  C112     1.0000 0.80650  0.36030  0.97690  Biso   1.000  C
  H223     1.0000 0.82780  0.34660  0.95880  Biso   1.000  H
  C113     1.0000 0.64820  0.38620  0.88880  Biso   1.000  C
  H224     1.0000 0.64430  0.41670  0.89340  Biso   1.000  H
  C114     1.0000 0.66760  0.36940  0.83710  Biso   1.000  C
  H225     1.0000 0.67350  0.39070  0.81520  Biso   1.000  H
  H226     1.0000 0.69510  0.41620  0.03020  Biso   1.000  H
  H227     1.0000 0.68600  0.39220  0.98460  Biso   1.000  H
  H228     1.0000 0.70460  0.44110  0.98520  Biso   1.000  H
  N77      1.0000 0.72870  0.88320  0.53750  Biso   1.000  N
  N78      1.0000 0.80890  0.86240  0.61990  Biso   1.000  N
  C115     1.0000 0.69350  0.86030  0.52310  Biso   1.000  C
  H229     1.0000 0.67220  0.84660  0.54120  Biso   1.000  H
  C116     1.0000 0.85180  0.88620  0.61120  Biso   1.000  C
  H230     1.0000 0.85570  0.91670  0.60660  Biso   1.000  H
  C117     1.0000 0.83240  0.86940  0.66290  Biso   1.000  C
  H231     1.0000 0.82650  0.89070  0.68480  Biso   1.000  H
  H232     1.0000 0.80490  0.91620  0.46980  Biso   1.000  H
  H233     1.0000 0.81400  0.89220  0.51540  Biso   1.000  H
  H234     1.0000 0.79540  0.94110  0.51480  Biso   1.000  H
  N79      1.0000 0.22870  0.38320  0.03750  Biso   1.000  N
  N80      1.0000 0.30890  0.36240  0.11990  Biso   1.000  N
  C118     1.0000 0.19350  0.36030  0.02310  Biso   1.000  C
  H235     1.0000 0.17220  0.34660  0.04120  Biso   1.000  H
  C119     1.0000 0.35180  0.38620  0.11120  Biso   1.000  C
  H236     1.0000 0.35570  0.41670  0.10660  Biso   1.000  H
  C120     1.0000 0.33240  0.36940  0.16290  Biso   1.000  C
  H237     1.0000 0.32650  0.39070  0.18480  Biso   1.000  H
  H238     1.0000 0.30490  0.41620  0.96980  Biso   1.000  H
  H239     1.0000 0.31400  0.39220  0.01540  Biso   1.000  H
  H240     1.0000 0.29540  0.44110  0.01480  Biso   1.000  H
  N81      1.0000 0.11680  0.53750  0.27130  Biso   1.000  N
  N82      1.0000 0.13760  0.61990  0.19110  Biso   1.000  N
  C121     1.0000 0.13970  0.52310  0.30650  Biso   1.000  C
  H241     1.0000 0.15340  0.54120  0.32780  Biso   1.000  H
  C122     1.0000 0.11380  0.61120  0.14820  Biso   1.000  C
  H242     1.0000 0.08330  0.60660  0.14430  Biso   1.000  H
  C123     1.0000 0.13060  0.66290  0.16760  Biso   1.000  C
  H243     1.0000 0.10930  0.68480  0.17350  Biso   1.000  H
  H244     1.0000 0.08380  0.46980  0.19510  Biso   1.000  H
  H245     1.0000 0.10780  0.51540  0.18600  Biso   1.000  H
  H246     1.0000 0.05890  0.51480  0.20460  Biso   1.000  H
  N83      1.0000 0.61680  0.03750  0.77130  Biso   1.000  N
  N84      1.0000 0.63760  0.11990  0.69110  Biso   1.000  N
  C124     1.0000 0.63970  0.02310  0.80650  Biso   1.000  C
  H247     1.0000 0.65340  0.04120  0.82780  Biso   1.000  H
  C125     1.0000 0.61380  0.11120  0.64820  Biso   1.000  C
  H248     1.0000 0.58330  0.10660  0.64430  Biso   1.000  H
  C126     1.0000 0.63060  0.16290  0.66760  Biso   1.000  C
  H249     1.0000 0.60930  0.18480  0.67350  Biso   1.000  H
  H250     1.0000 0.58380  0.96980  0.69510  Biso   1.000  H
  H251     1.0000 0.60780  0.01540  0.68600  Biso   1.000  H
  H252     1.0000 0.55890  0.01480  0.70460  Biso   1.000  H
  N85      1.0000 0.11680  0.46250  0.72870  Biso   1.000  N
  N86      1.0000 0.13760  0.38010  0.80890  Biso   1.000  N
  C127     1.0000 0.13970  0.47690  0.69350  Biso   1.000  C
  H253     1.0000 0.15340  0.45880  0.67220  Biso   1.000  H
  C128     1.0000 0.11380  0.38880  0.85180  Biso   1.000  C
  H254     1.0000 0.08330  0.39340  0.85570  Biso   1.000  H
  C129     1.0000 0.13060  0.33710  0.83240  Biso   1.000  C
  H255     1.0000 0.10930  0.31520  0.82650  Biso   1.000  H
  H256     1.0000 0.08380  0.53020  0.80490  Biso   1.000  H
  H257     1.0000 0.10780  0.48460  0.81400  Biso   1.000  H
  H258     1.0000 0.05890  0.48520  0.79540  Biso   1.000  H
  N87      1.0000 0.61680  0.96250  0.22870  Biso   1.000  N
  N88      1.0000 0.63760  0.88010  0.30890  Biso   1.000  N
  C130     1.0000 0.63970  0.97690  0.19350  Biso   1.000  C
  H259     1.0000 0.65340  0.95880  0.17220  Biso   1.000  H
  C131     1.0000 0.61380  0.88880  0.35180  Biso   1.000  C
  H260     1.0000 0.58330  0.89340  0.35570  Biso   1.000  H
  C132     1.0000 0.63060  0.83710  0.33240  Biso   1.000  C
  H261     1.0000 0.60930  0.81520  0.32650  Biso   1.000  H
  H262     1.0000 0.58380  0.03020  0.30490  Biso   1.000  H
  H263     1.0000 0.60780  0.98460  0.31400  Biso   1.000  H
  H264     1.0000 0.55890  0.98520  0.29540  Biso   1.000  H
  N89      1.0000 0.88320  0.53750  0.72870  Biso   1.000  N
  N90      1.0000 0.86240  0.61990  0.80890  Biso   1.000  N
  C133     1.0000 0.86030  0.52310  0.69350  Biso   1.000  C
  H265     1.0000 0.84660  0.54120  0.67220  Biso   1.000  H
  C134     1.0000 0.88620  0.61120  0.85180  Biso   1.000  C
  H266     1.0000 0.91670  0.60660  0.85570  Biso   1.000  H
  C135     1.0000 0.86940  0.66290  0.83240  Biso   1.000  C
  H267     1.0000 0.89070  0.68480  0.82650  Biso   1.000  H
  H268     1.0000 0.91620  0.46980  0.80490  Biso   1.000  H
  H269     1.0000 0.89220  0.51540  0.81400  Biso   1.000  H
  H270     1.0000 0.94110  0.51480  0.79540  Biso   1.000  H
  N91      1.0000 0.38320  0.03750  0.22870  Biso   1.000  N
  N92      1.0000 0.36240  0.11990  0.30890  Biso   1.000  N
  C136     1.0000 0.36030  0.02310  0.19350  Biso   1.000  C
  H271     1.0000 0.34660  0.04120  0.17220  Biso   1.000  H
  C137     1.0000 0.38620  0.11120  0.35180  Biso   1.000  C
  H272     1.0000 0.41670  0.10660  0.35570  Biso   1.000  H
  C138     1.0000 0.36940  0.16290  0.33240  Biso   1.000  C
  H273     1.0000 0.39070  0.18480  0.32650  Biso   1.000  H
  H274     1.0000 0.41620  0.96980  0.30490  Biso   1.000  H
  H275     1.0000 0.39220  0.01540  0.31400  Biso   1.000  H
  H276     1.0000 0.44110  0.01480  0.29540  Biso   1.000  H
  N93      1.0000 0.88320  0.46250  0.27130  Biso   1.000  N
  N94      1.0000 0.86240  0.38010  0.19110  Biso   1.000  N
  C139     1.0000 0.86030  0.47690  0.30650  Biso   1.000  C
  H277     1.0000 0.84660  0.45880  0.32780  Biso   1.000  H
  C140     1.0000 0.88620  0.38880  0.14820  Biso   1.000  C
  H278     1.0000 0.91670  0.39340  0.14430  Biso   1.000  H
  C141     1.0000 0.86940  0.33710  0.16760  Biso   1.000  C
  H279     1.0000 0.89070  0.31520  0.17350  Biso   1.000  H
  H280     1.0000 0.91620  0.53020  0.19510  Biso   1.000  H
  H281     1.0000 0.89220  0.48460  0.18600  Biso   1.000  H
  H282     1.0000 0.94110  0.48520  0.20460  Biso   1.000  H
  N95      1.0000 0.38320  0.96250  0.77130  Biso   1.000  N
  N96      1.0000 0.36240  0.88010  0.69110  Biso   1.000  N
  C142     1.0000 0.36030  0.97690  0.80650  Biso   1.000  C
  H283     1.0000 0.34660  0.95880  0.82780  Biso   1.000  H
  C143     1.0000 0.38620  0.88880  0.64820  Biso   1.000  C
  H284     1.0000 0.41670  0.89340  0.64430  Biso   1.000  H
  C144     1.0000 0.36940  0.83710  0.66760  Biso   1.000  C
  H285     1.0000 0.39070  0.81520  0.67350  Biso   1.000  H
  H286     1.0000 0.41620  0.03020  0.69510  Biso   1.000  H
  H287     1.0000 0.39220  0.98460  0.68600  Biso   1.000  H
  H288     1.0000 0.44110  0.98520  0.70460  Biso   1.000  H
  N97      1.0000 0.27130  0.46250  0.88320  Biso   1.000  N
  N98      1.0000 0.19110  0.38010  0.86240  Biso   1.000  N
  C145     1.0000 0.30650  0.47690  0.86030  Biso   1.000  C
  H289     1.0000 0.32780  0.45880  0.84660  Biso   1.000  H
  C146     1.0000 0.14820  0.38880  0.88620  Biso   1.000  C
  H290     1.0000 0.14430  0.39340  0.91670  Biso   1.000  H
  C147     1.0000 0.16760  0.33710  0.86940  Biso   1.000  C
  H291     1.0000 0.17350  0.31520  0.89070  Biso   1.000  H
  H292     1.0000 0.19510  0.53020  0.91620  Biso   1.000  H
  H293     1.0000 0.18600  0.48460  0.89220  Biso   1.000  H
  H294     1.0000 0.20460  0.48520  0.94110  Biso   1.000  H
  N99      1.0000 0.77130  0.96250  0.38320  Biso   1.000  N
  N100     1.0000 0.69110  0.88010  0.36240  Biso   1.000  N
  C148     1.0000 0.80650  0.97690  0.36030  Biso   1.000  C
  H295     1.0000 0.82780  0.95880  0.34660  Biso   1.000  H
  C149     1.0000 0.64820  0.88880  0.38620  Biso   1.000  C
  H296     1.0000 0.64430  0.89340  0.41670  Biso   1.000  H
  C150     1.0000 0.66760  0.83710  0.36940  Biso   1.000  C
  H297     1.0000 0.67350  0.81520  0.39070  Biso   1.000  H
  H298     1.0000 0.69510  0.03020  0.41620  Biso   1.000  H
  H299     1.0000 0.68600  0.98460  0.39220  Biso   1.000  H
  H300     1.0000 0.70460  0.98520  0.44110  Biso   1.000  H
  N101     1.0000 0.72870  0.53750  0.88320  Biso   1.000  N
  N102     1.0000 0.80890  0.61990  0.86240  Biso   1.000  N
  C151     1.0000 0.69350  0.52310  0.86030  Biso   1.000  C
  H301     1.0000 0.67220  0.54120  0.84660  Biso   1.000  H
  C152     1.0000 0.85180  0.61120  0.88620  Biso   1.000  C
  H302     1.0000 0.85570  0.60660  0.91670  Biso   1.000  H
  C153     1.0000 0.83240  0.66290  0.86940  Biso   1.000  C
  H303     1.0000 0.82650  0.68480  0.89070  Biso   1.000  H
  H304     1.0000 0.80490  0.46980  0.91620  Biso   1.000  H
  H305     1.0000 0.81400  0.51540  0.89220  Biso   1.000  H
  H306     1.0000 0.79540  0.51480  0.94110  Biso   1.000  H
  N103     1.0000 0.22870  0.03750  0.38320  Biso   1.000  N
  N104     1.0000 0.30890  0.11990  0.36240  Biso   1.000  N
  C154     1.0000 0.19350  0.02310  0.36030  Biso   1.000  C
  H307     1.0000 0.17220  0.04120  0.34660  Biso   1.000  H
  C155     1.0000 0.35180  0.11120  0.38620  Biso   1.000  C
  H308     1.0000 0.35570  0.10660  0.41670  Biso   1.000  H
  C156     1.0000 0.33240  0.16290  0.36940  Biso   1.000  C
  H309     1.0000 0.32650  0.18480  0.39070  Biso   1.000  H
  H310     1.0000 0.30490  0.96980  0.41620  Biso   1.000  H
  H311     1.0000 0.31400  0.01540  0.39220  Biso   1.000  H
  H312     1.0000 0.29540  0.01480  0.44110  Biso   1.000  H
  N105     1.0000 0.72870  0.46250  0.11680  Biso   1.000  N
  N106     1.0000 0.80890  0.38010  0.13760  Biso   1.000  N
  C157     1.0000 0.69350  0.47690  0.13970  Biso   1.000  C
  H313     1.0000 0.67220  0.45880  0.15340  Biso   1.000  H
  C158     1.0000 0.85180  0.38880  0.11380  Biso   1.000  C
  H314     1.0000 0.85570  0.39340  0.08330  Biso   1.000  H
  C159     1.0000 0.83240  0.33710  0.13060  Biso   1.000  C
  H315     1.0000 0.82650  0.31520  0.10930  Biso   1.000  H
  H316     1.0000 0.80490  0.53020  0.08380  Biso   1.000  H
  H317     1.0000 0.81400  0.48460  0.10780  Biso   1.000  H
  H318     1.0000 0.79540  0.48520  0.05890  Biso   1.000  H
  N107     1.0000 0.22870  0.96250  0.61680  Biso   1.000  N
  N108     1.0000 0.30890  0.88010  0.63760  Biso   1.000  N
  C160     1.0000 0.19350  0.97690  0.63970  Biso   1.000  C
  H319     1.0000 0.17220  0.95880  0.65340  Biso   1.000  H
  C161     1.0000 0.35180  0.88880  0.61380  Biso   1.000  C
  H320     1.0000 0.35570  0.89340  0.58330  Biso   1.000  H
  C162     1.0000 0.33240  0.83710  0.63060  Biso   1.000  C
  H321     1.0000 0.32650  0.81520  0.60930  Biso   1.000  H
  H322     1.0000 0.30490  0.03020  0.58380  Biso   1.000  H
  H323     1.0000 0.31400  0.98460  0.60780  Biso   1.000  H
  H324     1.0000 0.29540  0.98520  0.55890  Biso   1.000  H
  N109     1.0000 0.27130  0.53750  0.11680  Biso   1.000  N
  N110     1.0000 0.19110  0.61990  0.13760  Biso   1.000  N
  C163     1.0000 0.30650  0.52310  0.13970  Biso   1.000  C
  H325     1.0000 0.32780  0.54120  0.15340  Biso   1.000  H
  C164     1.0000 0.14820  0.61120  0.11380  Biso   1.000  C
  H326     1.0000 0.14430  0.60660  0.08330  Biso   1.000  H
  C165     1.0000 0.16760  0.66290  0.13060  Biso   1.000  C
  H327     1.0000 0.17350  0.68480  0.10930  Biso   1.000  H
  H328     1.0000 0.19510  0.46980  0.08380  Biso   1.000  H
  H329     1.0000 0.18600  0.51540  0.10780  Biso   1.000  H
  H330     1.0000 0.20460  0.51480  0.05890  Biso   1.000  H
  N111     1.0000 0.77130  0.03750  0.61680  Biso   1.000  N
  N112     1.0000 0.69110  0.11990  0.63760  Biso   1.000  N
  C166     1.0000 0.80650  0.02310  0.63970  Biso   1.000  C
  H331     1.0000 0.82780  0.04120  0.65340  Biso   1.000  H
  C167     1.0000 0.64820  0.11120  0.61380  Biso   1.000  C
  H332     1.0000 0.64430  0.10660  0.58330  Biso   1.000  H
  C168     1.0000 0.66760  0.16290  0.63060  Biso   1.000  C
  H333     1.0000 0.67350  0.18480  0.60930  Biso   1.000  H
  H334     1.0000 0.69510  0.96980  0.58380  Biso   1.000  H
  H335     1.0000 0.68600  0.01540  0.60780  Biso   1.000  H
  H336     1.0000 0.70460  0.01480  0.55890  Biso   1.000  H
  N113     1.0000 0.88320  0.27130  0.46250  Biso   1.000  N
  N114     1.0000 0.86240  0.19110  0.38010  Biso   1.000  N
  C169     1.0000 0.86030  0.30650  0.47690  Biso   1.000  C
  H337     1.0000 0.84660  0.32780  0.45880  Biso   1.000  H
  C170     1.0000 0.88620  0.14820  0.38880  Biso   1.000  C
  H338     1.0000 0.91670  0.14430  0.39340  Biso   1.000  H
  C171     1.0000 0.86940  0.16760  0.33710  Biso   1.000  C
  H339     1.0000 0.89070  0.17350  0.31520  Biso   1.000  H
  H340     1.0000 0.91620  0.19510  0.53020  Biso   1.000  H
  H341     1.0000 0.89220  0.18600  0.48460  Biso   1.000  H
  H342     1.0000 0.94110  0.20460  0.48520  Biso   1.000  H
  N115     1.0000 0.38320  0.77130  0.96250  Biso   1.000  N
  N116     1.0000 0.36240  0.69110  0.88010  Biso   1.000  N
  C172     1.0000 0.36030  0.80650  0.97690  Biso   1.000  C
  H343     1.0000 0.34660  0.82780  0.95880  Biso   1.000  H
  C173     1.0000 0.38620  0.64820  0.88880  Biso   1.000  C
  H344     1.0000 0.41670  0.64430  0.89340  Biso   1.000  H
  C174     1.0000 0.36940  0.66760  0.83710  Biso   1.000  C
  H345     1.0000 0.39070  0.67350  0.81520  Biso   1.000  H
  H346     1.0000 0.41620  0.69510  0.03020  Biso   1.000  H
  H347     1.0000 0.39220  0.68600  0.98460  Biso   1.000  H
  H348     1.0000 0.44110  0.70460  0.98520  Biso   1.000  H
  N117     1.0000 0.88320  0.72870  0.53750  Biso   1.000  N
  N118     1.0000 0.86240  0.80890  0.61990  Biso   1.000  N
  C175     1.0000 0.86030  0.69350  0.52310  Biso   1.000  C
  H349     1.0000 0.84660  0.67220  0.54120  Biso   1.000  H
  C176     1.0000 0.88620  0.85180  0.61120  Biso   1.000  C
  H350     1.0000 0.91670  0.85570  0.60660  Biso   1.000  H
  C177     1.0000 0.86940  0.83240  0.66290  Biso   1.000  C
  H351     1.0000 0.89070  0.82650  0.68480  Biso   1.000  H
  H352     1.0000 0.91620  0.80490  0.46980  Biso   1.000  H
  H353     1.0000 0.89220  0.81400  0.51540  Biso   1.000  H
  H354     1.0000 0.94110  0.79540  0.51480  Biso   1.000  H
  N119     1.0000 0.38320  0.22870  0.03750  Biso   1.000  N
  N120     1.0000 0.36240  0.30890  0.11990  Biso   1.000  N
  C178     1.0000 0.36030  0.19350  0.02310  Biso   1.000  C
  H355     1.0000 0.34660  0.17220  0.04120  Biso   1.000  H
  C179     1.0000 0.38620  0.35180  0.11120  Biso   1.000  C
  H356     1.0000 0.41670  0.35570  0.10660  Biso   1.000  H
  C180     1.0000 0.36940  0.33240  0.16290  Biso   1.000  C
  H357     1.0000 0.39070  0.32650  0.18480  Biso   1.000  H
  H358     1.0000 0.41620  0.30490  0.96980  Biso   1.000  H
  H359     1.0000 0.39220  0.31400  0.01540  Biso   1.000  H
  H360     1.0000 0.44110  0.29540  0.01480  Biso   1.000  H
  N121     1.0000 0.11680  0.72870  0.46250  Biso   1.000  N
  N122     1.0000 0.13760  0.80890  0.38010  Biso   1.000  N
  C181     1.0000 0.13970  0.69350  0.47690  Biso   1.000  C
  H361     1.0000 0.15340  0.67220  0.45880  Biso   1.000  H
  C182     1.0000 0.11380  0.85180  0.38880  Biso   1.000  C
  H362     1.0000 0.08330  0.85570  0.39340  Biso   1.000  H
  C183     1.0000 0.13060  0.83240  0.33710  Biso   1.000  C
  H363     1.0000 0.10930  0.82650  0.31520  Biso   1.000  H
  H364     1.0000 0.08380  0.80490  0.53020  Biso   1.000  H
  H365     1.0000 0.10780  0.81400  0.48460  Biso   1.000  H
  H366     1.0000 0.05890  0.79540  0.48520  Biso   1.000  H
  N123     1.0000 0.61680  0.22870  0.96250  Biso   1.000  N
  N124     1.0000 0.63760  0.30890  0.88010  Biso   1.000  N
  C184     1.0000 0.63970  0.19350  0.97690  Biso   1.000  C
  H367     1.0000 0.65340  0.17220  0.95880  Biso   1.000  H
  C185     1.0000 0.61380  0.35180  0.88880  Biso   1.000  C
  H368     1.0000 0.58330  0.35570  0.89340  Biso   1.000  H
  C186     1.0000 0.63060  0.33240  0.83710  Biso   1.000  C
  H369     1.0000 0.60930  0.32650  0.81520  Biso   1.000  H
  H370     1.0000 0.58380  0.30490  0.03020  Biso   1.000  H
  H371     1.0000 0.60780  0.31400  0.98460  Biso   1.000  H
  H372     1.0000 0.55890  0.29540  0.98520  Biso   1.000  H
  N125     1.0000 0.11680  0.27130  0.53750  Biso   1.000  N
  N126     1.0000 0.13760  0.19110  0.61990  Biso   1.000  N
  C187     1.0000 0.13970  0.30650  0.52310  Biso   1.000  C
  H373     1.0000 0.15340  0.32780  0.54120  Biso   1.000  H
  C188     1.0000 0.11380  0.14820  0.61120  Biso   1.000  C
  H374     1.0000 0.08330  0.14430  0.60660  Biso   1.000  H
  C189     1.0000 0.13060  0.16760  0.66290  Biso   1.000  C
  H375     1.0000 0.10930  0.17350  0.68480  Biso   1.000  H
  H376     1.0000 0.08380  0.19510  0.46980  Biso   1.000  H
  H377     1.0000 0.10780  0.18600  0.51540  Biso   1.000  H
  H378     1.0000 0.05890  0.20460  0.51480  Biso   1.000  H
  N127     1.0000 0.61680  0.77130  0.03750  Biso   1.000  N
  N128     1.0000 0.63760  0.69110  0.11990  Biso   1.000  N
  C190     1.0000 0.63970  0.80650  0.02310  Biso   1.000  C
  H379     1.0000 0.65340  0.82780  0.04120  Biso   1.000  H
  C191     1.0000 0.61380  0.64820  0.11120  Biso   1.000  C
  H380     1.0000 0.58330  0.64430  0.10660  Biso   1.000  H
  C192     1.0000 0.63060  0.66760  0.16290  Biso   1.000  C
  H381     1.0000 0.60930  0.67350  0.18480  Biso   1.000  H
  H382     1.0000 0.58380  0.69510  0.96980  Biso   1.000  H
  H383     1.0000 0.60780  0.68600  0.01540  Biso   1.000  H
  H384     1.0000 0.55890  0.70460  0.01480  Biso   1.000  H
  N129     1.0000 0.46250  0.88320  0.27130  Biso   1.000  N
  N130     1.0000 0.38010  0.86240  0.19110  Biso   1.000  N
  C193     1.0000 0.47690  0.86030  0.30650  Biso   1.000  C
  H385     1.0000 0.45880  0.84660  0.32780  Biso   1.000  H
  C194     1.0000 0.38880  0.88620  0.14820  Biso   1.000  C
  H386     1.0000 0.39340  0.91670  0.14430  Biso   1.000  H
  C195     1.0000 0.33710  0.86940  0.16760  Biso   1.000  C
  H387     1.0000 0.31520  0.89070  0.17350  Biso   1.000  H
  H388     1.0000 0.53020  0.91620  0.19510  Biso   1.000  H
  H389     1.0000 0.48460  0.89220  0.18600  Biso   1.000  H
  H390     1.0000 0.48520  0.94110  0.20460  Biso   1.000  H
  N131     1.0000 0.96250  0.38320  0.77130  Biso   1.000  N
  N132     1.0000 0.88010  0.36240  0.69110  Biso   1.000  N
  C196     1.0000 0.97690  0.36030  0.80650  Biso   1.000  C
  H391     1.0000 0.95880  0.34660  0.82780  Biso   1.000  H
  C197     1.0000 0.88880  0.38620  0.64820  Biso   1.000  C
  H392     1.0000 0.89340  0.41670  0.64430  Biso   1.000  H
  C198     1.0000 0.83710  0.36940  0.66760  Biso   1.000  C
  H393     1.0000 0.81520  0.39070  0.67350  Biso   1.000  H
  H394     1.0000 0.03020  0.41620  0.69510  Biso   1.000  H
  H395     1.0000 0.98460  0.39220  0.68600  Biso   1.000  H
  H396     1.0000 0.98520  0.44110  0.70460  Biso   1.000  H
  N133     1.0000 0.53750  0.88320  0.72870  Biso   1.000  N
  N134     1.0000 0.61990  0.86240  0.80890  Biso   1.000  N
  C199     1.0000 0.52310  0.86030  0.69350  Biso   1.000  C
  H397     1.0000 0.54120  0.84660  0.67220  Biso   1.000  H
  C200     1.0000 0.61120  0.88620  0.85180  Biso   1.000  C
  H398     1.0000 0.60660  0.91670  0.85570  Biso   1.000  H
  C201     1.0000 0.66290  0.86940  0.83240  Biso   1.000  C
  H399     1.0000 0.68480  0.89070  0.82650  Biso   1.000  H
  H400     1.0000 0.46980  0.91620  0.80490  Biso   1.000  H
  H401     1.0000 0.51540  0.89220  0.81400  Biso   1.000  H
  H402     1.0000 0.51480  0.94110  0.79540  Biso   1.000  H
  N135     1.0000 0.03750  0.38320  0.22870  Biso   1.000  N
  N136     1.0000 0.11990  0.36240  0.30890  Biso   1.000  N
  C202     1.0000 0.02310  0.36030  0.19350  Biso   1.000  C
  H403     1.0000 0.04120  0.34660  0.17220  Biso   1.000  H
  C203     1.0000 0.11120  0.38620  0.35180  Biso   1.000  C
  H404     1.0000 0.10660  0.41670  0.35570  Biso   1.000  H
  C204     1.0000 0.16290  0.36940  0.33240  Biso   1.000  C
  H405     1.0000 0.18480  0.39070  0.32650  Biso   1.000  H
  H406     1.0000 0.96980  0.41620  0.30490  Biso   1.000  H
  H407     1.0000 0.01540  0.39220  0.31400  Biso   1.000  H
  H408     1.0000 0.01480  0.44110  0.29540  Biso   1.000  H
  N137     1.0000 0.46250  0.11680  0.72870  Biso   1.000  N
  N138     1.0000 0.38010  0.13760  0.80890  Biso   1.000  N
  C205     1.0000 0.47690  0.13970  0.69350  Biso   1.000  C
  H409     1.0000 0.45880  0.15340  0.67220  Biso   1.000  H
  C206     1.0000 0.38880  0.11380  0.85180  Biso   1.000  C
  H410     1.0000 0.39340  0.08330  0.85570  Biso   1.000  H
  C207     1.0000 0.33710  0.13060  0.83240  Biso   1.000  C
  H411     1.0000 0.31520  0.10930  0.82650  Biso   1.000  H
  H412     1.0000 0.53020  0.08380  0.80490  Biso   1.000  H
  H413     1.0000 0.48460  0.10780  0.81400  Biso   1.000  H
  H414     1.0000 0.48520  0.05890  0.79540  Biso   1.000  H
  N139     1.0000 0.96250  0.61680  0.22870  Biso   1.000  N
  N140     1.0000 0.88010  0.63760  0.30890  Biso   1.000  N
  C208     1.0000 0.97690  0.63970  0.19350  Biso   1.000  C
  H415     1.0000 0.95880  0.65340  0.17220  Biso   1.000  H
  C209     1.0000 0.88880  0.61380  0.35180  Biso   1.000  C
  H416     1.0000 0.89340  0.58330  0.35570  Biso   1.000  H
  C210     1.0000 0.83710  0.63060  0.33240  Biso   1.000  C
  H417     1.0000 0.81520  0.60930  0.32650  Biso   1.000  H
  H418     1.0000 0.03020  0.58380  0.30490  Biso   1.000  H
  H419     1.0000 0.98460  0.60780  0.31400  Biso   1.000  H
  H420     1.0000 0.98520  0.55890  0.29540  Biso   1.000  H
  N141     1.0000 0.53750  0.11680  0.27130  Biso   1.000  N
  N142     1.0000 0.61990  0.13760  0.19110  Biso   1.000  N
  C211     1.0000 0.52310  0.13970  0.30650  Biso   1.000  C
  H421     1.0000 0.54120  0.15340  0.32780  Biso   1.000  H
  C212     1.0000 0.61120  0.11380  0.14820  Biso   1.000  C
  H422     1.0000 0.60660  0.08330  0.14430  Biso   1.000  H
  C213     1.0000 0.66290  0.13060  0.16760  Biso   1.000  C
  H423     1.0000 0.68480  0.10930  0.17350  Biso   1.000  H
  H424     1.0000 0.46980  0.08380  0.19510  Biso   1.000  H
  H425     1.0000 0.51540  0.10780  0.18600  Biso   1.000  H
  H426     1.0000 0.51480  0.05890  0.20460  Biso   1.000  H
  N143     1.0000 0.03750  0.61680  0.77130  Biso   1.000  N
  N144     1.0000 0.11990  0.63760  0.69110  Biso   1.000  N
  C214     1.0000 0.02310  0.63970  0.80650  Biso   1.000  C
  H427     1.0000 0.04120  0.65340  0.82780  Biso   1.000  H
  C215     1.0000 0.11120  0.61380  0.64820  Biso   1.000  C
  H428     1.0000 0.10660  0.58330  0.64430  Biso   1.000  H
  C216     1.0000 0.16290  0.63060  0.66760  Biso   1.000  C
  H429     1.0000 0.18480  0.60930  0.67350  Biso   1.000  H
  H430     1.0000 0.96980  0.58380  0.69510  Biso   1.000  H
  H431     1.0000 0.01540  0.60780  0.68600  Biso   1.000  H
  H432     1.0000 0.01480  0.55890  0.70460  Biso   1.000  H
  N145     1.0000 0.46250  0.27130  0.11680  Biso   1.000  N
  N146     1.0000 0.38010  0.19110  0.13760  Biso   1.000  N
  C217     1.0000 0.47690  0.30650  0.13970  Biso   1.000  C
  H433     1.0000 0.45880  0.32780  0.15340  Biso   1.000  H
  C218     1.0000 0.38880  0.14820  0.11380  Biso   1.000  C
  H434     1.0000 0.39340  0.14430  0.08330  Biso   1.000  H
  C219     1.0000 0.33710  0.16760  0.13060  Biso   1.000  C
  H435     1.0000 0.31520  0.17350  0.10930  Biso   1.000  H
  H436     1.0000 0.53020  0.19510  0.08380  Biso   1.000  H
  H437     1.0000 0.48460  0.18600  0.10780  Biso   1.000  H
  H438     1.0000 0.48520  0.20460  0.05890  Biso   1.000  H
  N147     1.0000 0.96250  0.77130  0.61680  Biso   1.000  N
  N148     1.0000 0.88010  0.69110  0.63760  Biso   1.000  N
  C220     1.0000 0.97690  0.80650  0.63970  Biso   1.000  C
  H439     1.0000 0.95880  0.82780  0.65340  Biso   1.000  H
  C221     1.0000 0.88880  0.64820  0.61380  Biso   1.000  C
  H440     1.0000 0.89340  0.64430  0.58330  Biso   1.000  H
  C222     1.0000 0.83710  0.66760  0.63060  Biso   1.000  C
  H441     1.0000 0.81520  0.67350  0.60930  Biso   1.000  H
  H442     1.0000 0.03020  0.69510  0.58380  Biso   1.000  H
  H443     1.0000 0.98460  0.68600  0.60780  Biso   1.000  H
  H444     1.0000 0.98520  0.70460  0.55890  Biso   1.000  H
  N149     1.0000 0.53750  0.72870  0.11680  Biso   1.000  N
  N150     1.0000 0.61990  0.80890  0.13760  Biso   1.000  N
  C223     1.0000 0.52310  0.69350  0.13970  Biso   1.000  C
  H445     1.0000 0.54120  0.67220  0.15340  Biso   1.000  H
  C224     1.0000 0.61120  0.85180  0.11380  Biso   1.000  C
  H446     1.0000 0.60660  0.85570  0.08330  Biso   1.000  H
  C225     1.0000 0.66290  0.83240  0.13060  Biso   1.000  C
  H447     1.0000 0.68480  0.82650  0.10930  Biso   1.000  H
  H448     1.0000 0.46980  0.80490  0.08380  Biso   1.000  H
  H449     1.0000 0.51540  0.81400  0.10780  Biso   1.000  H
  H450     1.0000 0.51480  0.79540  0.05890  Biso   1.000  H
  N151     1.0000 0.03750  0.22870  0.61680  Biso   1.000  N
  N152     1.0000 0.11990  0.30890  0.63760  Biso   1.000  N
  C226     1.0000 0.02310  0.19350  0.63970  Biso   1.000  C
  H451     1.0000 0.04120  0.17220  0.65340  Biso   1.000  H
  C227     1.0000 0.11120  0.35180  0.61380  Biso   1.000  C
  H452     1.0000 0.10660  0.35570  0.58330  Biso   1.000  H
  C228     1.0000 0.16290  0.33240  0.63060  Biso   1.000  C
  H453     1.0000 0.18480  0.32650  0.60930  Biso   1.000  H
  H454     1.0000 0.96980  0.30490  0.58380  Biso   1.000  H
  H455     1.0000 0.01540  0.31400  0.60780  Biso   1.000  H
  H456     1.0000 0.01480  0.29540  0.55890  Biso   1.000  H
  N153     1.0000 0.46250  0.72870  0.88320  Biso   1.000  N
  N154     1.0000 0.38010  0.80890  0.86240  Biso   1.000  N
  C229     1.0000 0.47690  0.69350  0.86030  Biso   1.000  C
  H457     1.0000 0.45880  0.67220  0.84660  Biso   1.000  H
  C230     1.0000 0.38880  0.85180  0.88620  Biso   1.000  C
  H458     1.0000 0.39340  0.85570  0.91670  Biso   1.000  H
  C231     1.0000 0.33710  0.83240  0.86940  Biso   1.000  C
  H459     1.0000 0.31520  0.82650  0.89070  Biso   1.000  H
  H460     1.0000 0.53020  0.80490  0.91620  Biso   1.000  H
  H461     1.0000 0.48460  0.81400  0.89220  Biso   1.000  H
  H462     1.0000 0.48520  0.79540  0.94110  Biso   1.000  H
  N155     1.0000 0.96250  0.22870  0.38320  Biso   1.000  N
  N156     1.0000 0.88010  0.30890  0.36240  Biso   1.000  N
  C232     1.0000 0.97690  0.19350  0.36030  Biso   1.000  C
  H463     1.0000 0.95880  0.17220  0.34660  Biso   1.000  H
  C233     1.0000 0.88880  0.35180  0.38620  Biso   1.000  C
  H464     1.0000 0.89340  0.35570  0.41670  Biso   1.000  H
  C234     1.0000 0.83710  0.33240  0.36940  Biso   1.000  C
  H465     1.0000 0.81520  0.32650  0.39070  Biso   1.000  H
  H466     1.0000 0.03020  0.30490  0.41620  Biso   1.000  H
  H467     1.0000 0.98460  0.31400  0.39220  Biso   1.000  H
  H468     1.0000 0.98520  0.29540  0.44110  Biso   1.000  H
  N157     1.0000 0.53750  0.27130  0.88320  Biso   1.000  N
  N158     1.0000 0.61990  0.19110  0.86240  Biso   1.000  N
  C235     1.0000 0.52310  0.30650  0.86030  Biso   1.000  C
  H469     1.0000 0.54120  0.32780  0.84660  Biso   1.000  H
  C236     1.0000 0.61120  0.14820  0.88620  Biso   1.000  C
  H470     1.0000 0.60660  0.14430  0.91670  Biso   1.000  H
  C237     1.0000 0.66290  0.16760  0.86940  Biso   1.000  C
  H471     1.0000 0.68480  0.17350  0.89070  Biso   1.000  H
  H472     1.0000 0.46980  0.19510  0.91620  Biso   1.000  H
  H473     1.0000 0.51540  0.18600  0.89220  Biso   1.000  H
  H474     1.0000 0.51480  0.20460  0.94110  Biso   1.000  H
  N159     1.0000 0.03750  0.77130  0.38320  Biso   1.000  N
  N160     1.0000 0.11990  0.69110  0.36240  Biso   1.000  N
  C238     1.0000 0.02310  0.80650  0.36030  Biso   1.000  C
  H475     1.0000 0.04120  0.82780  0.34660  Biso   1.000  H
  C239     1.0000 0.11120  0.64820  0.38620  Biso   1.000  C
  H476     1.0000 0.10660  0.64430  0.41670  Biso   1.000  H
  C240     1.0000 0.16290  0.66760  0.36940  Biso   1.000  C
  H477     1.0000 0.18480  0.67350  0.39070  Biso   1.000  H
  H478     1.0000 0.96980  0.69510  0.41620  Biso   1.000  H
  H479     1.0000 0.01540  0.68600  0.39220  Biso   1.000  H
  H480     1.0000 0.01480  0.70460  0.44110  Biso   1.000  H
  N161     1.0000 0.27130  0.88320  0.53750  Biso   1.000  N
  N162     1.0000 0.19110  0.86240  0.61990  Biso   1.000  N
  C241     1.0000 0.30650  0.86030  0.52310  Biso   1.000  C
  H481     1.0000 0.32780  0.84660  0.54120  Biso   1.000  H
  C242     1.0000 0.14820  0.88620  0.61120  Biso   1.000  C
  H482     1.0000 0.14430  0.91670  0.60660  Biso   1.000  H
  C243     1.0000 0.16760  0.86940  0.66290  Biso   1.000  C
  H483     1.0000 0.17350  0.89070  0.68480  Biso   1.000  H
  H484     1.0000 0.19510  0.91620  0.46980  Biso   1.000  H
  H485     1.0000 0.18600  0.89220  0.51540  Biso   1.000  H
  H486     1.0000 0.20460  0.94110  0.51480  Biso   1.000  H
  N163     1.0000 0.77130  0.38320  0.03750  Biso   1.000  N
  N164     1.0000 0.69110  0.36240  0.11990  Biso   1.000  N
  C244     1.0000 0.80650  0.36030  0.02310  Biso   1.000  C
  H487     1.0000 0.82780  0.34660  0.04120  Biso   1.000  H
  C245     1.0000 0.64820  0.38620  0.11120  Biso   1.000  C
  H488     1.0000 0.64430  0.41670  0.10660  Biso   1.000  H
  C246     1.0000 0.66760  0.36940  0.16290  Biso   1.000  C
  H489     1.0000 0.67350  0.39070  0.18480  Biso   1.000  H
  H490     1.0000 0.69510  0.41620  0.96980  Biso   1.000  H
  H491     1.0000 0.68600  0.39220  0.01540  Biso   1.000  H
  H492     1.0000 0.70460  0.44110  0.01480  Biso   1.000  H
  N165     1.0000 0.72870  0.88320  0.46250  Biso   1.000  N
  N166     1.0000 0.80890  0.86240  0.38010  Biso   1.000  N
  C247     1.0000 0.69350  0.86030  0.47690  Biso   1.000  C
  H493     1.0000 0.67220  0.84660  0.45880  Biso   1.000  H
  C248     1.0000 0.85180  0.88620  0.38880  Biso   1.000  C
  H494     1.0000 0.85570  0.91670  0.39340  Biso   1.000  H
  C249     1.0000 0.83240  0.86940  0.33710  Biso   1.000  C
  H495     1.0000 0.82650  0.89070  0.31520  Biso   1.000  H
  H496     1.0000 0.80490  0.91620  0.53020  Biso   1.000  H
  H497     1.0000 0.81400  0.89220  0.48460  Biso   1.000  H
  H498     1.0000 0.79540  0.94110  0.48520  Biso   1.000  H
  N167     1.0000 0.22870  0.38320  0.96250  Biso   1.000  N
  N168     1.0000 0.30890  0.36240  0.88010  Biso   1.000  N
  C250     1.0000 0.19350  0.36030  0.97690  Biso   1.000  C
  H499     1.0000 0.17220  0.34660  0.95880  Biso   1.000  H
  C251     1.0000 0.35180  0.38620  0.88880  Biso   1.000  C
  H500     1.0000 0.35570  0.41670  0.89340  Biso   1.000  H
  C252     1.0000 0.33240  0.36940  0.83710  Biso   1.000  C
  H501     1.0000 0.32650  0.39070  0.81520  Biso   1.000  H
  H502     1.0000 0.30490  0.41620  0.03020  Biso   1.000  H
  H503     1.0000 0.31400  0.39220  0.98460  Biso   1.000  H
  H504     1.0000 0.29540  0.44110  0.98520  Biso   1.000  H
  N169     1.0000 0.72870  0.11680  0.53750  Biso   1.000  N
  N170     1.0000 0.80890  0.13760  0.61990  Biso   1.000  N
  C253     1.0000 0.69350  0.13970  0.52310  Biso   1.000  C
  H505     1.0000 0.67220  0.15340  0.54120  Biso   1.000  H
  C254     1.0000 0.85180  0.11380  0.61120  Biso   1.000  C
  H506     1.0000 0.85570  0.08330  0.60660  Biso   1.000  H
  C255     1.0000 0.83240  0.13060  0.66290  Biso   1.000  C
  H507     1.0000 0.82650  0.10930  0.68480  Biso   1.000  H
  H508     1.0000 0.80490  0.08380  0.46980  Biso   1.000  H
  H509     1.0000 0.81400  0.10780  0.51540  Biso   1.000  H
  H510     1.0000 0.79540  0.05890  0.51480  Biso   1.000  H
  N171     1.0000 0.22870  0.61680  0.03750  Biso   1.000  N
  N172     1.0000 0.30890  0.63760  0.11990  Biso   1.000  N
  C256     1.0000 0.19350  0.63970  0.02310  Biso   1.000  C
  H511     1.0000 0.17220  0.65340  0.04120  Biso   1.000  H
  C257     1.0000 0.35180  0.61380  0.11120  Biso   1.000  C
  H512     1.0000 0.35570  0.58330  0.10660  Biso   1.000  H
  C258     1.0000 0.33240  0.63060  0.16290  Biso   1.000  C
  H513     1.0000 0.32650  0.60930  0.18480  Biso   1.000  H
  H514     1.0000 0.30490  0.58380  0.96980  Biso   1.000  H
  H515     1.0000 0.31400  0.60780  0.01540  Biso   1.000  H
  H516     1.0000 0.29540  0.55890  0.01480  Biso   1.000  H
  N173     1.0000 0.27130  0.11680  0.46250  Biso   1.000  N
  N174     1.0000 0.19110  0.13760  0.38010  Biso   1.000  N
  C259     1.0000 0.30650  0.13970  0.47690  Biso   1.000  C
  H517     1.0000 0.32780  0.15340  0.45880  Biso   1.000  H
  C260     1.0000 0.14820  0.11380  0.38880  Biso   1.000  C
  H518     1.0000 0.14430  0.08330  0.39340  Biso   1.000  H
  C261     1.0000 0.16760  0.13060  0.33710  Biso   1.000  C
  H519     1.0000 0.17350  0.10930  0.31520  Biso   1.000  H
  H520     1.0000 0.19510  0.08380  0.53020  Biso   1.000  H
  H521     1.0000 0.18600  0.10780  0.48460  Biso   1.000  H
  H522     1.0000 0.20460  0.05890  0.48520  Biso   1.000  H
  N175     1.0000 0.77130  0.61680  0.96250  Biso   1.000  N
  N176     1.0000 0.69110  0.63760  0.88010  Biso   1.000  N
  C262     1.0000 0.80650  0.63970  0.97690  Biso   1.000  C
  H523     1.0000 0.82780  0.65340  0.95880  Biso   1.000  H
  C263     1.0000 0.64820  0.61380  0.88880  Biso   1.000  C
  H524     1.0000 0.64430  0.58330  0.89340  Biso   1.000  H
  C264     1.0000 0.66760  0.63060  0.83710  Biso   1.000  C
  H525     1.0000 0.67350  0.60930  0.81520  Biso   1.000  H
  H526     1.0000 0.69510  0.58380  0.03020  Biso   1.000  H
  H527     1.0000 0.68600  0.60780  0.98460  Biso   1.000  H
  H528     1.0000 0.70460  0.55890  0.98520  Biso   1.000  H
  N177     1.0000 0.88320  0.46250  0.72870  Biso   1.000  N
  N178     1.0000 0.86240  0.38010  0.80890  Biso   1.000  N
  C265     1.0000 0.86030  0.47690  0.69350  Biso   1.000  C
  H529     1.0000 0.84660  0.45880  0.67220  Biso   1.000  H
  C266     1.0000 0.88620  0.38880  0.85180  Biso   1.000  C
  H530     1.0000 0.91670  0.39340  0.85570  Biso   1.000  H
  C267     1.0000 0.86940  0.33710  0.83240  Biso   1.000  C
  H531     1.0000 0.89070  0.31520  0.82650  Biso   1.000  H
  H532     1.0000 0.91620  0.53020  0.80490  Biso   1.000  H
  H533     1.0000 0.89220  0.48460  0.81400  Biso   1.000  H
  H534     1.0000 0.94110  0.48520  0.79540  Biso   1.000  H
  N179     1.0000 0.38320  0.96250  0.22870  Biso   1.000  N
  N180     1.0000 0.36240  0.88010  0.30890  Biso   1.000  N
  C268     1.0000 0.36030  0.97690  0.19350  Biso   1.000  C
  H535     1.0000 0.34660  0.95880  0.17220  Biso   1.000  H
  C269     1.0000 0.38620  0.88880  0.35180  Biso   1.000  C
  H536     1.0000 0.41670  0.89340  0.35570  Biso   1.000  H
  C270     1.0000 0.36940  0.83710  0.33240  Biso   1.000  C
  H537     1.0000 0.39070  0.81520  0.32650  Biso   1.000  H
  H538     1.0000 0.41620  0.03020  0.30490  Biso   1.000  H
  H539     1.0000 0.39220  0.98460  0.31400  Biso   1.000  H
  H540     1.0000 0.44110  0.98520  0.29540  Biso   1.000  H
  N181     1.0000 0.88320  0.53750  0.27130  Biso   1.000  N
  N182     1.0000 0.86240  0.61990  0.19110  Biso   1.000  N
  C271     1.0000 0.86030  0.52310  0.30650  Biso   1.000  C
  H541     1.0000 0.84660  0.54120  0.32780  Biso   1.000  H
  C272     1.0000 0.88620  0.61120  0.14820  Biso   1.000  C
  H542     1.0000 0.91670  0.60660  0.14430  Biso   1.000  H
  C273     1.0000 0.86940  0.66290  0.16760  Biso   1.000  C
  H543     1.0000 0.89070  0.68480  0.17350  Biso   1.000  H
  H544     1.0000 0.91620  0.46980  0.19510  Biso   1.000  H
  H545     1.0000 0.89220  0.51540  0.18600  Biso   1.000  H
  H546     1.0000 0.94110  0.51480  0.20460  Biso   1.000  H
  N183     1.0000 0.38320  0.03750  0.77130  Biso   1.000  N
  N184     1.0000 0.36240  0.11990  0.69110  Biso   1.000  N
  C274     1.0000 0.36030  0.02310  0.80650  Biso   1.000  C
  H547     1.0000 0.34660  0.04120  0.82780  Biso   1.000  H
  C275     1.0000 0.38620  0.11120  0.64820  Biso   1.000  C
  H548     1.0000 0.41670  0.10660  0.64430  Biso   1.000  H
  C276     1.0000 0.36940  0.16290  0.66760  Biso   1.000  C
  H549     1.0000 0.39070  0.18480  0.67350  Biso   1.000  H
  H550     1.0000 0.41620  0.96980  0.69510  Biso   1.000  H
  H551     1.0000 0.39220  0.01540  0.68600  Biso   1.000  H
  H552     1.0000 0.44110  0.01480  0.70460  Biso   1.000  H
  N185     1.0000 0.11680  0.46250  0.27130  Biso   1.000  N
  N186     1.0000 0.13760  0.38010  0.19110  Biso   1.000  N
  C277     1.0000 0.13970  0.47690  0.30650  Biso   1.000  C
  H553     1.0000 0.15340  0.45880  0.32780  Biso   1.000  H
  C278     1.0000 0.11380  0.38880  0.14820  Biso   1.000  C
  H554     1.0000 0.08330  0.39340  0.14430  Biso   1.000  H
  C279     1.0000 0.13060  0.33710  0.16760  Biso   1.000  C
  H555     1.0000 0.10930  0.31520  0.17350  Biso   1.000  H
  H556     1.0000 0.08380  0.53020  0.19510  Biso   1.000  H
  H557     1.0000 0.10780  0.48460  0.18600  Biso   1.000  H
  H558     1.0000 0.05890  0.48520  0.20460  Biso   1.000  H
  N187     1.0000 0.61680  0.96250  0.77130  Biso   1.000  N
  N188     1.0000 0.63760  0.88010  0.69110  Biso   1.000  N
  C280     1.0000 0.63970  0.97690  0.80650  Biso   1.000  C
  H559     1.0000 0.65340  0.95880  0.82780  Biso   1.000  H
  C281     1.0000 0.61380  0.88880  0.64820  Biso   1.000  C
  H560     1.0000 0.58330  0.89340  0.64430  Biso   1.000  H
  C282     1.0000 0.63060  0.83710  0.66760  Biso   1.000  C
  H561     1.0000 0.60930  0.81520  0.67350  Biso   1.000  H
  H562     1.0000 0.58380  0.03020  0.69510  Biso   1.000  H
  H563     1.0000 0.60780  0.98460  0.68600  Biso   1.000  H
  H564     1.0000 0.55890  0.98520  0.70460  Biso   1.000  H
  N189     1.0000 0.11680  0.53750  0.72870  Biso   1.000  N
  N190     1.0000 0.13760  0.61990  0.80890  Biso   1.000  N
  C283     1.0000 0.13970  0.52310  0.69350  Biso   1.000  C
  H565     1.0000 0.15340  0.54120  0.67220  Biso   1.000  H
  C284     1.0000 0.11380  0.61120  0.85180  Biso   1.000  C
  H566     1.0000 0.08330  0.60660  0.85570  Biso   1.000  H
  C285     1.0000 0.13060  0.66290  0.83240  Biso   1.000  C
  H567     1.0000 0.10930  0.68480  0.82650  Biso   1.000  H
  H568     1.0000 0.08380  0.46980  0.80490  Biso   1.000  H
  H569     1.0000 0.10780  0.51540  0.81400  Biso   1.000  H
  H570     1.0000 0.05890  0.51480  0.79540  Biso   1.000  H
  N191     1.0000 0.61680  0.03750  0.22870  Biso   1.000  N
  N192     1.0000 0.63760  0.11990  0.30890  Biso   1.000  N
  C286     1.0000 0.63970  0.02310  0.19350  Biso   1.000  C
  H571     1.0000 0.65340  0.04120  0.17220  Biso   1.000  H
  C287     1.0000 0.61380  0.11120  0.35180  Biso   1.000  C
  H572     1.0000 0.58330  0.10660  0.35570  Biso   1.000  H
  C288     1.0000 0.63060  0.16290  0.33240  Biso   1.000  C
  H573     1.0000 0.60930  0.18480  0.32650  Biso   1.000  H
  H574     1.0000 0.58380  0.96980  0.30490  Biso   1.000  H
  H575     1.0000 0.60780  0.01540  0.31400  Biso   1.000  H
  H576     1.0000 0.55890  0.01480  0.29540  Biso   1.000  H
  Cd1      1.0000 0.75000  0.60413  0.10413  Biso   1.000  Cd
  Cd2      1.0000 0.25000  0.39587  0.10413  Biso   1.000  Cd
  Cd3      1.0000 0.25000  0.60413  0.89587  Biso   1.000  Cd
  Cd4      1.0000 0.75000  0.39587  0.89587  Biso   1.000  Cd
  Cd5      1.0000 0.10413  0.75000  0.60413  Biso   1.000  Cd
  Cd6      1.0000 0.10413  0.25000  0.39587  Biso   1.000  Cd
  Cd7      1.0000 0.89587  0.25000  0.60413  Biso   1.000  Cd
  Cd8      1.0000 0.89587  0.75000  0.39587  Biso   1.000  Cd
  Cd9      1.0000 0.60413  0.10413  0.75000  Biso   1.000  Cd
  Cd10     1.0000 0.39587  0.10413  0.25000  Biso   1.000  Cd
  Cd11     1.0000 0.60413  0.89587  0.25000  Biso   1.000  Cd
  Cd12     1.0000 0.39587  0.89587  0.75000  Biso   1.000  Cd
  Cd13     1.0000 0.60413  0.75000  0.89587  Biso   1.000  Cd
  Cd14     1.0000 0.39587  0.25000  0.89587  Biso   1.000  Cd
  Cd15     1.0000 0.60413  0.25000  0.10413  Biso   1.000  Cd
  Cd16     1.0000 0.39587  0.75000  0.10413  Biso   1.000  Cd
  Cd17     1.0000 0.75000  0.10413  0.39587  Biso   1.000  Cd
  Cd18     1.0000 0.25000  0.10413  0.60413  Biso   1.000  Cd
  Cd19     1.0000 0.25000  0.89587  0.39587  Biso   1.000  Cd
  Cd20     1.0000 0.75000  0.89587  0.60413  Biso   1.000  Cd
  Cd21     1.0000 0.10413  0.60413  0.25000  Biso   1.000  Cd
  Cd22     1.0000 0.10413  0.39587  0.75000  Biso   1.000  Cd
  Cd23     1.0000 0.89587  0.60413  0.75000  Biso   1.000  Cd
  Cd24     1.0000 0.89587  0.39587  0.25000  Biso   1.000  Cd
  Cd25     1.0000 0.25000  0.39587  0.89587  Biso   1.000  Cd
  Cd26     1.0000 0.75000  0.60413  0.89587  Biso   1.000  Cd
  Cd27     1.0000 0.75000  0.39587  0.10413  Biso   1.000  Cd
  Cd28     1.0000 0.25000  0.60413  0.10413  Biso   1.000  Cd
  Cd29     1.0000 0.89587  0.25000  0.39587  Biso   1.000  Cd
  Cd30     1.0000 0.89587  0.75000  0.60413  Biso   1.000  Cd
  Cd31     1.0000 0.10413  0.75000  0.39587  Biso   1.000  Cd
  Cd32     1.0000 0.10413  0.25000  0.60413  Biso   1.000  Cd
  Cd33     1.0000 0.39587  0.89587  0.25000  Biso   1.000  Cd
  Cd34     1.0000 0.60413  0.89587  0.75000  Biso   1.000  Cd
  Cd35     1.0000 0.39587  0.10413  0.75000  Biso   1.000  Cd
  Cd36     1.0000 0.60413  0.10413  0.25000  Biso   1.000  Cd
  Cd37     1.0000 0.39587  0.25000  0.10413  Biso   1.000  Cd
  Cd38     1.0000 0.60413  0.75000  0.10413  Biso   1.000  Cd
  Cd39     1.0000 0.39587  0.75000  0.89587  Biso   1.000  Cd
  Cd40     1.0000 0.60413  0.25000  0.89587  Biso   1.000  Cd
  Cd41     1.0000 0.25000  0.89587  0.60413  Biso   1.000  Cd
  Cd42     1.0000 0.75000  0.89587  0.39587  Biso   1.000  Cd
  Cd43     1.0000 0.75000  0.10413  0.60413  Biso   1.000  Cd
  Cd44     1.0000 0.25000  0.10413  0.39587  Biso   1.000  Cd
  Cd45     1.0000 0.89587  0.39587  0.75000  Biso   1.000  Cd
  Cd46     1.0000 0.89587  0.60413  0.25000  Biso   1.000  Cd
  Cd47     1.0000 0.10413  0.39587  0.25000  Biso   1.000  Cd
  Cd48     1.0000 0.10413  0.60413  0.75000  Biso   1.000  Cd
  C289     1.0000 0.74800  0.50000  0.10520  Biso   1.000  C
  C290     1.0000 0.79480  0.50000  0.08730  Biso   1.000  C
  C291     1.0000 0.24800  0.00000  0.60520  Biso   1.000  C
  C292     1.0000 0.29480  0.00000  0.58730  Biso   1.000  C
  C293     1.0000 0.25200  0.50000  0.10520  Biso   1.000  C
  C294     1.0000 0.20520  0.50000  0.08730  Biso   1.000  C
  C295     1.0000 0.75200  0.00000  0.60520  Biso   1.000  C
  C296     1.0000 0.70520  0.00000  0.58730  Biso   1.000  C
  C297     1.0000 0.25200  0.50000  0.89480  Biso   1.000  C
  C298     1.0000 0.20520  0.50000  0.91270  Biso   1.000  C
  C299     1.0000 0.75200  0.00000  0.39480  Biso   1.000  C
  C300     1.0000 0.70520  0.00000  0.41270  Biso   1.000  C
  C301     1.0000 0.74800  0.50000  0.89480  Biso   1.000  C
  C302     1.0000 0.79480  0.50000  0.91270  Biso   1.000  C
  C303     1.0000 0.24800  0.00000  0.39480  Biso   1.000  C
  C304     1.0000 0.29480  0.00000  0.41270  Biso   1.000  C
  C305     1.0000 0.10520  0.74800  0.50000  Biso   1.000  C
  C306     1.0000 0.08730  0.79480  0.50000  Biso   1.000  C
  C307     1.0000 0.60520  0.24800  0.00000  Biso   1.000  C
  C308     1.0000 0.58730  0.29480  0.00000  Biso   1.000  C
  C309     1.0000 0.10520  0.25200  0.50000  Biso   1.000  C
  C310     1.0000 0.08730  0.20520  0.50000  Biso   1.000  C
  C311     1.0000 0.60520  0.75200  0.00000  Biso   1.000  C
  C312     1.0000 0.58730  0.70520  0.00000  Biso   1.000  C
  C313     1.0000 0.89480  0.25200  0.50000  Biso   1.000  C
  C314     1.0000 0.91270  0.20520  0.50000  Biso   1.000  C
  C315     1.0000 0.39480  0.75200  0.00000  Biso   1.000  C
  C316     1.0000 0.41270  0.70520  0.00000  Biso   1.000  C
  C317     1.0000 0.89480  0.74800  0.50000  Biso   1.000  C
  C318     1.0000 0.91270  0.79480  0.50000  Biso   1.000  C
  C319     1.0000 0.39480  0.24800  0.00000  Biso   1.000  C
  C320     1.0000 0.41270  0.29480  0.00000  Biso   1.000  C
  C321     1.0000 0.50000  0.10520  0.74800  Biso   1.000  C
  C322     1.0000 0.50000  0.08730  0.79480  Biso   1.000  C
  C323     1.0000 0.00000  0.60520  0.24800  Biso   1.000  C
  C324     1.0000 0.00000  0.58730  0.29480  Biso   1.000  C
  C325     1.0000 0.50000  0.10520  0.25200  Biso   1.000  C
  C326     1.0000 0.50000  0.08730  0.20520  Biso   1.000  C
  C327     1.0000 0.00000  0.60520  0.75200  Biso   1.000  C
  C328     1.0000 0.00000  0.58730  0.70520  Biso   1.000  C
  C329     1.0000 0.50000  0.89480  0.25200  Biso   1.000  C
  C330     1.0000 0.50000  0.91270  0.20520  Biso   1.000  C
  C331     1.0000 0.00000  0.39480  0.75200  Biso   1.000  C
  C332     1.0000 0.00000  0.41270  0.70520  Biso   1.000  C
  C333     1.0000 0.50000  0.89480  0.74800  Biso   1.000  C
  C334     1.0000 0.50000  0.91270  0.79480  Biso   1.000  C
  C335     1.0000 0.00000  0.39480  0.24800  Biso   1.000  C
  C336     1.0000 0.00000  0.41270  0.29480  Biso   1.000  C
  C337     1.0000 0.50000  0.74800  0.89480  Biso   1.000  C
  C338     1.0000 0.50000  0.79480  0.91270  Biso   1.000  C
  C339     1.0000 0.00000  0.24800  0.39480  Biso   1.000  C
  C340     1.0000 0.00000  0.29480  0.41270  Biso   1.000  C
  C341     1.0000 0.50000  0.25200  0.89480  Biso   1.000  C
  C342     1.0000 0.50000  0.20520  0.91270  Biso   1.000  C
  C343     1.0000 0.00000  0.75200  0.39480  Biso   1.000  C
  C344     1.0000 0.00000  0.70520  0.41270  Biso   1.000  C
  C345     1.0000 0.50000  0.25200  0.10520  Biso   1.000  C
  C346     1.0000 0.50000  0.20520  0.08730  Biso   1.000  C
  C347     1.0000 0.00000  0.75200  0.60520  Biso   1.000  C
  C348     1.0000 0.00000  0.70520  0.58730  Biso   1.000  C
  C349     1.0000 0.50000  0.74800  0.10520  Biso   1.000  C
  C350     1.0000 0.50000  0.79480  0.08730  Biso   1.000  C
  C351     1.0000 0.00000  0.24800  0.60520  Biso   1.000  C
  C352     1.0000 0.00000  0.29480  0.58730  Biso   1.000  C
  C353     1.0000 0.74800  0.10520  0.50000  Biso   1.000  C
  C354     1.0000 0.79480  0.08730  0.50000  Biso   1.000  C
  C355     1.0000 0.24800  0.60520  0.00000  Biso   1.000  C
  C356     1.0000 0.29480  0.58730  0.00000  Biso   1.000  C
  C357     1.0000 0.25200  0.10520  0.50000  Biso   1.000  C
  C358     1.0000 0.20520  0.08730  0.50000  Biso   1.000  C
  C359     1.0000 0.75200  0.60520  0.00000  Biso   1.000  C
  C360     1.0000 0.70520  0.58730  0.00000  Biso   1.000  C
  C361     1.0000 0.25200  0.89480  0.50000  Biso   1.000  C
  C362     1.0000 0.20520  0.91270  0.50000  Biso   1.000  C
  C363     1.0000 0.75200  0.39480  0.00000  Biso   1.000  C
  C364     1.0000 0.70520  0.41270  0.00000  Biso   1.000  C
  C365     1.0000 0.74800  0.89480  0.50000  Biso   1.000  C
  C366     1.0000 0.79480  0.91270  0.50000  Biso   1.000  C
  C367     1.0000 0.24800  0.39480  0.00000  Biso   1.000  C
  C368     1.0000 0.29480  0.41270  0.00000  Biso   1.000  C
  C369     1.0000 0.10520  0.50000  0.25200  Biso   1.000  C
  C370     1.0000 0.08730  0.50000  0.20520  Biso   1.000  C
  C371     1.0000 0.60520  0.00000  0.75200  Biso   1.000  C
  C372     1.0000 0.58730  0.00000  0.70520  Biso   1.000  C
  C373     1.0000 0.10520  0.50000  0.74800  Biso   1.000  C
  C374     1.0000 0.08730  0.50000  0.79480  Biso   1.000  C
  C375     1.0000 0.60520  0.00000  0.24800  Biso   1.000  C
  C376     1.0000 0.58730  0.00000  0.29480  Biso   1.000  C
  C377     1.0000 0.89480  0.50000  0.74800  Biso   1.000  C
  C378     1.0000 0.91270  0.50000  0.79480  Biso   1.000  C
  C379     1.0000 0.39480  0.00000  0.24800  Biso   1.000  C
  C380     1.0000 0.41270  0.00000  0.29480  Biso   1.000  C
  C381     1.0000 0.89480  0.50000  0.25200  Biso   1.000  C
  C382     1.0000 0.91270  0.50000  0.20520  Biso   1.000  C
  C383     1.0000 0.39480  0.00000  0.75200  Biso   1.000  C
  C384     1.0000 0.41270  0.00000  0.70520  Biso   1.000  C
  C385     1.0000 0.82160  0.60870  0.17840  Biso   1.000  C
  C386     1.0000 0.32160  0.10870  0.67840  Biso   1.000  C
  C387     1.0000 0.17840  0.39130  0.17840  Biso   1.000  C
  C388     1.0000 0.67840  0.89130  0.67840  Biso   1.000  C
  C389     1.0000 0.17840  0.60870  0.82160  Biso   1.000  C
  C390     1.0000 0.67840  0.10870  0.32160  Biso   1.000  C
  C391     1.0000 0.82160  0.39130  0.82160  Biso   1.000  C
  C392     1.0000 0.32160  0.89130  0.32160  Biso   1.000  C
  C393     1.0000 0.17840  0.82160  0.60870  Biso   1.000  C
  C394     1.0000 0.67840  0.32160  0.10870  Biso   1.000  C
  C395     1.0000 0.17840  0.17840  0.39130  Biso   1.000  C
  C396     1.0000 0.67840  0.67840  0.89130  Biso   1.000  C
  C397     1.0000 0.82160  0.17840  0.60870  Biso   1.000  C
  C398     1.0000 0.32160  0.67840  0.10870  Biso   1.000  C
  C399     1.0000 0.82160  0.82160  0.39130  Biso   1.000  C
  C400     1.0000 0.32160  0.32160  0.89130  Biso   1.000  C
  C401     1.0000 0.60870  0.17840  0.82160  Biso   1.000  C
  C402     1.0000 0.10870  0.67840  0.32160  Biso   1.000  C
  C403     1.0000 0.39130  0.17840  0.17840  Biso   1.000  C
  C404     1.0000 0.89130  0.67840  0.67840  Biso   1.000  C
  C405     1.0000 0.60870  0.82160  0.17840  Biso   1.000  C
  C406     1.0000 0.10870  0.32160  0.67840  Biso   1.000  C
  C407     1.0000 0.39130  0.82160  0.82160  Biso   1.000  C
  C408     1.0000 0.89130  0.32160  0.32160  Biso   1.000  C
  C409     1.0000 0.60870  0.82160  0.82160  Biso   1.000  C
  C410     1.0000 0.10870  0.32160  0.32160  Biso   1.000  C
  C411     1.0000 0.39130  0.17840  0.82160  Biso   1.000  C
  C412     1.0000 0.89130  0.67840  0.32160  Biso   1.000  C
  C413     1.0000 0.60870  0.17840  0.17840  Biso   1.000  C
  C414     1.0000 0.10870  0.67840  0.67840  Biso   1.000  C
  C415     1.0000 0.39130  0.82160  0.17840  Biso   1.000  C
  C416     1.0000 0.89130  0.32160  0.67840  Biso   1.000  C
  C417     1.0000 0.82160  0.17840  0.39130  Biso   1.000  C
  C418     1.0000 0.32160  0.67840  0.89130  Biso   1.000  C
  C419     1.0000 0.17840  0.17840  0.60870  Biso   1.000  C
  C420     1.0000 0.67840  0.67840  0.10870  Biso   1.000  C
  C421     1.0000 0.17840  0.82160  0.39130  Biso   1.000  C
  C422     1.0000 0.67840  0.32160  0.89130  Biso   1.000  C
  C423     1.0000 0.82160  0.82160  0.60870  Biso   1.000  C
  C424     1.0000 0.32160  0.32160  0.10870  Biso   1.000  C
  C425     1.0000 0.17840  0.60870  0.17840  Biso   1.000  C
  C426     1.0000 0.67840  0.10870  0.67840  Biso   1.000  C
  C427     1.0000 0.17840  0.39130  0.82160  Biso   1.000  C
  C428     1.0000 0.67840  0.89130  0.32160  Biso   1.000  C
  C429     1.0000 0.82160  0.60870  0.82160  Biso   1.000  C
  C430     1.0000 0.32160  0.10870  0.32160  Biso   1.000  C
  C431     1.0000 0.82160  0.39130  0.17840  Biso   1.000  C
  C432     1.0000 0.32160  0.89130  0.67840  Biso   1.000  C
