data_image0
_cell_length_a       30.8871
_cell_length_b       30.8871
_cell_length_c       30.8871
_cell_angle_alpha    90
_cell_angle_beta     90
_cell_angle_gamma    90

_symmetry_space_group_name_H-M    "P 1"
_symmetry_int_tables_number       1

loop_
  _symmetry_equiv_pos_as_xyz
  'x, y, z'

loop_
  _atom_site_label
  _atom_site_occupancy
  _atom_site_fract_x
  _atom_site_fract_y
  _atom_site_fract_z
  _atom_site_thermal_displace_type
  _atom_site_B_iso_or_equiv
  _atom_site_type_symbol
  N1       1.0000 0.77010  0.61380  0.03550  Biso   1.000  N
  N2       1.0000 0.80870  0.61950  0.14070  Biso   1.000  N
  C1       1.0000 0.80580  0.63230  0.02240  Biso   1.000  C
  H1       1.0000 0.82740  0.64350  0.04010  Biso   1.000  H
  H2       1.0000 0.68970  0.62730  0.02560  Biso   1.000  H
  H3       1.0000 0.69160  0.55010  0.02540  Biso   1.000  H
  C2       1.0000 0.84890  0.61150  0.11930  Biso   1.000  C
  H4       1.0000 0.85310  0.60720  0.08980  Biso   1.000  H
  H5       1.0000 0.76210  0.64220  0.20120  Biso   1.000  H
  H6       1.0000 0.80320  0.56480  0.23290  Biso   1.000  H
  H7       1.0000 0.72180  0.54800  0.97450  Biso   1.000  H
  H8       1.0000 0.66740  0.60260  0.97460  Biso   1.000  H
  H9       1.0000 0.82300  0.55200  0.21290  Biso   1.000  H
  H10      1.0000 0.75540  0.55280  0.24720  Biso   1.000  H
  H11      1.0000 0.77790  0.59720  0.25660  Biso   1.000  H
  H12      1.0000 0.74170  0.59420  0.22120  Biso   1.000  H
  C3       1.0000 0.15720  0.36610  0.33570  Biso   1.000  C
  H13      1.0000 0.17780  0.38780  0.33230  Biso   1.000  H
  N3       1.0000 0.27010  0.11380  0.53550  Biso   1.000  N
  N4       1.0000 0.30870  0.11950  0.64070  Biso   1.000  N
  C4       1.0000 0.30580  0.13230  0.52240  Biso   1.000  C
  H14      1.0000 0.32740  0.14350  0.54010  Biso   1.000  H
  H15      1.0000 0.18970  0.12730  0.52560  Biso   1.000  H
  H16      1.0000 0.19160  0.05010  0.52540  Biso   1.000  H
  C5       1.0000 0.34890  0.11150  0.61930  Biso   1.000  C
  H17      1.0000 0.35310  0.10720  0.58980  Biso   1.000  H
  H18      1.0000 0.26210  0.14220  0.70120  Biso   1.000  H
  H19      1.0000 0.30320  0.06480  0.73290  Biso   1.000  H
  H20      1.0000 0.22180  0.04800  0.47450  Biso   1.000  H
  H21      1.0000 0.16740  0.10260  0.47460  Biso   1.000  H
  H22      1.0000 0.32300  0.05200  0.71290  Biso   1.000  H
  H23      1.0000 0.25540  0.05280  0.74720  Biso   1.000  H
  H24      1.0000 0.27790  0.09720  0.75660  Biso   1.000  H
  H25      1.0000 0.24170  0.09420  0.72120  Biso   1.000  H
  C6       1.0000 0.65720  0.86610  0.83570  Biso   1.000  C
  H26      1.0000 0.67780  0.88780  0.83230  Biso   1.000  H
  N5       1.0000 0.22990  0.38620  0.03550  Biso   1.000  N
  N6       1.0000 0.19130  0.38050  0.14070  Biso   1.000  N
  C7       1.0000 0.19420  0.36770  0.02240  Biso   1.000  C
  H27      1.0000 0.17260  0.35650  0.04010  Biso   1.000  H
  H28      1.0000 0.31030  0.37270  0.02560  Biso   1.000  H
  H29      1.0000 0.30840  0.44990  0.02540  Biso   1.000  H
  C8       1.0000 0.15110  0.38850  0.11930  Biso   1.000  C
  H30      1.0000 0.14690  0.39280  0.08980  Biso   1.000  H
  H31      1.0000 0.23790  0.35780  0.20120  Biso   1.000  H
  H32      1.0000 0.19680  0.43520  0.23290  Biso   1.000  H
  H33      1.0000 0.27820  0.45200  0.97450  Biso   1.000  H
  H34      1.0000 0.33260  0.39740  0.97460  Biso   1.000  H
  H35      1.0000 0.17700  0.44800  0.21290  Biso   1.000  H
  H36      1.0000 0.24460  0.44720  0.24720  Biso   1.000  H
  H37      1.0000 0.22210  0.40280  0.25660  Biso   1.000  H
  H38      1.0000 0.25830  0.40580  0.22120  Biso   1.000  H
  C9       1.0000 0.84280  0.63390  0.33570  Biso   1.000  C
  H39      1.0000 0.82220  0.61220  0.33230  Biso   1.000  H
  N7       1.0000 0.72990  0.88620  0.53550  Biso   1.000  N
  N8       1.0000 0.69130  0.88050  0.64070  Biso   1.000  N
  C10      1.0000 0.69420  0.86770  0.52240  Biso   1.000  C
  H40      1.0000 0.67260  0.85650  0.54010  Biso   1.000  H
  H41      1.0000 0.81030  0.87270  0.52560  Biso   1.000  H
  H42      1.0000 0.80840  0.94990  0.52540  Biso   1.000  H
  C11      1.0000 0.65110  0.88850  0.61930  Biso   1.000  C
  H43      1.0000 0.64690  0.89280  0.58980  Biso   1.000  H
  H44      1.0000 0.73790  0.85780  0.70120  Biso   1.000  H
  H45      1.0000 0.69680  0.93520  0.73290  Biso   1.000  H
  H46      1.0000 0.77820  0.95200  0.47450  Biso   1.000  H
  H47      1.0000 0.83260  0.89740  0.47460  Biso   1.000  H
  H48      1.0000 0.67700  0.94800  0.71290  Biso   1.000  H
  H49      1.0000 0.74460  0.94720  0.74720  Biso   1.000  H
  H50      1.0000 0.72210  0.90280  0.75660  Biso   1.000  H
  H51      1.0000 0.75830  0.90580  0.72120  Biso   1.000  H
  C12      1.0000 0.34280  0.13390  0.83570  Biso   1.000  C
  H52      1.0000 0.32220  0.11220  0.83230  Biso   1.000  H
  N9       1.0000 0.22990  0.61380  0.96450  Biso   1.000  N
  N10      1.0000 0.19130  0.61950  0.85930  Biso   1.000  N
  C13      1.0000 0.19420  0.63230  0.97760  Biso   1.000  C
  H53      1.0000 0.17260  0.64350  0.95990  Biso   1.000  H
  H54      1.0000 0.31030  0.62730  0.97440  Biso   1.000  H
  H55      1.0000 0.30840  0.55010  0.97460  Biso   1.000  H
  C14      1.0000 0.15110  0.61150  0.88070  Biso   1.000  C
  H56      1.0000 0.14690  0.60720  0.91020  Biso   1.000  H
  H57      1.0000 0.23790  0.64220  0.79880  Biso   1.000  H
  H58      1.0000 0.19680  0.56480  0.76710  Biso   1.000  H
  H59      1.0000 0.27820  0.54800  0.02550  Biso   1.000  H
  H60      1.0000 0.33260  0.60260  0.02540  Biso   1.000  H
  H61      1.0000 0.17700  0.55200  0.78710  Biso   1.000  H
  H62      1.0000 0.24460  0.55280  0.75280  Biso   1.000  H
  H63      1.0000 0.22210  0.59720  0.74340  Biso   1.000  H
  H64      1.0000 0.25830  0.59420  0.77880  Biso   1.000  H
  C15      1.0000 0.84280  0.36610  0.66430  Biso   1.000  C
  H65      1.0000 0.82220  0.38780  0.66770  Biso   1.000  H
  N11      1.0000 0.72990  0.11380  0.46450  Biso   1.000  N
  N12      1.0000 0.69130  0.11950  0.35930  Biso   1.000  N
  C16      1.0000 0.69420  0.13230  0.47760  Biso   1.000  C
  H66      1.0000 0.67260  0.14350  0.45990  Biso   1.000  H
  H67      1.0000 0.81030  0.12730  0.47440  Biso   1.000  H
  H68      1.0000 0.80840  0.05010  0.47460  Biso   1.000  H
  C17      1.0000 0.65110  0.11150  0.38070  Biso   1.000  C
  H69      1.0000 0.64690  0.10720  0.41020  Biso   1.000  H
  H70      1.0000 0.73790  0.14220  0.29880  Biso   1.000  H
  H71      1.0000 0.69680  0.06480  0.26710  Biso   1.000  H
  H72      1.0000 0.77820  0.04800  0.52550  Biso   1.000  H
  H73      1.0000 0.83260  0.10260  0.52540  Biso   1.000  H
  H74      1.0000 0.67700  0.05200  0.28710  Biso   1.000  H
  H75      1.0000 0.74460  0.05280  0.25280  Biso   1.000  H
  H76      1.0000 0.72210  0.09720  0.24340  Biso   1.000  H
  H77      1.0000 0.75830  0.09420  0.27880  Biso   1.000  H
  C18      1.0000 0.34280  0.86610  0.16430  Biso   1.000  C
  H78      1.0000 0.32220  0.88780  0.16770  Biso   1.000  H
  N13      1.0000 0.77010  0.38620  0.96450  Biso   1.000  N
  N14      1.0000 0.80870  0.38050  0.85930  Biso   1.000  N
  C19      1.0000 0.80580  0.36770  0.97760  Biso   1.000  C
  H79      1.0000 0.82740  0.35650  0.95990  Biso   1.000  H
  H80      1.0000 0.68970  0.37270  0.97440  Biso   1.000  H
  H81      1.0000 0.69160  0.44990  0.97460  Biso   1.000  H
  C20      1.0000 0.84890  0.38850  0.88070  Biso   1.000  C
  H82      1.0000 0.85310  0.39280  0.91020  Biso   1.000  H
  H83      1.0000 0.76210  0.35780  0.79880  Biso   1.000  H
  H84      1.0000 0.80320  0.43520  0.76710  Biso   1.000  H
  H85      1.0000 0.72180  0.45200  0.02550  Biso   1.000  H
  H86      1.0000 0.66740  0.39740  0.02540  Biso   1.000  H
  H87      1.0000 0.82300  0.44800  0.78710  Biso   1.000  H
  H88      1.0000 0.75540  0.44720  0.75280  Biso   1.000  H
  H89      1.0000 0.77790  0.40280  0.74340  Biso   1.000  H
  H90      1.0000 0.74170  0.40580  0.77880  Biso   1.000  H
  C21      1.0000 0.15720  0.63390  0.66430  Biso   1.000  C
  H91      1.0000 0.17780  0.61220  0.66770  Biso   1.000  H
  N15      1.0000 0.27010  0.88620  0.46450  Biso   1.000  N
  N16      1.0000 0.30870  0.88050  0.35930  Biso   1.000  N
  C22      1.0000 0.30580  0.86770  0.47760  Biso   1.000  C
  H92      1.0000 0.32740  0.85650  0.45990  Biso   1.000  H
  H93      1.0000 0.18970  0.87270  0.47440  Biso   1.000  H
  H94      1.0000 0.19160  0.94990  0.47460  Biso   1.000  H
  C23      1.0000 0.34890  0.88850  0.38070  Biso   1.000  C
  H95      1.0000 0.35310  0.89280  0.41020  Biso   1.000  H
  H96      1.0000 0.26210  0.85780  0.29880  Biso   1.000  H
  H97      1.0000 0.30320  0.93520  0.26710  Biso   1.000  H
  H98      1.0000 0.22180  0.95200  0.52550  Biso   1.000  H
  H99      1.0000 0.16740  0.89740  0.52540  Biso   1.000  H
  H100     1.0000 0.32300  0.94800  0.28710  Biso   1.000  H
  H101     1.0000 0.25540  0.94720  0.25280  Biso   1.000  H
  H102     1.0000 0.27790  0.90280  0.24340  Biso   1.000  H
  H103     1.0000 0.24170  0.90580  0.27880  Biso   1.000  H
  C24      1.0000 0.65720  0.13390  0.16430  Biso   1.000  C
  H104     1.0000 0.67780  0.11220  0.16770  Biso   1.000  H
  N17      1.0000 0.03550  0.77010  0.61380  Biso   1.000  N
  N18      1.0000 0.14070  0.80870  0.61950  Biso   1.000  N
  C25      1.0000 0.02240  0.80580  0.63230  Biso   1.000  C
  H105     1.0000 0.04010  0.82740  0.64350  Biso   1.000  H
  H106     1.0000 0.02560  0.68970  0.62730  Biso   1.000  H
  H107     1.0000 0.02540  0.69160  0.55010  Biso   1.000  H
  C26      1.0000 0.11930  0.84890  0.61150  Biso   1.000  C
  H108     1.0000 0.08980  0.85310  0.60720  Biso   1.000  H
  H109     1.0000 0.20120  0.76210  0.64220  Biso   1.000  H
  H110     1.0000 0.23290  0.80320  0.56480  Biso   1.000  H
  H111     1.0000 0.97450  0.72180  0.54800  Biso   1.000  H
  H112     1.0000 0.97460  0.66740  0.60260  Biso   1.000  H
  H113     1.0000 0.21290  0.82300  0.55200  Biso   1.000  H
  H114     1.0000 0.24720  0.75540  0.55280  Biso   1.000  H
  H115     1.0000 0.25660  0.77790  0.59720  Biso   1.000  H
  H116     1.0000 0.22120  0.74170  0.59420  Biso   1.000  H
  C27      1.0000 0.33570  0.15720  0.36610  Biso   1.000  C
  H117     1.0000 0.33230  0.17780  0.38780  Biso   1.000  H
  N19      1.0000 0.53550  0.27010  0.11380  Biso   1.000  N
  N20      1.0000 0.64070  0.30870  0.11950  Biso   1.000  N
  C28      1.0000 0.52240  0.30580  0.13230  Biso   1.000  C
  H118     1.0000 0.54010  0.32740  0.14350  Biso   1.000  H
  H119     1.0000 0.52560  0.18970  0.12730  Biso   1.000  H
  H120     1.0000 0.52540  0.19160  0.05010  Biso   1.000  H
  C29      1.0000 0.61930  0.34890  0.11150  Biso   1.000  C
  H121     1.0000 0.58980  0.35310  0.10720  Biso   1.000  H
  H122     1.0000 0.70120  0.26210  0.14220  Biso   1.000  H
  H123     1.0000 0.73290  0.30320  0.06480  Biso   1.000  H
  H124     1.0000 0.47450  0.22180  0.04800  Biso   1.000  H
  H125     1.0000 0.47460  0.16740  0.10260  Biso   1.000  H
  H126     1.0000 0.71290  0.32300  0.05200  Biso   1.000  H
  H127     1.0000 0.74720  0.25540  0.05280  Biso   1.000  H
  H128     1.0000 0.75660  0.27790  0.09720  Biso   1.000  H
  H129     1.0000 0.72120  0.24170  0.09420  Biso   1.000  H
  C30      1.0000 0.83570  0.65720  0.86610  Biso   1.000  C
  H130     1.0000 0.83230  0.67780  0.88780  Biso   1.000  H
  N21      1.0000 0.03550  0.22990  0.38620  Biso   1.000  N
  N22      1.0000 0.14070  0.19130  0.38050  Biso   1.000  N
  C31      1.0000 0.02240  0.19420  0.36770  Biso   1.000  C
  H131     1.0000 0.04010  0.17260  0.35650  Biso   1.000  H
  H132     1.0000 0.02560  0.31030  0.37270  Biso   1.000  H
  H133     1.0000 0.02540  0.30840  0.44990  Biso   1.000  H
  C32      1.0000 0.11930  0.15110  0.38850  Biso   1.000  C
  H134     1.0000 0.08980  0.14690  0.39280  Biso   1.000  H
  H135     1.0000 0.20120  0.23790  0.35780  Biso   1.000  H
  H136     1.0000 0.23290  0.19680  0.43520  Biso   1.000  H
  H137     1.0000 0.97450  0.27820  0.45200  Biso   1.000  H
  H138     1.0000 0.97460  0.33260  0.39740  Biso   1.000  H
  H139     1.0000 0.21290  0.17700  0.44800  Biso   1.000  H
  H140     1.0000 0.24720  0.24460  0.44720  Biso   1.000  H
  H141     1.0000 0.25660  0.22210  0.40280  Biso   1.000  H
  H142     1.0000 0.22120  0.25830  0.40580  Biso   1.000  H
  C33      1.0000 0.33570  0.84280  0.63390  Biso   1.000  C
  H143     1.0000 0.33230  0.82220  0.61220  Biso   1.000  H
  N23      1.0000 0.53550  0.72990  0.88620  Biso   1.000  N
  N24      1.0000 0.64070  0.69130  0.88050  Biso   1.000  N
  C34      1.0000 0.52240  0.69420  0.86770  Biso   1.000  C
  H144     1.0000 0.54010  0.67260  0.85650  Biso   1.000  H
  H145     1.0000 0.52560  0.81030  0.87270  Biso   1.000  H
  H146     1.0000 0.52540  0.80840  0.94990  Biso   1.000  H
  C35      1.0000 0.61930  0.65110  0.88850  Biso   1.000  C
  H147     1.0000 0.58980  0.64690  0.89280  Biso   1.000  H
  H148     1.0000 0.70120  0.73790  0.85780  Biso   1.000  H
  H149     1.0000 0.73290  0.69680  0.93520  Biso   1.000  H
  H150     1.0000 0.47450  0.77820  0.95200  Biso   1.000  H
  H151     1.0000 0.47460  0.83260  0.89740  Biso   1.000  H
  H152     1.0000 0.71290  0.67700  0.94800  Biso   1.000  H
  H153     1.0000 0.74720  0.74460  0.94720  Biso   1.000  H
  H154     1.0000 0.75660  0.72210  0.90280  Biso   1.000  H
  H155     1.0000 0.72120  0.75830  0.90580  Biso   1.000  H
  C36      1.0000 0.83570  0.34280  0.13390  Biso   1.000  C
  H156     1.0000 0.83230  0.32220  0.11220  Biso   1.000  H
  N25      1.0000 0.96450  0.22990  0.61380  Biso   1.000  N
  N26      1.0000 0.85930  0.19130  0.61950  Biso   1.000  N
  C37      1.0000 0.97760  0.19420  0.63230  Biso   1.000  C
  H157     1.0000 0.95990  0.17260  0.64350  Biso   1.000  H
  H158     1.0000 0.97440  0.31030  0.62730  Biso   1.000  H
  H159     1.0000 0.97460  0.30840  0.55010  Biso   1.000  H
  C38      1.0000 0.88070  0.15110  0.61150  Biso   1.000  C
  H160     1.0000 0.91020  0.14690  0.60720  Biso   1.000  H
  H161     1.0000 0.79880  0.23790  0.64220  Biso   1.000  H
  H162     1.0000 0.76710  0.19680  0.56480  Biso   1.000  H
  H163     1.0000 0.02550  0.27820  0.54800  Biso   1.000  H
  H164     1.0000 0.02540  0.33260  0.60260  Biso   1.000  H
  H165     1.0000 0.78710  0.17700  0.55200  Biso   1.000  H
  H166     1.0000 0.75280  0.24460  0.55280  Biso   1.000  H
  H167     1.0000 0.74340  0.22210  0.59720  Biso   1.000  H
  H168     1.0000 0.77880  0.25830  0.59420  Biso   1.000  H
  C39      1.0000 0.66430  0.84280  0.36610  Biso   1.000  C
  H169     1.0000 0.66770  0.82220  0.38780  Biso   1.000  H
  N27      1.0000 0.46450  0.72990  0.11380  Biso   1.000  N
  N28      1.0000 0.35930  0.69130  0.11950  Biso   1.000  N
  C40      1.0000 0.47760  0.69420  0.13230  Biso   1.000  C
  H170     1.0000 0.45990  0.67260  0.14350  Biso   1.000  H
  H171     1.0000 0.47440  0.81030  0.12730  Biso   1.000  H
  H172     1.0000 0.47460  0.80840  0.05010  Biso   1.000  H
  C41      1.0000 0.38070  0.65110  0.11150  Biso   1.000  C
  H173     1.0000 0.41020  0.64690  0.10720  Biso   1.000  H
  H174     1.0000 0.29880  0.73790  0.14220  Biso   1.000  H
  H175     1.0000 0.26710  0.69680  0.06480  Biso   1.000  H
  H176     1.0000 0.52550  0.77820  0.04800  Biso   1.000  H
  H177     1.0000 0.52540  0.83260  0.10260  Biso   1.000  H
  H178     1.0000 0.28710  0.67700  0.05200  Biso   1.000  H
  H179     1.0000 0.25280  0.74460  0.05280  Biso   1.000  H
  H180     1.0000 0.24340  0.72210  0.09720  Biso   1.000  H
  H181     1.0000 0.27880  0.75830  0.09420  Biso   1.000  H
  C42      1.0000 0.16430  0.34280  0.86610  Biso   1.000  C
  H182     1.0000 0.16770  0.32220  0.88780  Biso   1.000  H
  N29      1.0000 0.96450  0.77010  0.38620  Biso   1.000  N
  N30      1.0000 0.85930  0.80870  0.38050  Biso   1.000  N
  C43      1.0000 0.97760  0.80580  0.36770  Biso   1.000  C
  H183     1.0000 0.95990  0.82740  0.35650  Biso   1.000  H
  H184     1.0000 0.97440  0.68970  0.37270  Biso   1.000  H
  H185     1.0000 0.97460  0.69160  0.44990  Biso   1.000  H
  C44      1.0000 0.88070  0.84890  0.38850  Biso   1.000  C
  H186     1.0000 0.91020  0.85310  0.39280  Biso   1.000  H
  H187     1.0000 0.79880  0.76210  0.35780  Biso   1.000  H
  H188     1.0000 0.76710  0.80320  0.43520  Biso   1.000  H
  H189     1.0000 0.02550  0.72180  0.45200  Biso   1.000  H
  H190     1.0000 0.02540  0.66740  0.39740  Biso   1.000  H
  H191     1.0000 0.78710  0.82300  0.44800  Biso   1.000  H
  H192     1.0000 0.75280  0.75540  0.44720  Biso   1.000  H
  H193     1.0000 0.74340  0.77790  0.40280  Biso   1.000  H
  H194     1.0000 0.77880  0.74170  0.40580  Biso   1.000  H
  C45      1.0000 0.66430  0.15720  0.63390  Biso   1.000  C
  H195     1.0000 0.66770  0.17780  0.61220  Biso   1.000  H
  N31      1.0000 0.46450  0.27010  0.88620  Biso   1.000  N
  N32      1.0000 0.35930  0.30870  0.88050  Biso   1.000  N
  C46      1.0000 0.47760  0.30580  0.86770  Biso   1.000  C
  H196     1.0000 0.45990  0.32740  0.85650  Biso   1.000  H
  H197     1.0000 0.47440  0.18970  0.87270  Biso   1.000  H
  H198     1.0000 0.47460  0.19160  0.94990  Biso   1.000  H
  C47      1.0000 0.38070  0.34890  0.88850  Biso   1.000  C
  H199     1.0000 0.41020  0.35310  0.89280  Biso   1.000  H
  H200     1.0000 0.29880  0.26210  0.85780  Biso   1.000  H
  H201     1.0000 0.26710  0.30320  0.93520  Biso   1.000  H
  H202     1.0000 0.52550  0.22180  0.95200  Biso   1.000  H
  H203     1.0000 0.52540  0.16740  0.89740  Biso   1.000  H
  H204     1.0000 0.28710  0.32300  0.94800  Biso   1.000  H
  H205     1.0000 0.25280  0.25540  0.94720  Biso   1.000  H
  H206     1.0000 0.24340  0.27790  0.90280  Biso   1.000  H
  H207     1.0000 0.27880  0.24170  0.90580  Biso   1.000  H
  C48      1.0000 0.16430  0.65720  0.13390  Biso   1.000  C
  H208     1.0000 0.16770  0.67780  0.11220  Biso   1.000  H
  N33      1.0000 0.61380  0.03550  0.77010  Biso   1.000  N
  N34      1.0000 0.61950  0.14070  0.80870  Biso   1.000  N
  C49      1.0000 0.63230  0.02240  0.80580  Biso   1.000  C
  H209     1.0000 0.64350  0.04010  0.82740  Biso   1.000  H
  H210     1.0000 0.62730  0.02560  0.68970  Biso   1.000  H
  H211     1.0000 0.55010  0.02540  0.69160  Biso   1.000  H
  C50      1.0000 0.61150  0.11930  0.84890  Biso   1.000  C
  H212     1.0000 0.60720  0.08980  0.85310  Biso   1.000  H
  H213     1.0000 0.64220  0.20120  0.76210  Biso   1.000  H
  H214     1.0000 0.56480  0.23290  0.80320  Biso   1.000  H
  H215     1.0000 0.54800  0.97450  0.72180  Biso   1.000  H
  H216     1.0000 0.60260  0.97460  0.66740  Biso   1.000  H
  H217     1.0000 0.55200  0.21290  0.82300  Biso   1.000  H
  H218     1.0000 0.55280  0.24720  0.75540  Biso   1.000  H
  H219     1.0000 0.59720  0.25660  0.77790  Biso   1.000  H
  H220     1.0000 0.59420  0.22120  0.74170  Biso   1.000  H
  C51      1.0000 0.36610  0.33570  0.15720  Biso   1.000  C
  H221     1.0000 0.38780  0.33230  0.17780  Biso   1.000  H
  N35      1.0000 0.11380  0.53550  0.27010  Biso   1.000  N
  N36      1.0000 0.11950  0.64070  0.30870  Biso   1.000  N
  C52      1.0000 0.13230  0.52240  0.30580  Biso   1.000  C
  H222     1.0000 0.14350  0.54010  0.32740  Biso   1.000  H
  H223     1.0000 0.12730  0.52560  0.18970  Biso   1.000  H
  H224     1.0000 0.05010  0.52540  0.19160  Biso   1.000  H
  C53      1.0000 0.11150  0.61930  0.34890  Biso   1.000  C
  H225     1.0000 0.10720  0.58980  0.35310  Biso   1.000  H
  H226     1.0000 0.14220  0.70120  0.26210  Biso   1.000  H
  H227     1.0000 0.06480  0.73290  0.30320  Biso   1.000  H
  H228     1.0000 0.04800  0.47450  0.22180  Biso   1.000  H
  H229     1.0000 0.10260  0.47460  0.16740  Biso   1.000  H
  H230     1.0000 0.05200  0.71290  0.32300  Biso   1.000  H
  H231     1.0000 0.05280  0.74720  0.25540  Biso   1.000  H
  H232     1.0000 0.09720  0.75660  0.27790  Biso   1.000  H
  H233     1.0000 0.09420  0.72120  0.24170  Biso   1.000  H
  C54      1.0000 0.86610  0.83570  0.65720  Biso   1.000  C
  H234     1.0000 0.88780  0.83230  0.67780  Biso   1.000  H
  N37      1.0000 0.38620  0.03550  0.22990  Biso   1.000  N
  N38      1.0000 0.38050  0.14070  0.19130  Biso   1.000  N
  C55      1.0000 0.36770  0.02240  0.19420  Biso   1.000  C
  H235     1.0000 0.35650  0.04010  0.17260  Biso   1.000  H
  H236     1.0000 0.37270  0.02560  0.31030  Biso   1.000  H
  H237     1.0000 0.44990  0.02540  0.30840  Biso   1.000  H
  C56      1.0000 0.38850  0.11930  0.15110  Biso   1.000  C
  H238     1.0000 0.39280  0.08980  0.14690  Biso   1.000  H
  H239     1.0000 0.35780  0.20120  0.23790  Biso   1.000  H
  H240     1.0000 0.43520  0.23290  0.19680  Biso   1.000  H
  H241     1.0000 0.45200  0.97450  0.27820  Biso   1.000  H
  H242     1.0000 0.39740  0.97460  0.33260  Biso   1.000  H
  H243     1.0000 0.44800  0.21290  0.17700  Biso   1.000  H
  H244     1.0000 0.44720  0.24720  0.24460  Biso   1.000  H
  H245     1.0000 0.40280  0.25660  0.22210  Biso   1.000  H
  H246     1.0000 0.40580  0.22120  0.25830  Biso   1.000  H
  C57      1.0000 0.63390  0.33570  0.84280  Biso   1.000  C
  H247     1.0000 0.61220  0.33230  0.82220  Biso   1.000  H
  N39      1.0000 0.88620  0.53550  0.72990  Biso   1.000  N
  N40      1.0000 0.88050  0.64070  0.69130  Biso   1.000  N
  C58      1.0000 0.86770  0.52240  0.69420  Biso   1.000  C
  H248     1.0000 0.85650  0.54010  0.67260  Biso   1.000  H
  H249     1.0000 0.87270  0.52560  0.81030  Biso   1.000  H
  H250     1.0000 0.94990  0.52540  0.80840  Biso   1.000  H
  C59      1.0000 0.88850  0.61930  0.65110  Biso   1.000  C
  H251     1.0000 0.89280  0.58980  0.64690  Biso   1.000  H
  H252     1.0000 0.85780  0.70120  0.73790  Biso   1.000  H
  H253     1.0000 0.93520  0.73290  0.69680  Biso   1.000  H
  H254     1.0000 0.95200  0.47450  0.77820  Biso   1.000  H
  H255     1.0000 0.89740  0.47460  0.83260  Biso   1.000  H
  H256     1.0000 0.94800  0.71290  0.67700  Biso   1.000  H
  H257     1.0000 0.94720  0.74720  0.74460  Biso   1.000  H
  H258     1.0000 0.90280  0.75660  0.72210  Biso   1.000  H
  H259     1.0000 0.90580  0.72120  0.75830  Biso   1.000  H
  C60      1.0000 0.13390  0.83570  0.34280  Biso   1.000  C
  H260     1.0000 0.11220  0.83230  0.32220  Biso   1.000  H
  N41      1.0000 0.61380  0.96450  0.22990  Biso   1.000  N
  N42      1.0000 0.61950  0.85930  0.19130  Biso   1.000  N
  C61      1.0000 0.63230  0.97760  0.19420  Biso   1.000  C
  H261     1.0000 0.64350  0.95990  0.17260  Biso   1.000  H
  H262     1.0000 0.62730  0.97440  0.31030  Biso   1.000  H
  H263     1.0000 0.55010  0.97460  0.30840  Biso   1.000  H
  C62      1.0000 0.61150  0.88070  0.15110  Biso   1.000  C
  H264     1.0000 0.60720  0.91020  0.14690  Biso   1.000  H
  H265     1.0000 0.64220  0.79880  0.23790  Biso   1.000  H
  H266     1.0000 0.56480  0.76710  0.19680  Biso   1.000  H
  H267     1.0000 0.54800  0.02550  0.27820  Biso   1.000  H
  H268     1.0000 0.60260  0.02540  0.33260  Biso   1.000  H
  H269     1.0000 0.55200  0.78710  0.17700  Biso   1.000  H
  H270     1.0000 0.55280  0.75280  0.24460  Biso   1.000  H
  H271     1.0000 0.59720  0.74340  0.22210  Biso   1.000  H
  H272     1.0000 0.59420  0.77880  0.25830  Biso   1.000  H
  C63      1.0000 0.36610  0.66430  0.84280  Biso   1.000  C
  H273     1.0000 0.38780  0.66770  0.82220  Biso   1.000  H
  N43      1.0000 0.11380  0.46450  0.72990  Biso   1.000  N
  N44      1.0000 0.11950  0.35930  0.69130  Biso   1.000  N
  C64      1.0000 0.13230  0.47760  0.69420  Biso   1.000  C
  H274     1.0000 0.14350  0.45990  0.67260  Biso   1.000  H
  H275     1.0000 0.12730  0.47440  0.81030  Biso   1.000  H
  H276     1.0000 0.05010  0.47460  0.80840  Biso   1.000  H
  C65      1.0000 0.11150  0.38070  0.65110  Biso   1.000  C
  H277     1.0000 0.10720  0.41020  0.64690  Biso   1.000  H
  H278     1.0000 0.14220  0.29880  0.73790  Biso   1.000  H
  H279     1.0000 0.06480  0.26710  0.69680  Biso   1.000  H
  H280     1.0000 0.04800  0.52550  0.77820  Biso   1.000  H
  H281     1.0000 0.10260  0.52540  0.83260  Biso   1.000  H
  H282     1.0000 0.05200  0.28710  0.67700  Biso   1.000  H
  H283     1.0000 0.05280  0.25280  0.74460  Biso   1.000  H
  H284     1.0000 0.09720  0.24340  0.72210  Biso   1.000  H
  H285     1.0000 0.09420  0.27880  0.75830  Biso   1.000  H
  C66      1.0000 0.86610  0.16430  0.34280  Biso   1.000  C
  H286     1.0000 0.88780  0.16770  0.32220  Biso   1.000  H
  N45      1.0000 0.38620  0.96450  0.77010  Biso   1.000  N
  N46      1.0000 0.38050  0.85930  0.80870  Biso   1.000  N
  C67      1.0000 0.36770  0.97760  0.80580  Biso   1.000  C
  H287     1.0000 0.35650  0.95990  0.82740  Biso   1.000  H
  H288     1.0000 0.37270  0.97440  0.68970  Biso   1.000  H
  H289     1.0000 0.44990  0.97460  0.69160  Biso   1.000  H
  C68      1.0000 0.38850  0.88070  0.84890  Biso   1.000  C
  H290     1.0000 0.39280  0.91020  0.85310  Biso   1.000  H
  H291     1.0000 0.35780  0.79880  0.76210  Biso   1.000  H
  H292     1.0000 0.43520  0.76710  0.80320  Biso   1.000  H
  H293     1.0000 0.45200  0.02550  0.72180  Biso   1.000  H
  H294     1.0000 0.39740  0.02540  0.66740  Biso   1.000  H
  H295     1.0000 0.44800  0.78710  0.82300  Biso   1.000  H
  H296     1.0000 0.44720  0.75280  0.75540  Biso   1.000  H
  H297     1.0000 0.40280  0.74340  0.77790  Biso   1.000  H
  H298     1.0000 0.40580  0.77880  0.74170  Biso   1.000  H
  C69      1.0000 0.63390  0.66430  0.15720  Biso   1.000  C
  H299     1.0000 0.61220  0.66770  0.17780  Biso   1.000  H
  N47      1.0000 0.88620  0.46450  0.27010  Biso   1.000  N
  N48      1.0000 0.88050  0.35930  0.30870  Biso   1.000  N
  C70      1.0000 0.86770  0.47760  0.30580  Biso   1.000  C
  H300     1.0000 0.85650  0.45990  0.32740  Biso   1.000  H
  H301     1.0000 0.87270  0.47440  0.18970  Biso   1.000  H
  H302     1.0000 0.94990  0.47460  0.19160  Biso   1.000  H
  C71      1.0000 0.88850  0.38070  0.34890  Biso   1.000  C
  H303     1.0000 0.89280  0.41020  0.35310  Biso   1.000  H
  H304     1.0000 0.85780  0.29880  0.26210  Biso   1.000  H
  H305     1.0000 0.93520  0.26710  0.30320  Biso   1.000  H
  H306     1.0000 0.95200  0.52550  0.22180  Biso   1.000  H
  H307     1.0000 0.89740  0.52540  0.16740  Biso   1.000  H
  H308     1.0000 0.94800  0.28710  0.32300  Biso   1.000  H
  H309     1.0000 0.94720  0.25280  0.25540  Biso   1.000  H
  H310     1.0000 0.90280  0.24340  0.27790  Biso   1.000  H
  H311     1.0000 0.90580  0.27880  0.24170  Biso   1.000  H
  C72      1.0000 0.13390  0.16430  0.65720  Biso   1.000  C
  H312     1.0000 0.11220  0.16770  0.67780  Biso   1.000  H
  N49      1.0000 0.61380  0.77010  0.96450  Biso   1.000  N
  N50      1.0000 0.61950  0.80870  0.85930  Biso   1.000  N
  C73      1.0000 0.63230  0.80580  0.97760  Biso   1.000  C
  H313     1.0000 0.64350  0.82740  0.95990  Biso   1.000  H
  H314     1.0000 0.62730  0.68970  0.97440  Biso   1.000  H
  H315     1.0000 0.55010  0.69160  0.97460  Biso   1.000  H
  C74      1.0000 0.61150  0.84890  0.88070  Biso   1.000  C
  H316     1.0000 0.60720  0.85310  0.91020  Biso   1.000  H
  H317     1.0000 0.64220  0.76210  0.79880  Biso   1.000  H
  H318     1.0000 0.56480  0.80320  0.76710  Biso   1.000  H
  H319     1.0000 0.54800  0.72180  0.02550  Biso   1.000  H
  H320     1.0000 0.60260  0.66740  0.02540  Biso   1.000  H
  H321     1.0000 0.55200  0.82300  0.78710  Biso   1.000  H
  H322     1.0000 0.55280  0.75540  0.75280  Biso   1.000  H
  H323     1.0000 0.59720  0.77790  0.74340  Biso   1.000  H
  H324     1.0000 0.59420  0.74170  0.77880  Biso   1.000  H
  C75      1.0000 0.36610  0.15720  0.66430  Biso   1.000  C
  H325     1.0000 0.38780  0.17780  0.66770  Biso   1.000  H
  N51      1.0000 0.11380  0.27010  0.46450  Biso   1.000  N
  N52      1.0000 0.11950  0.30870  0.35930  Biso   1.000  N
  C76      1.0000 0.13230  0.30580  0.47760  Biso   1.000  C
  H326     1.0000 0.14350  0.32740  0.45990  Biso   1.000  H
  H327     1.0000 0.12730  0.18970  0.47440  Biso   1.000  H
  H328     1.0000 0.05010  0.19160  0.47460  Biso   1.000  H
  C77      1.0000 0.11150  0.34890  0.38070  Biso   1.000  C
  H329     1.0000 0.10720  0.35310  0.41020  Biso   1.000  H
  H330     1.0000 0.14220  0.26210  0.29880  Biso   1.000  H
  H331     1.0000 0.06480  0.30320  0.26710  Biso   1.000  H
  H332     1.0000 0.04800  0.22180  0.52550  Biso   1.000  H
  H333     1.0000 0.10260  0.16740  0.52540  Biso   1.000  H
  H334     1.0000 0.05200  0.32300  0.28710  Biso   1.000  H
  H335     1.0000 0.05280  0.25540  0.25280  Biso   1.000  H
  H336     1.0000 0.09720  0.27790  0.24340  Biso   1.000  H
  H337     1.0000 0.09420  0.24170  0.27880  Biso   1.000  H
  C78      1.0000 0.86610  0.65720  0.16430  Biso   1.000  C
  H338     1.0000 0.88780  0.67780  0.16770  Biso   1.000  H
  N53      1.0000 0.38620  0.22990  0.96450  Biso   1.000  N
  N54      1.0000 0.38050  0.19130  0.85930  Biso   1.000  N
  C79      1.0000 0.36770  0.19420  0.97760  Biso   1.000  C
  H339     1.0000 0.35650  0.17260  0.95990  Biso   1.000  H
  H340     1.0000 0.37270  0.31030  0.97440  Biso   1.000  H
  H341     1.0000 0.44990  0.30840  0.97460  Biso   1.000  H
  C80      1.0000 0.38850  0.15110  0.88070  Biso   1.000  C
  H342     1.0000 0.39280  0.14690  0.91020  Biso   1.000  H
  H343     1.0000 0.35780  0.23790  0.79880  Biso   1.000  H
  H344     1.0000 0.43520  0.19680  0.76710  Biso   1.000  H
  H345     1.0000 0.45200  0.27820  0.02550  Biso   1.000  H
  H346     1.0000 0.39740  0.33260  0.02540  Biso   1.000  H
  H347     1.0000 0.44800  0.17700  0.78710  Biso   1.000  H
  H348     1.0000 0.44720  0.24460  0.75280  Biso   1.000  H
  H349     1.0000 0.40280  0.22210  0.74340  Biso   1.000  H
  H350     1.0000 0.40580  0.25830  0.77880  Biso   1.000  H
  C81      1.0000 0.63390  0.84280  0.66430  Biso   1.000  C
  H351     1.0000 0.61220  0.82220  0.66770  Biso   1.000  H
  N55      1.0000 0.88620  0.72990  0.46450  Biso   1.000  N
  N56      1.0000 0.88050  0.69130  0.35930  Biso   1.000  N
  C82      1.0000 0.86770  0.69420  0.47760  Biso   1.000  C
  H352     1.0000 0.85650  0.67260  0.45990  Biso   1.000  H
  H353     1.0000 0.87270  0.81030  0.47440  Biso   1.000  H
  H354     1.0000 0.94990  0.80840  0.47460  Biso   1.000  H
  C83      1.0000 0.88850  0.65110  0.38070  Biso   1.000  C
  H355     1.0000 0.89280  0.64690  0.41020  Biso   1.000  H
  H356     1.0000 0.85780  0.73790  0.29880  Biso   1.000  H
  H357     1.0000 0.93520  0.69680  0.26710  Biso   1.000  H
  H358     1.0000 0.95200  0.77820  0.52550  Biso   1.000  H
  H359     1.0000 0.89740  0.83260  0.52540  Biso   1.000  H
  H360     1.0000 0.94800  0.67700  0.28710  Biso   1.000  H
  H361     1.0000 0.94720  0.74460  0.25280  Biso   1.000  H
  H362     1.0000 0.90280  0.72210  0.24340  Biso   1.000  H
  H363     1.0000 0.90580  0.75830  0.27880  Biso   1.000  H
  C84      1.0000 0.13390  0.34280  0.16430  Biso   1.000  C
  H364     1.0000 0.11220  0.32220  0.16770  Biso   1.000  H
  N57      1.0000 0.61380  0.22990  0.03550  Biso   1.000  N
  N58      1.0000 0.61950  0.19130  0.14070  Biso   1.000  N
  C85      1.0000 0.63230  0.19420  0.02240  Biso   1.000  C
  H365     1.0000 0.64350  0.17260  0.04010  Biso   1.000  H
  H366     1.0000 0.62730  0.31030  0.02560  Biso   1.000  H
  H367     1.0000 0.55010  0.30840  0.02540  Biso   1.000  H
  C86      1.0000 0.61150  0.15110  0.11930  Biso   1.000  C
  H368     1.0000 0.60720  0.14690  0.08980  Biso   1.000  H
  H369     1.0000 0.64220  0.23790  0.20120  Biso   1.000  H
  H370     1.0000 0.56480  0.19680  0.23290  Biso   1.000  H
  H371     1.0000 0.54800  0.27820  0.97450  Biso   1.000  H
  H372     1.0000 0.60260  0.33260  0.97460  Biso   1.000  H
  H373     1.0000 0.55200  0.17700  0.21290  Biso   1.000  H
  H374     1.0000 0.55280  0.24460  0.24720  Biso   1.000  H
  H375     1.0000 0.59720  0.22210  0.25660  Biso   1.000  H
  H376     1.0000 0.59420  0.25830  0.22120  Biso   1.000  H
  C87      1.0000 0.36610  0.84280  0.33570  Biso   1.000  C
  H377     1.0000 0.38780  0.82220  0.33230  Biso   1.000  H
  N59      1.0000 0.11380  0.72990  0.53550  Biso   1.000  N
  N60      1.0000 0.11950  0.69130  0.64070  Biso   1.000  N
  C88      1.0000 0.13230  0.69420  0.52240  Biso   1.000  C
  H378     1.0000 0.14350  0.67260  0.54010  Biso   1.000  H
  H379     1.0000 0.12730  0.81030  0.52560  Biso   1.000  H
  H380     1.0000 0.05010  0.80840  0.52540  Biso   1.000  H
  C89      1.0000 0.11150  0.65110  0.61930  Biso   1.000  C
  H381     1.0000 0.10720  0.64690  0.58980  Biso   1.000  H
  H382     1.0000 0.14220  0.73790  0.70120  Biso   1.000  H
  H383     1.0000 0.06480  0.69680  0.73290  Biso   1.000  H
  H384     1.0000 0.04800  0.77820  0.47450  Biso   1.000  H
  H385     1.0000 0.10260  0.83260  0.47460  Biso   1.000  H
  H386     1.0000 0.05200  0.67700  0.71290  Biso   1.000  H
  H387     1.0000 0.05280  0.74460  0.74720  Biso   1.000  H
  H388     1.0000 0.09720  0.72210  0.75660  Biso   1.000  H
  H389     1.0000 0.09420  0.75830  0.72120  Biso   1.000  H
  C90      1.0000 0.86610  0.34280  0.83570  Biso   1.000  C
  H390     1.0000 0.88780  0.32220  0.83230  Biso   1.000  H
  N61      1.0000 0.38620  0.77010  0.03550  Biso   1.000  N
  N62      1.0000 0.38050  0.80870  0.14070  Biso   1.000  N
  C91      1.0000 0.36770  0.80580  0.02240  Biso   1.000  C
  H391     1.0000 0.35650  0.82740  0.04010  Biso   1.000  H
  H392     1.0000 0.37270  0.68970  0.02560  Biso   1.000  H
  H393     1.0000 0.44990  0.69160  0.02540  Biso   1.000  H
  C92      1.0000 0.38850  0.84890  0.11930  Biso   1.000  C
  H394     1.0000 0.39280  0.85310  0.08980  Biso   1.000  H
  H395     1.0000 0.35780  0.76210  0.20120  Biso   1.000  H
  H396     1.0000 0.43520  0.80320  0.23290  Biso   1.000  H
  H397     1.0000 0.45200  0.72180  0.97450  Biso   1.000  H
  H398     1.0000 0.39740  0.66740  0.97460  Biso   1.000  H
  H399     1.0000 0.44800  0.82300  0.21290  Biso   1.000  H
  H400     1.0000 0.44720  0.75540  0.24720  Biso   1.000  H
  H401     1.0000 0.40280  0.77790  0.25660  Biso   1.000  H
  H402     1.0000 0.40580  0.74170  0.22120  Biso   1.000  H
  C93      1.0000 0.63390  0.15720  0.33570  Biso   1.000  C
  H403     1.0000 0.61220  0.17780  0.33230  Biso   1.000  H
  N63      1.0000 0.88620  0.27010  0.53550  Biso   1.000  N
  N64      1.0000 0.88050  0.30870  0.64070  Biso   1.000  N
  C94      1.0000 0.86770  0.30580  0.52240  Biso   1.000  C
  H404     1.0000 0.85650  0.32740  0.54010  Biso   1.000  H
  H405     1.0000 0.87270  0.18970  0.52560  Biso   1.000  H
  H406     1.0000 0.94990  0.19160  0.52540  Biso   1.000  H
  C95      1.0000 0.88850  0.34890  0.61930  Biso   1.000  C
  H407     1.0000 0.89280  0.35310  0.58980  Biso   1.000  H
  H408     1.0000 0.85780  0.26210  0.70120  Biso   1.000  H
  H409     1.0000 0.93520  0.30320  0.73290  Biso   1.000  H
  H410     1.0000 0.95200  0.22180  0.47450  Biso   1.000  H
  H411     1.0000 0.89740  0.16740  0.47460  Biso   1.000  H
  H412     1.0000 0.94800  0.32300  0.71290  Biso   1.000  H
  H413     1.0000 0.94720  0.25540  0.74720  Biso   1.000  H
  H414     1.0000 0.90280  0.27790  0.75660  Biso   1.000  H
  H415     1.0000 0.90580  0.24170  0.72120  Biso   1.000  H
  C96      1.0000 0.13390  0.65720  0.83570  Biso   1.000  C
  H416     1.0000 0.11220  0.67780  0.83230  Biso   1.000  H
  N65      1.0000 0.77010  0.03550  0.38620  Biso   1.000  N
  N66      1.0000 0.80870  0.14070  0.38050  Biso   1.000  N
  C97      1.0000 0.80580  0.02240  0.36770  Biso   1.000  C
  H417     1.0000 0.82740  0.04010  0.35650  Biso   1.000  H
  H418     1.0000 0.68970  0.02560  0.37270  Biso   1.000  H
  H419     1.0000 0.69160  0.02540  0.44990  Biso   1.000  H
  C98      1.0000 0.84890  0.11930  0.38850  Biso   1.000  C
  H420     1.0000 0.85310  0.08980  0.39280  Biso   1.000  H
  H421     1.0000 0.76210  0.20120  0.35780  Biso   1.000  H
  H422     1.0000 0.80320  0.23290  0.43520  Biso   1.000  H
  H423     1.0000 0.72180  0.97450  0.45200  Biso   1.000  H
  H424     1.0000 0.66740  0.97460  0.39740  Biso   1.000  H
  H425     1.0000 0.82300  0.21290  0.44800  Biso   1.000  H
  H426     1.0000 0.75540  0.24720  0.44720  Biso   1.000  H
  H427     1.0000 0.77790  0.25660  0.40280  Biso   1.000  H
  H428     1.0000 0.74170  0.22120  0.40580  Biso   1.000  H
  C99      1.0000 0.15720  0.33570  0.63390  Biso   1.000  C
  H429     1.0000 0.17780  0.33230  0.61220  Biso   1.000  H
  N67      1.0000 0.27010  0.53550  0.88620  Biso   1.000  N
  N68      1.0000 0.30870  0.64070  0.88050  Biso   1.000  N
  C100     1.0000 0.30580  0.52240  0.86770  Biso   1.000  C
  H430     1.0000 0.32740  0.54010  0.85650  Biso   1.000  H
  H431     1.0000 0.18970  0.52560  0.87270  Biso   1.000  H
  H432     1.0000 0.19160  0.52540  0.94990  Biso   1.000  H
  C101     1.0000 0.34890  0.61930  0.88850  Biso   1.000  C
  H433     1.0000 0.35310  0.58980  0.89280  Biso   1.000  H
  H434     1.0000 0.26210  0.70120  0.85780  Biso   1.000  H
  H435     1.0000 0.30320  0.73290  0.93520  Biso   1.000  H
  H436     1.0000 0.22180  0.47450  0.95200  Biso   1.000  H
  H437     1.0000 0.16740  0.47460  0.89740  Biso   1.000  H
  H438     1.0000 0.32300  0.71290  0.94800  Biso   1.000  H
  H439     1.0000 0.25540  0.74720  0.94720  Biso   1.000  H
  H440     1.0000 0.27790  0.75660  0.90280  Biso   1.000  H
  H441     1.0000 0.24170  0.72120  0.90580  Biso   1.000  H
  C102     1.0000 0.65720  0.83570  0.13390  Biso   1.000  C
  H442     1.0000 0.67780  0.83230  0.11220  Biso   1.000  H
  N69      1.0000 0.22990  0.03550  0.61380  Biso   1.000  N
  N70      1.0000 0.19130  0.14070  0.61950  Biso   1.000  N
  C103     1.0000 0.19420  0.02240  0.63230  Biso   1.000  C
  H443     1.0000 0.17260  0.04010  0.64350  Biso   1.000  H
  H444     1.0000 0.31030  0.02560  0.62730  Biso   1.000  H
  H445     1.0000 0.30840  0.02540  0.55010  Biso   1.000  H
  C104     1.0000 0.15110  0.11930  0.61150  Biso   1.000  C
  H446     1.0000 0.14690  0.08980  0.60720  Biso   1.000  H
  H447     1.0000 0.23790  0.20120  0.64220  Biso   1.000  H
  H448     1.0000 0.19680  0.23290  0.56480  Biso   1.000  H
  H449     1.0000 0.27820  0.97450  0.54800  Biso   1.000  H
  H450     1.0000 0.33260  0.97460  0.60260  Biso   1.000  H
  H451     1.0000 0.17700  0.21290  0.55200  Biso   1.000  H
  H452     1.0000 0.24460  0.24720  0.55280  Biso   1.000  H
  H453     1.0000 0.22210  0.25660  0.59720  Biso   1.000  H
  H454     1.0000 0.25830  0.22120  0.59420  Biso   1.000  H
  C105     1.0000 0.84280  0.33570  0.36610  Biso   1.000  C
  H455     1.0000 0.82220  0.33230  0.38780  Biso   1.000  H
  N71      1.0000 0.72990  0.53550  0.11380  Biso   1.000  N
  N72      1.0000 0.69130  0.64070  0.11950  Biso   1.000  N
  C106     1.0000 0.69420  0.52240  0.13230  Biso   1.000  C
  H456     1.0000 0.67260  0.54010  0.14350  Biso   1.000  H
  H457     1.0000 0.81030  0.52560  0.12730  Biso   1.000  H
  H458     1.0000 0.80840  0.52540  0.05010  Biso   1.000  H
  C107     1.0000 0.65110  0.61930  0.11150  Biso   1.000  C
  H459     1.0000 0.64690  0.58980  0.10720  Biso   1.000  H
  H460     1.0000 0.73790  0.70120  0.14220  Biso   1.000  H
  H461     1.0000 0.69680  0.73290  0.06480  Biso   1.000  H
  H462     1.0000 0.77820  0.47450  0.04800  Biso   1.000  H
  H463     1.0000 0.83260  0.47460  0.10260  Biso   1.000  H
  H464     1.0000 0.67700  0.71290  0.05200  Biso   1.000  H
  H465     1.0000 0.74460  0.74720  0.05280  Biso   1.000  H
  H466     1.0000 0.72210  0.75660  0.09720  Biso   1.000  H
  H467     1.0000 0.75830  0.72120  0.09420  Biso   1.000  H
  C108     1.0000 0.34280  0.83570  0.86610  Biso   1.000  C
  H468     1.0000 0.32220  0.83230  0.88780  Biso   1.000  H
  N73      1.0000 0.22990  0.96450  0.38620  Biso   1.000  N
  N74      1.0000 0.19130  0.85930  0.38050  Biso   1.000  N
  C109     1.0000 0.19420  0.97760  0.36770  Biso   1.000  C
  H469     1.0000 0.17260  0.95990  0.35650  Biso   1.000  H
  H470     1.0000 0.31030  0.97440  0.37270  Biso   1.000  H
  H471     1.0000 0.30840  0.97460  0.44990  Biso   1.000  H
  C110     1.0000 0.15110  0.88070  0.38850  Biso   1.000  C
  H472     1.0000 0.14690  0.91020  0.39280  Biso   1.000  H
  H473     1.0000 0.23790  0.79880  0.35780  Biso   1.000  H
  H474     1.0000 0.19680  0.76710  0.43520  Biso   1.000  H
  H475     1.0000 0.27820  0.02550  0.45200  Biso   1.000  H
  H476     1.0000 0.33260  0.02540  0.39740  Biso   1.000  H
  H477     1.0000 0.17700  0.78710  0.44800  Biso   1.000  H
  H478     1.0000 0.24460  0.75280  0.44720  Biso   1.000  H
  H479     1.0000 0.22210  0.74340  0.40280  Biso   1.000  H
  H480     1.0000 0.25830  0.77880  0.40580  Biso   1.000  H
  C111     1.0000 0.84280  0.66430  0.63390  Biso   1.000  C
  H481     1.0000 0.82220  0.66770  0.61220  Biso   1.000  H
  N75      1.0000 0.72990  0.46450  0.88620  Biso   1.000  N
  N76      1.0000 0.69130  0.35930  0.88050  Biso   1.000  N
  C112     1.0000 0.69420  0.47760  0.86770  Biso   1.000  C
  H482     1.0000 0.67260  0.45990  0.85650  Biso   1.000  H
  H483     1.0000 0.81030  0.47440  0.87270  Biso   1.000  H
  H484     1.0000 0.80840  0.47460  0.94990  Biso   1.000  H
  C113     1.0000 0.65110  0.38070  0.88850  Biso   1.000  C
  H485     1.0000 0.64690  0.41020  0.89280  Biso   1.000  H
  H486     1.0000 0.73790  0.29880  0.85780  Biso   1.000  H
  H487     1.0000 0.69680  0.26710  0.93520  Biso   1.000  H
  H488     1.0000 0.77820  0.52550  0.95200  Biso   1.000  H
  H489     1.0000 0.83260  0.52540  0.89740  Biso   1.000  H
  H490     1.0000 0.67700  0.28710  0.94800  Biso   1.000  H
  H491     1.0000 0.74460  0.25280  0.94720  Biso   1.000  H
  H492     1.0000 0.72210  0.24340  0.90280  Biso   1.000  H
  H493     1.0000 0.75830  0.27880  0.90580  Biso   1.000  H
  C114     1.0000 0.34280  0.16430  0.13390  Biso   1.000  C
  H494     1.0000 0.32220  0.16770  0.11220  Biso   1.000  H
  N77      1.0000 0.77010  0.96450  0.61380  Biso   1.000  N
  N78      1.0000 0.80870  0.85930  0.61950  Biso   1.000  N
  C115     1.0000 0.80580  0.97760  0.63230  Biso   1.000  C
  H495     1.0000 0.82740  0.95990  0.64350  Biso   1.000  H
  H496     1.0000 0.68970  0.97440  0.62730  Biso   1.000  H
  H497     1.0000 0.69160  0.97460  0.55010  Biso   1.000  H
  C116     1.0000 0.84890  0.88070  0.61150  Biso   1.000  C
  H498     1.0000 0.85310  0.91020  0.60720  Biso   1.000  H
  H499     1.0000 0.76210  0.79880  0.64220  Biso   1.000  H
  H500     1.0000 0.80320  0.76710  0.56480  Biso   1.000  H
  H501     1.0000 0.72180  0.02550  0.54800  Biso   1.000  H
  H502     1.0000 0.66740  0.02540  0.60260  Biso   1.000  H
  H503     1.0000 0.82300  0.78710  0.55200  Biso   1.000  H
  H504     1.0000 0.75540  0.75280  0.55280  Biso   1.000  H
  H505     1.0000 0.77790  0.74340  0.59720  Biso   1.000  H
  H506     1.0000 0.74170  0.77880  0.59420  Biso   1.000  H
  C117     1.0000 0.15720  0.66430  0.36610  Biso   1.000  C
  H507     1.0000 0.17780  0.66770  0.38780  Biso   1.000  H
  N79      1.0000 0.27010  0.46450  0.11380  Biso   1.000  N
  N80      1.0000 0.30870  0.35930  0.11950  Biso   1.000  N
  C118     1.0000 0.30580  0.47760  0.13230  Biso   1.000  C
  H508     1.0000 0.32740  0.45990  0.14350  Biso   1.000  H
  H509     1.0000 0.18970  0.47440  0.12730  Biso   1.000  H
  H510     1.0000 0.19160  0.47460  0.05010  Biso   1.000  H
  C119     1.0000 0.34890  0.38070  0.11150  Biso   1.000  C
  H511     1.0000 0.35310  0.41020  0.10720  Biso   1.000  H
  H512     1.0000 0.26210  0.29880  0.14220  Biso   1.000  H
  H513     1.0000 0.30320  0.26710  0.06480  Biso   1.000  H
  H514     1.0000 0.22180  0.52550  0.04800  Biso   1.000  H
  H515     1.0000 0.16740  0.52540  0.10260  Biso   1.000  H
  H516     1.0000 0.32300  0.28710  0.05200  Biso   1.000  H
  H517     1.0000 0.25540  0.25280  0.05280  Biso   1.000  H
  H518     1.0000 0.27790  0.24340  0.09720  Biso   1.000  H
  H519     1.0000 0.24170  0.27880  0.09420  Biso   1.000  H
  C120     1.0000 0.65720  0.16430  0.86610  Biso   1.000  C
  H520     1.0000 0.67780  0.16770  0.88780  Biso   1.000  H
  N81      1.0000 0.03550  0.61380  0.22990  Biso   1.000  N
  N82      1.0000 0.14070  0.61950  0.19130  Biso   1.000  N
  C121     1.0000 0.02240  0.63230  0.19420  Biso   1.000  C
  H521     1.0000 0.04010  0.64350  0.17260  Biso   1.000  H
  H522     1.0000 0.02560  0.62730  0.31030  Biso   1.000  H
  H523     1.0000 0.02540  0.55010  0.30840  Biso   1.000  H
  C122     1.0000 0.11930  0.61150  0.15110  Biso   1.000  C
  H524     1.0000 0.08980  0.60720  0.14690  Biso   1.000  H
  H525     1.0000 0.20120  0.64220  0.23790  Biso   1.000  H
  H526     1.0000 0.23290  0.56480  0.19680  Biso   1.000  H
  H527     1.0000 0.97450  0.54800  0.27820  Biso   1.000  H
  H528     1.0000 0.97460  0.60260  0.33260  Biso   1.000  H
  H529     1.0000 0.21290  0.55200  0.17700  Biso   1.000  H
  H530     1.0000 0.24720  0.55280  0.24460  Biso   1.000  H
  H531     1.0000 0.25660  0.59720  0.22210  Biso   1.000  H
  H532     1.0000 0.22120  0.59420  0.25830  Biso   1.000  H
  C123     1.0000 0.33570  0.36610  0.84280  Biso   1.000  C
  H533     1.0000 0.33230  0.38780  0.82220  Biso   1.000  H
  N83      1.0000 0.53550  0.11380  0.72990  Biso   1.000  N
  N84      1.0000 0.64070  0.11950  0.69130  Biso   1.000  N
  C124     1.0000 0.52240  0.13230  0.69420  Biso   1.000  C
  H534     1.0000 0.54010  0.14350  0.67260  Biso   1.000  H
  H535     1.0000 0.52560  0.12730  0.81030  Biso   1.000  H
  H536     1.0000 0.52540  0.05010  0.80840  Biso   1.000  H
  C125     1.0000 0.61930  0.11150  0.65110  Biso   1.000  C
  H537     1.0000 0.58980  0.10720  0.64690  Biso   1.000  H
  H538     1.0000 0.70120  0.14220  0.73790  Biso   1.000  H
  H539     1.0000 0.73290  0.06480  0.69680  Biso   1.000  H
  H540     1.0000 0.47450  0.04800  0.77820  Biso   1.000  H
  H541     1.0000 0.47460  0.10260  0.83260  Biso   1.000  H
  H542     1.0000 0.71290  0.05200  0.67700  Biso   1.000  H
  H543     1.0000 0.74720  0.05280  0.74460  Biso   1.000  H
  H544     1.0000 0.75660  0.09720  0.72210  Biso   1.000  H
  H545     1.0000 0.72120  0.09420  0.75830  Biso   1.000  H
  C126     1.0000 0.83570  0.86610  0.34280  Biso   1.000  C
  H546     1.0000 0.83230  0.88780  0.32220  Biso   1.000  H
  N85      1.0000 0.03550  0.38620  0.77010  Biso   1.000  N
  N86      1.0000 0.14070  0.38050  0.80870  Biso   1.000  N
  C127     1.0000 0.02240  0.36770  0.80580  Biso   1.000  C
  H547     1.0000 0.04010  0.35650  0.82740  Biso   1.000  H
  H548     1.0000 0.02560  0.37270  0.68970  Biso   1.000  H
  H549     1.0000 0.02540  0.44990  0.69160  Biso   1.000  H
  C128     1.0000 0.11930  0.38850  0.84890  Biso   1.000  C
  H550     1.0000 0.08980  0.39280  0.85310  Biso   1.000  H
  H551     1.0000 0.20120  0.35780  0.76210  Biso   1.000  H
  H552     1.0000 0.23290  0.43520  0.80320  Biso   1.000  H
  H553     1.0000 0.97450  0.45200  0.72180  Biso   1.000  H
  H554     1.0000 0.97460  0.39740  0.66740  Biso   1.000  H
  H555     1.0000 0.21290  0.44800  0.82300  Biso   1.000  H
  H556     1.0000 0.24720  0.44720  0.75540  Biso   1.000  H
  H557     1.0000 0.25660  0.40280  0.77790  Biso   1.000  H
  H558     1.0000 0.22120  0.40580  0.74170  Biso   1.000  H
  C129     1.0000 0.33570  0.63390  0.15720  Biso   1.000  C
  H559     1.0000 0.33230  0.61220  0.17780  Biso   1.000  H
  N87      1.0000 0.53550  0.88620  0.27010  Biso   1.000  N
  N88      1.0000 0.64070  0.88050  0.30870  Biso   1.000  N
  C130     1.0000 0.52240  0.86770  0.30580  Biso   1.000  C
  H560     1.0000 0.54010  0.85650  0.32740  Biso   1.000  H
  H561     1.0000 0.52560  0.87270  0.18970  Biso   1.000  H
  H562     1.0000 0.52540  0.94990  0.19160  Biso   1.000  H
  C131     1.0000 0.61930  0.88850  0.34890  Biso   1.000  C
  H563     1.0000 0.58980  0.89280  0.35310  Biso   1.000  H
  H564     1.0000 0.70120  0.85780  0.26210  Biso   1.000  H
  H565     1.0000 0.73290  0.93520  0.30320  Biso   1.000  H
  H566     1.0000 0.47450  0.95200  0.22180  Biso   1.000  H
  H567     1.0000 0.47460  0.89740  0.16740  Biso   1.000  H
  H568     1.0000 0.71290  0.94800  0.32300  Biso   1.000  H
  H569     1.0000 0.74720  0.94720  0.25540  Biso   1.000  H
  H570     1.0000 0.75660  0.90280  0.27790  Biso   1.000  H
  H571     1.0000 0.72120  0.90580  0.24170  Biso   1.000  H
  C132     1.0000 0.83570  0.13390  0.65720  Biso   1.000  C
  H572     1.0000 0.83230  0.11220  0.67780  Biso   1.000  H
  N89      1.0000 0.96450  0.61380  0.77010  Biso   1.000  N
  N90      1.0000 0.85930  0.61950  0.80870  Biso   1.000  N
  C133     1.0000 0.97760  0.63230  0.80580  Biso   1.000  C
  H573     1.0000 0.95990  0.64350  0.82740  Biso   1.000  H
  H574     1.0000 0.97440  0.62730  0.68970  Biso   1.000  H
  H575     1.0000 0.97460  0.55010  0.69160  Biso   1.000  H
  C134     1.0000 0.88070  0.61150  0.84890  Biso   1.000  C
  H576     1.0000 0.91020  0.60720  0.85310  Biso   1.000  H
  H577     1.0000 0.79880  0.64220  0.76210  Biso   1.000  H
  H578     1.0000 0.76710  0.56480  0.80320  Biso   1.000  H
  H579     1.0000 0.02550  0.54800  0.72180  Biso   1.000  H
  H580     1.0000 0.02540  0.60260  0.66740  Biso   1.000  H
  H581     1.0000 0.78710  0.55200  0.82300  Biso   1.000  H
  H582     1.0000 0.75280  0.55280  0.75540  Biso   1.000  H
  H583     1.0000 0.74340  0.59720  0.77790  Biso   1.000  H
  H584     1.0000 0.77880  0.59420  0.74170  Biso   1.000  H
  C135     1.0000 0.66430  0.36610  0.15720  Biso   1.000  C
  H585     1.0000 0.66770  0.38780  0.17780  Biso   1.000  H
  N91      1.0000 0.46450  0.11380  0.27010  Biso   1.000  N
  N92      1.0000 0.35930  0.11950  0.30870  Biso   1.000  N
  C136     1.0000 0.47760  0.13230  0.30580  Biso   1.000  C
  H586     1.0000 0.45990  0.14350  0.32740  Biso   1.000  H
  H587     1.0000 0.47440  0.12730  0.18970  Biso   1.000  H
  H588     1.0000 0.47460  0.05010  0.19160  Biso   1.000  H
  C137     1.0000 0.38070  0.11150  0.34890  Biso   1.000  C
  H589     1.0000 0.41020  0.10720  0.35310  Biso   1.000  H
  H590     1.0000 0.29880  0.14220  0.26210  Biso   1.000  H
  H591     1.0000 0.26710  0.06480  0.30320  Biso   1.000  H
  H592     1.0000 0.52550  0.04800  0.22180  Biso   1.000  H
  H593     1.0000 0.52540  0.10260  0.16740  Biso   1.000  H
  H594     1.0000 0.28710  0.05200  0.32300  Biso   1.000  H
  H595     1.0000 0.25280  0.05280  0.25540  Biso   1.000  H
  H596     1.0000 0.24340  0.09720  0.27790  Biso   1.000  H
  H597     1.0000 0.27880  0.09420  0.24170  Biso   1.000  H
  C138     1.0000 0.16430  0.86610  0.65720  Biso   1.000  C
  H598     1.0000 0.16770  0.88780  0.67780  Biso   1.000  H
  N93      1.0000 0.96450  0.38620  0.22990  Biso   1.000  N
  N94      1.0000 0.85930  0.38050  0.19130  Biso   1.000  N
  C139     1.0000 0.97760  0.36770  0.19420  Biso   1.000  C
  H599     1.0000 0.95990  0.35650  0.17260  Biso   1.000  H
  H600     1.0000 0.97440  0.37270  0.31030  Biso   1.000  H
  H601     1.0000 0.97460  0.44990  0.30840  Biso   1.000  H
  C140     1.0000 0.88070  0.38850  0.15110  Biso   1.000  C
  H602     1.0000 0.91020  0.39280  0.14690  Biso   1.000  H
  H603     1.0000 0.79880  0.35780  0.23790  Biso   1.000  H
  H604     1.0000 0.76710  0.43520  0.19680  Biso   1.000  H
  H605     1.0000 0.02550  0.45200  0.27820  Biso   1.000  H
  H606     1.0000 0.02540  0.39740  0.33260  Biso   1.000  H
  H607     1.0000 0.78710  0.44800  0.17700  Biso   1.000  H
  H608     1.0000 0.75280  0.44720  0.24460  Biso   1.000  H
  H609     1.0000 0.74340  0.40280  0.22210  Biso   1.000  H
  H610     1.0000 0.77880  0.40580  0.25830  Biso   1.000  H
  C141     1.0000 0.66430  0.63390  0.84280  Biso   1.000  C
  H611     1.0000 0.66770  0.61220  0.82220  Biso   1.000  H
  N95      1.0000 0.46450  0.88620  0.72990  Biso   1.000  N
  N96      1.0000 0.35930  0.88050  0.69130  Biso   1.000  N
  C142     1.0000 0.47760  0.86770  0.69420  Biso   1.000  C
  H612     1.0000 0.45990  0.85650  0.67260  Biso   1.000  H
  H613     1.0000 0.47440  0.87270  0.81030  Biso   1.000  H
  H614     1.0000 0.47460  0.94990  0.80840  Biso   1.000  H
  C143     1.0000 0.38070  0.88850  0.65110  Biso   1.000  C
  H615     1.0000 0.41020  0.89280  0.64690  Biso   1.000  H
  H616     1.0000 0.29880  0.85780  0.73790  Biso   1.000  H
  H617     1.0000 0.26710  0.93520  0.69680  Biso   1.000  H
  H618     1.0000 0.52550  0.95200  0.77820  Biso   1.000  H
  H619     1.0000 0.52540  0.89740  0.83260  Biso   1.000  H
  H620     1.0000 0.28710  0.94800  0.67700  Biso   1.000  H
  H621     1.0000 0.25280  0.94720  0.74460  Biso   1.000  H
  H622     1.0000 0.24340  0.90280  0.72210  Biso   1.000  H
  H623     1.0000 0.27880  0.90580  0.75830  Biso   1.000  H
  C144     1.0000 0.16430  0.13390  0.34280  Biso   1.000  C
  H624     1.0000 0.16770  0.11220  0.32220  Biso   1.000  H
  N97      1.0000 0.22990  0.38620  0.96450  Biso   1.000  N
  N98      1.0000 0.19130  0.38050  0.85930  Biso   1.000  N
  C145     1.0000 0.19420  0.36770  0.97760  Biso   1.000  C
  H625     1.0000 0.17260  0.35650  0.95990  Biso   1.000  H
  H626     1.0000 0.31030  0.37270  0.97440  Biso   1.000  H
  H627     1.0000 0.30840  0.44990  0.97460  Biso   1.000  H
  C146     1.0000 0.15110  0.38850  0.88070  Biso   1.000  C
  H628     1.0000 0.14690  0.39280  0.91020  Biso   1.000  H
  H629     1.0000 0.23790  0.35780  0.79880  Biso   1.000  H
  H630     1.0000 0.19680  0.43520  0.76710  Biso   1.000  H
  H631     1.0000 0.27820  0.45200  0.02550  Biso   1.000  H
  H632     1.0000 0.33260  0.39740  0.02540  Biso   1.000  H
  H633     1.0000 0.17700  0.44800  0.78710  Biso   1.000  H
  H634     1.0000 0.24460  0.44720  0.75280  Biso   1.000  H
  H635     1.0000 0.22210  0.40280  0.74340  Biso   1.000  H
  H636     1.0000 0.25830  0.40580  0.77880  Biso   1.000  H
  C147     1.0000 0.84280  0.63390  0.66430  Biso   1.000  C
  H637     1.0000 0.82220  0.61220  0.66770  Biso   1.000  H
  N99      1.0000 0.72990  0.88620  0.46450  Biso   1.000  N
  N100     1.0000 0.69130  0.88050  0.35930  Biso   1.000  N
  C148     1.0000 0.69420  0.86770  0.47760  Biso   1.000  C
  H638     1.0000 0.67260  0.85650  0.45990  Biso   1.000  H
  H639     1.0000 0.81030  0.87270  0.47440  Biso   1.000  H
  H640     1.0000 0.80840  0.94990  0.47460  Biso   1.000  H
  C149     1.0000 0.65110  0.88850  0.38070  Biso   1.000  C
  H641     1.0000 0.64690  0.89280  0.41020  Biso   1.000  H
  H642     1.0000 0.73790  0.85780  0.29880  Biso   1.000  H
  H643     1.0000 0.69680  0.93520  0.26710  Biso   1.000  H
  H644     1.0000 0.77820  0.95200  0.52550  Biso   1.000  H
  H645     1.0000 0.83260  0.89740  0.52540  Biso   1.000  H
  H646     1.0000 0.67700  0.94800  0.28710  Biso   1.000  H
  H647     1.0000 0.74460  0.94720  0.25280  Biso   1.000  H
  H648     1.0000 0.72210  0.90280  0.24340  Biso   1.000  H
  H649     1.0000 0.75830  0.90580  0.27880  Biso   1.000  H
  C150     1.0000 0.34280  0.13390  0.16430  Biso   1.000  C
  H650     1.0000 0.32220  0.11220  0.16770  Biso   1.000  H
  N101     1.0000 0.77010  0.61380  0.96450  Biso   1.000  N
  N102     1.0000 0.80870  0.61950  0.85930  Biso   1.000  N
  C151     1.0000 0.80580  0.63230  0.97760  Biso   1.000  C
  H651     1.0000 0.82740  0.64350  0.95990  Biso   1.000  H
  H652     1.0000 0.68970  0.62730  0.97440  Biso   1.000  H
  H653     1.0000 0.69160  0.55010  0.97460  Biso   1.000  H
  C152     1.0000 0.84890  0.61150  0.88070  Biso   1.000  C
  H654     1.0000 0.85310  0.60720  0.91020  Biso   1.000  H
  H655     1.0000 0.76210  0.64220  0.79880  Biso   1.000  H
  H656     1.0000 0.80320  0.56480  0.76710  Biso   1.000  H
  H657     1.0000 0.72180  0.54800  0.02550  Biso   1.000  H
  H658     1.0000 0.66740  0.60260  0.02540  Biso   1.000  H
  H659     1.0000 0.82300  0.55200  0.78710  Biso   1.000  H
  H660     1.0000 0.75540  0.55280  0.75280  Biso   1.000  H
  H661     1.0000 0.77790  0.59720  0.74340  Biso   1.000  H
  H662     1.0000 0.74170  0.59420  0.77880  Biso   1.000  H
  C153     1.0000 0.15720  0.36610  0.66430  Biso   1.000  C
  H663     1.0000 0.17780  0.38780  0.66770  Biso   1.000  H
  N103     1.0000 0.27010  0.11380  0.46450  Biso   1.000  N
  N104     1.0000 0.30870  0.11950  0.35930  Biso   1.000  N
  C154     1.0000 0.30580  0.13230  0.47760  Biso   1.000  C
  H664     1.0000 0.32740  0.14350  0.45990  Biso   1.000  H
  H665     1.0000 0.18970  0.12730  0.47440  Biso   1.000  H
  H666     1.0000 0.19160  0.05010  0.47460  Biso   1.000  H
  C155     1.0000 0.34890  0.11150  0.38070  Biso   1.000  C
  H667     1.0000 0.35310  0.10720  0.41020  Biso   1.000  H
  H668     1.0000 0.26210  0.14220  0.29880  Biso   1.000  H
  H669     1.0000 0.30320  0.06480  0.26710  Biso   1.000  H
  H670     1.0000 0.22180  0.04800  0.52550  Biso   1.000  H
  H671     1.0000 0.16740  0.10260  0.52540  Biso   1.000  H
  H672     1.0000 0.32300  0.05200  0.28710  Biso   1.000  H
  H673     1.0000 0.25540  0.05280  0.25280  Biso   1.000  H
  H674     1.0000 0.27790  0.09720  0.24340  Biso   1.000  H
  H675     1.0000 0.24170  0.09420  0.27880  Biso   1.000  H
  C156     1.0000 0.65720  0.86610  0.16430  Biso   1.000  C
  H676     1.0000 0.67780  0.88780  0.16770  Biso   1.000  H
  N105     1.0000 0.77010  0.38620  0.03550  Biso   1.000  N
  N106     1.0000 0.80870  0.38050  0.14070  Biso   1.000  N
  C157     1.0000 0.80580  0.36770  0.02240  Biso   1.000  C
  H677     1.0000 0.82740  0.35650  0.04010  Biso   1.000  H
  H678     1.0000 0.68970  0.37270  0.02560  Biso   1.000  H
  H679     1.0000 0.69160  0.44990  0.02540  Biso   1.000  H
  C158     1.0000 0.84890  0.38850  0.11930  Biso   1.000  C
  H680     1.0000 0.85310  0.39280  0.08980  Biso   1.000  H
  H681     1.0000 0.76210  0.35780  0.20120  Biso   1.000  H
  H682     1.0000 0.80320  0.43520  0.23290  Biso   1.000  H
  H683     1.0000 0.72180  0.45200  0.97450  Biso   1.000  H
  H684     1.0000 0.66740  0.39740  0.97460  Biso   1.000  H
  H685     1.0000 0.82300  0.44800  0.21290  Biso   1.000  H
  H686     1.0000 0.75540  0.44720  0.24720  Biso   1.000  H
  H687     1.0000 0.77790  0.40280  0.25660  Biso   1.000  H
  H688     1.0000 0.74170  0.40580  0.22120  Biso   1.000  H
  C159     1.0000 0.15720  0.63390  0.33570  Biso   1.000  C
  H689     1.0000 0.17780  0.61220  0.33230  Biso   1.000  H
  N107     1.0000 0.27010  0.88620  0.53550  Biso   1.000  N
  N108     1.0000 0.30870  0.88050  0.64070  Biso   1.000  N
  C160     1.0000 0.30580  0.86770  0.52240  Biso   1.000  C
  H690     1.0000 0.32740  0.85650  0.54010  Biso   1.000  H
  H691     1.0000 0.18970  0.87270  0.52560  Biso   1.000  H
  H692     1.0000 0.19160  0.94990  0.52540  Biso   1.000  H
  C161     1.0000 0.34890  0.88850  0.61930  Biso   1.000  C
  H693     1.0000 0.35310  0.89280  0.58980  Biso   1.000  H
  H694     1.0000 0.26210  0.85780  0.70120  Biso   1.000  H
  H695     1.0000 0.30320  0.93520  0.73290  Biso   1.000  H
  H696     1.0000 0.22180  0.95200  0.47450  Biso   1.000  H
  H697     1.0000 0.16740  0.89740  0.47460  Biso   1.000  H
  H698     1.0000 0.32300  0.94800  0.71290  Biso   1.000  H
  H699     1.0000 0.25540  0.94720  0.74720  Biso   1.000  H
  H700     1.0000 0.27790  0.90280  0.75660  Biso   1.000  H
  H701     1.0000 0.24170  0.90580  0.72120  Biso   1.000  H
  C162     1.0000 0.65720  0.13390  0.83570  Biso   1.000  C
  H702     1.0000 0.67780  0.11220  0.83230  Biso   1.000  H
  N109     1.0000 0.22990  0.61380  0.03550  Biso   1.000  N
  N110     1.0000 0.19130  0.61950  0.14070  Biso   1.000  N
  C163     1.0000 0.19420  0.63230  0.02240  Biso   1.000  C
  H703     1.0000 0.17260  0.64350  0.04010  Biso   1.000  H
  H704     1.0000 0.31030  0.62730  0.02560  Biso   1.000  H
  H705     1.0000 0.30840  0.55010  0.02540  Biso   1.000  H
  C164     1.0000 0.15110  0.61150  0.11930  Biso   1.000  C
  H706     1.0000 0.14690  0.60720  0.08980  Biso   1.000  H
  H707     1.0000 0.23790  0.64220  0.20120  Biso   1.000  H
  H708     1.0000 0.19680  0.56480  0.23290  Biso   1.000  H
  H709     1.0000 0.27820  0.54800  0.97450  Biso   1.000  H
  H710     1.0000 0.33260  0.60260  0.97460  Biso   1.000  H
  H711     1.0000 0.17700  0.55200  0.21290  Biso   1.000  H
  H712     1.0000 0.24460  0.55280  0.24720  Biso   1.000  H
  H713     1.0000 0.22210  0.59720  0.25660  Biso   1.000  H
  H714     1.0000 0.25830  0.59420  0.22120  Biso   1.000  H
  C165     1.0000 0.84280  0.36610  0.33570  Biso   1.000  C
  H715     1.0000 0.82220  0.38780  0.33230  Biso   1.000  H
  N111     1.0000 0.72990  0.11380  0.53550  Biso   1.000  N
  N112     1.0000 0.69130  0.11950  0.64070  Biso   1.000  N
  C166     1.0000 0.69420  0.13230  0.52240  Biso   1.000  C
  H716     1.0000 0.67260  0.14350  0.54010  Biso   1.000  H
  H717     1.0000 0.81030  0.12730  0.52560  Biso   1.000  H
  H718     1.0000 0.80840  0.05010  0.52540  Biso   1.000  H
  C167     1.0000 0.65110  0.11150  0.61930  Biso   1.000  C
  H719     1.0000 0.64690  0.10720  0.58980  Biso   1.000  H
  H720     1.0000 0.73790  0.14220  0.70120  Biso   1.000  H
  H721     1.0000 0.69680  0.06480  0.73290  Biso   1.000  H
  H722     1.0000 0.77820  0.04800  0.47450  Biso   1.000  H
  H723     1.0000 0.83260  0.10260  0.47460  Biso   1.000  H
  H724     1.0000 0.67700  0.05200  0.71290  Biso   1.000  H
  H725     1.0000 0.74460  0.05280  0.74720  Biso   1.000  H
  H726     1.0000 0.72210  0.09720  0.75660  Biso   1.000  H
  H727     1.0000 0.75830  0.09420  0.72120  Biso   1.000  H
  C168     1.0000 0.34280  0.86610  0.83570  Biso   1.000  C
  H728     1.0000 0.32220  0.88780  0.83230  Biso   1.000  H
  N113     1.0000 0.96450  0.22990  0.38620  Biso   1.000  N
  N114     1.0000 0.85930  0.19130  0.38050  Biso   1.000  N
  C169     1.0000 0.97760  0.19420  0.36770  Biso   1.000  C
  H729     1.0000 0.95990  0.17260  0.35650  Biso   1.000  H
  H730     1.0000 0.97440  0.31030  0.37270  Biso   1.000  H
  H731     1.0000 0.97460  0.30840  0.44990  Biso   1.000  H
  C170     1.0000 0.88070  0.15110  0.38850  Biso   1.000  C
  H732     1.0000 0.91020  0.14690  0.39280  Biso   1.000  H
  H733     1.0000 0.79880  0.23790  0.35780  Biso   1.000  H
  H734     1.0000 0.76710  0.19680  0.43520  Biso   1.000  H
  H735     1.0000 0.02550  0.27820  0.45200  Biso   1.000  H
  H736     1.0000 0.02540  0.33260  0.39740  Biso   1.000  H
  H737     1.0000 0.78710  0.17700  0.44800  Biso   1.000  H
  H738     1.0000 0.75280  0.24460  0.44720  Biso   1.000  H
  H739     1.0000 0.74340  0.22210  0.40280  Biso   1.000  H
  H740     1.0000 0.77880  0.25830  0.40580  Biso   1.000  H
  C171     1.0000 0.66430  0.84280  0.63390  Biso   1.000  C
  H741     1.0000 0.66770  0.82220  0.61220  Biso   1.000  H
  N115     1.0000 0.46450  0.72990  0.88620  Biso   1.000  N
  N116     1.0000 0.35930  0.69130  0.88050  Biso   1.000  N
  C172     1.0000 0.47760  0.69420  0.86770  Biso   1.000  C
  H742     1.0000 0.45990  0.67260  0.85650  Biso   1.000  H
  H743     1.0000 0.47440  0.81030  0.87270  Biso   1.000  H
  H744     1.0000 0.47460  0.80840  0.94990  Biso   1.000  H
  C173     1.0000 0.38070  0.65110  0.88850  Biso   1.000  C
  H745     1.0000 0.41020  0.64690  0.89280  Biso   1.000  H
  H746     1.0000 0.29880  0.73790  0.85780  Biso   1.000  H
  H747     1.0000 0.26710  0.69680  0.93520  Biso   1.000  H
  H748     1.0000 0.52550  0.77820  0.95200  Biso   1.000  H
  H749     1.0000 0.52540  0.83260  0.89740  Biso   1.000  H
  H750     1.0000 0.28710  0.67700  0.94800  Biso   1.000  H
  H751     1.0000 0.25280  0.74460  0.94720  Biso   1.000  H
  H752     1.0000 0.24340  0.72210  0.90280  Biso   1.000  H
  H753     1.0000 0.27880  0.75830  0.90580  Biso   1.000  H
  C174     1.0000 0.16430  0.34280  0.13390  Biso   1.000  C
  H754     1.0000 0.16770  0.32220  0.11220  Biso   1.000  H
  N117     1.0000 0.96450  0.77010  0.61380  Biso   1.000  N
  N118     1.0000 0.85930  0.80870  0.61950  Biso   1.000  N
  C175     1.0000 0.97760  0.80580  0.63230  Biso   1.000  C
  H755     1.0000 0.95990  0.82740  0.64350  Biso   1.000  H
  H756     1.0000 0.97440  0.68970  0.62730  Biso   1.000  H
  H757     1.0000 0.97460  0.69160  0.55010  Biso   1.000  H
  C176     1.0000 0.88070  0.84890  0.61150  Biso   1.000  C
  H758     1.0000 0.91020  0.85310  0.60720  Biso   1.000  H
  H759     1.0000 0.79880  0.76210  0.64220  Biso   1.000  H
  H760     1.0000 0.76710  0.80320  0.56480  Biso   1.000  H
  H761     1.0000 0.02550  0.72180  0.54800  Biso   1.000  H
  H762     1.0000 0.02540  0.66740  0.60260  Biso   1.000  H
  H763     1.0000 0.78710  0.82300  0.55200  Biso   1.000  H
  H764     1.0000 0.75280  0.75540  0.55280  Biso   1.000  H
  H765     1.0000 0.74340  0.77790  0.59720  Biso   1.000  H
  H766     1.0000 0.77880  0.74170  0.59420  Biso   1.000  H
  C177     1.0000 0.66430  0.15720  0.36610  Biso   1.000  C
  H767     1.0000 0.66770  0.17780  0.38780  Biso   1.000  H
  N119     1.0000 0.46450  0.27010  0.11380  Biso   1.000  N
  N120     1.0000 0.35930  0.30870  0.11950  Biso   1.000  N
  C178     1.0000 0.47760  0.30580  0.13230  Biso   1.000  C
  H768     1.0000 0.45990  0.32740  0.14350  Biso   1.000  H
  H769     1.0000 0.47440  0.18970  0.12730  Biso   1.000  H
  H770     1.0000 0.47460  0.19160  0.05010  Biso   1.000  H
  C179     1.0000 0.38070  0.34890  0.11150  Biso   1.000  C
  H771     1.0000 0.41020  0.35310  0.10720  Biso   1.000  H
  H772     1.0000 0.29880  0.26210  0.14220  Biso   1.000  H
  H773     1.0000 0.26710  0.30320  0.06480  Biso   1.000  H
  H774     1.0000 0.52550  0.22180  0.04800  Biso   1.000  H
  H775     1.0000 0.52540  0.16740  0.10260  Biso   1.000  H
  H776     1.0000 0.28710  0.32300  0.05200  Biso   1.000  H
  H777     1.0000 0.25280  0.25540  0.05280  Biso   1.000  H
  H778     1.0000 0.24340  0.27790  0.09720  Biso   1.000  H
  H779     1.0000 0.27880  0.24170  0.09420  Biso   1.000  H
  C180     1.0000 0.16430  0.65720  0.86610  Biso   1.000  C
  H780     1.0000 0.16770  0.67780  0.88780  Biso   1.000  H
  N121     1.0000 0.03550  0.77010  0.38620  Biso   1.000  N
  N122     1.0000 0.14070  0.80870  0.38050  Biso   1.000  N
  C181     1.0000 0.02240  0.80580  0.36770  Biso   1.000  C
  H781     1.0000 0.04010  0.82740  0.35650  Biso   1.000  H
  H782     1.0000 0.02560  0.68970  0.37270  Biso   1.000  H
  H783     1.0000 0.02540  0.69160  0.44990  Biso   1.000  H
  C182     1.0000 0.11930  0.84890  0.38850  Biso   1.000  C
  H784     1.0000 0.08980  0.85310  0.39280  Biso   1.000  H
  H785     1.0000 0.20120  0.76210  0.35780  Biso   1.000  H
  H786     1.0000 0.23290  0.80320  0.43520  Biso   1.000  H
  H787     1.0000 0.97450  0.72180  0.45200  Biso   1.000  H
  H788     1.0000 0.97460  0.66740  0.39740  Biso   1.000  H
  H789     1.0000 0.21290  0.82300  0.44800  Biso   1.000  H
  H790     1.0000 0.24720  0.75540  0.44720  Biso   1.000  H
  H791     1.0000 0.25660  0.77790  0.40280  Biso   1.000  H
  H792     1.0000 0.22120  0.74170  0.40580  Biso   1.000  H
  C183     1.0000 0.33570  0.15720  0.63390  Biso   1.000  C
  H793     1.0000 0.33230  0.17780  0.61220  Biso   1.000  H
  N123     1.0000 0.53550  0.27010  0.88620  Biso   1.000  N
  N124     1.0000 0.64070  0.30870  0.88050  Biso   1.000  N
  C184     1.0000 0.52240  0.30580  0.86770  Biso   1.000  C
  H794     1.0000 0.54010  0.32740  0.85650  Biso   1.000  H
  H795     1.0000 0.52560  0.18970  0.87270  Biso   1.000  H
  H796     1.0000 0.52540  0.19160  0.94990  Biso   1.000  H
  C185     1.0000 0.61930  0.34890  0.88850  Biso   1.000  C
  H797     1.0000 0.58980  0.35310  0.89280  Biso   1.000  H
  H798     1.0000 0.70120  0.26210  0.85780  Biso   1.000  H
  H799     1.0000 0.73290  0.30320  0.93520  Biso   1.000  H
  H800     1.0000 0.47450  0.22180  0.95200  Biso   1.000  H
  H801     1.0000 0.47460  0.16740  0.89740  Biso   1.000  H
  H802     1.0000 0.71290  0.32300  0.94800  Biso   1.000  H
  H803     1.0000 0.74720  0.25540  0.94720  Biso   1.000  H
  H804     1.0000 0.75660  0.27790  0.90280  Biso   1.000  H
  H805     1.0000 0.72120  0.24170  0.90580  Biso   1.000  H
  C186     1.0000 0.83570  0.65720  0.13390  Biso   1.000  C
  H806     1.0000 0.83230  0.67780  0.11220  Biso   1.000  H
  N125     1.0000 0.03550  0.22990  0.61380  Biso   1.000  N
  N126     1.0000 0.14070  0.19130  0.61950  Biso   1.000  N
  C187     1.0000 0.02240  0.19420  0.63230  Biso   1.000  C
  H807     1.0000 0.04010  0.17260  0.64350  Biso   1.000  H
  H808     1.0000 0.02560  0.31030  0.62730  Biso   1.000  H
  H809     1.0000 0.02540  0.30840  0.55010  Biso   1.000  H
  C188     1.0000 0.11930  0.15110  0.61150  Biso   1.000  C
  H810     1.0000 0.08980  0.14690  0.60720  Biso   1.000  H
  H811     1.0000 0.20120  0.23790  0.64220  Biso   1.000  H
  H812     1.0000 0.23290  0.19680  0.56480  Biso   1.000  H
  H813     1.0000 0.97450  0.27820  0.54800  Biso   1.000  H
  H814     1.0000 0.97460  0.33260  0.60260  Biso   1.000  H
  H815     1.0000 0.21290  0.17700  0.55200  Biso   1.000  H
  H816     1.0000 0.24720  0.24460  0.55280  Biso   1.000  H
  H817     1.0000 0.25660  0.22210  0.59720  Biso   1.000  H
  H818     1.0000 0.22120  0.25830  0.59420  Biso   1.000  H
  C189     1.0000 0.33570  0.84280  0.36610  Biso   1.000  C
  H819     1.0000 0.33230  0.82220  0.38780  Biso   1.000  H
  N127     1.0000 0.53550  0.72990  0.11380  Biso   1.000  N
  N128     1.0000 0.64070  0.69130  0.11950  Biso   1.000  N
  C190     1.0000 0.52240  0.69420  0.13230  Biso   1.000  C
  H820     1.0000 0.54010  0.67260  0.14350  Biso   1.000  H
  H821     1.0000 0.52560  0.81030  0.12730  Biso   1.000  H
  H822     1.0000 0.52540  0.80840  0.05010  Biso   1.000  H
  C191     1.0000 0.61930  0.65110  0.11150  Biso   1.000  C
  H823     1.0000 0.58980  0.64690  0.10720  Biso   1.000  H
  H824     1.0000 0.70120  0.73790  0.14220  Biso   1.000  H
  H825     1.0000 0.73290  0.69680  0.06480  Biso   1.000  H
  H826     1.0000 0.47450  0.77820  0.04800  Biso   1.000  H
  H827     1.0000 0.47460  0.83260  0.10260  Biso   1.000  H
  H828     1.0000 0.71290  0.67700  0.05200  Biso   1.000  H
  H829     1.0000 0.74720  0.74460  0.05280  Biso   1.000  H
  H830     1.0000 0.75660  0.72210  0.09720  Biso   1.000  H
  H831     1.0000 0.72120  0.75830  0.09420  Biso   1.000  H
  C192     1.0000 0.83570  0.34280  0.86610  Biso   1.000  C
  H832     1.0000 0.83230  0.32220  0.88780  Biso   1.000  H
  N129     1.0000 0.38620  0.96450  0.22990  Biso   1.000  N
  N130     1.0000 0.38050  0.85930  0.19130  Biso   1.000  N
  C193     1.0000 0.36770  0.97760  0.19420  Biso   1.000  C
  H833     1.0000 0.35650  0.95990  0.17260  Biso   1.000  H
  H834     1.0000 0.37270  0.97440  0.31030  Biso   1.000  H
  H835     1.0000 0.44990  0.97460  0.30840  Biso   1.000  H
  C194     1.0000 0.38850  0.88070  0.15110  Biso   1.000  C
  H836     1.0000 0.39280  0.91020  0.14690  Biso   1.000  H
  H837     1.0000 0.35780  0.79880  0.23790  Biso   1.000  H
  H838     1.0000 0.43520  0.76710  0.19680  Biso   1.000  H
  H839     1.0000 0.45200  0.02550  0.27820  Biso   1.000  H
  H840     1.0000 0.39740  0.02540  0.33260  Biso   1.000  H
  H841     1.0000 0.44800  0.78710  0.17700  Biso   1.000  H
  H842     1.0000 0.44720  0.75280  0.24460  Biso   1.000  H
  H843     1.0000 0.40280  0.74340  0.22210  Biso   1.000  H
  H844     1.0000 0.40580  0.77880  0.25830  Biso   1.000  H
  C195     1.0000 0.63390  0.66430  0.84280  Biso   1.000  C
  H845     1.0000 0.61220  0.66770  0.82220  Biso   1.000  H
  N131     1.0000 0.88620  0.46450  0.72990  Biso   1.000  N
  N132     1.0000 0.88050  0.35930  0.69130  Biso   1.000  N
  C196     1.0000 0.86770  0.47760  0.69420  Biso   1.000  C
  H846     1.0000 0.85650  0.45990  0.67260  Biso   1.000  H
  H847     1.0000 0.87270  0.47440  0.81030  Biso   1.000  H
  H848     1.0000 0.94990  0.47460  0.80840  Biso   1.000  H
  C197     1.0000 0.88850  0.38070  0.65110  Biso   1.000  C
  H849     1.0000 0.89280  0.41020  0.64690  Biso   1.000  H
  H850     1.0000 0.85780  0.29880  0.73790  Biso   1.000  H
  H851     1.0000 0.93520  0.26710  0.69680  Biso   1.000  H
  H852     1.0000 0.95200  0.52550  0.77820  Biso   1.000  H
  H853     1.0000 0.89740  0.52540  0.83260  Biso   1.000  H
  H854     1.0000 0.94800  0.28710  0.67700  Biso   1.000  H
  H855     1.0000 0.94720  0.25280  0.74460  Biso   1.000  H
  H856     1.0000 0.90280  0.24340  0.72210  Biso   1.000  H
  H857     1.0000 0.90580  0.27880  0.75830  Biso   1.000  H
  C198     1.0000 0.13390  0.16430  0.34280  Biso   1.000  C
  H858     1.0000 0.11220  0.16770  0.32220  Biso   1.000  H
  N133     1.0000 0.61380  0.96450  0.77010  Biso   1.000  N
  N134     1.0000 0.61950  0.85930  0.80870  Biso   1.000  N
  C199     1.0000 0.63230  0.97760  0.80580  Biso   1.000  C
  H859     1.0000 0.64350  0.95990  0.82740  Biso   1.000  H
  H860     1.0000 0.62730  0.97440  0.68970  Biso   1.000  H
  H861     1.0000 0.55010  0.97460  0.69160  Biso   1.000  H
  C200     1.0000 0.61150  0.88070  0.84890  Biso   1.000  C
  H862     1.0000 0.60720  0.91020  0.85310  Biso   1.000  H
  H863     1.0000 0.64220  0.79880  0.76210  Biso   1.000  H
  H864     1.0000 0.56480  0.76710  0.80320  Biso   1.000  H
  H865     1.0000 0.54800  0.02550  0.72180  Biso   1.000  H
  H866     1.0000 0.60260  0.02540  0.66740  Biso   1.000  H
  H867     1.0000 0.55200  0.78710  0.82300  Biso   1.000  H
  H868     1.0000 0.55280  0.75280  0.75540  Biso   1.000  H
  H869     1.0000 0.59720  0.74340  0.77790  Biso   1.000  H
  H870     1.0000 0.59420  0.77880  0.74170  Biso   1.000  H
  C201     1.0000 0.36610  0.66430  0.15720  Biso   1.000  C
  H871     1.0000 0.38780  0.66770  0.17780  Biso   1.000  H
  N135     1.0000 0.11380  0.46450  0.27010  Biso   1.000  N
  N136     1.0000 0.11950  0.35930  0.30870  Biso   1.000  N
  C202     1.0000 0.13230  0.47760  0.30580  Biso   1.000  C
  H872     1.0000 0.14350  0.45990  0.32740  Biso   1.000  H
  H873     1.0000 0.12730  0.47440  0.18970  Biso   1.000  H
  H874     1.0000 0.05010  0.47460  0.19160  Biso   1.000  H
  C203     1.0000 0.11150  0.38070  0.34890  Biso   1.000  C
  H875     1.0000 0.10720  0.41020  0.35310  Biso   1.000  H
  H876     1.0000 0.14220  0.29880  0.26210  Biso   1.000  H
  H877     1.0000 0.06480  0.26710  0.30320  Biso   1.000  H
  H878     1.0000 0.04800  0.52550  0.22180  Biso   1.000  H
  H879     1.0000 0.10260  0.52540  0.16740  Biso   1.000  H
  H880     1.0000 0.05200  0.28710  0.32300  Biso   1.000  H
  H881     1.0000 0.05280  0.25280  0.25540  Biso   1.000  H
  H882     1.0000 0.09720  0.24340  0.27790  Biso   1.000  H
  H883     1.0000 0.09420  0.27880  0.24170  Biso   1.000  H
  C204     1.0000 0.86610  0.16430  0.65720  Biso   1.000  C
  H884     1.0000 0.88780  0.16770  0.67780  Biso   1.000  H
  N137     1.0000 0.38620  0.03550  0.77010  Biso   1.000  N
  N138     1.0000 0.38050  0.14070  0.80870  Biso   1.000  N
  C205     1.0000 0.36770  0.02240  0.80580  Biso   1.000  C
  H885     1.0000 0.35650  0.04010  0.82740  Biso   1.000  H
  H886     1.0000 0.37270  0.02560  0.68970  Biso   1.000  H
  H887     1.0000 0.44990  0.02540  0.69160  Biso   1.000  H
  C206     1.0000 0.38850  0.11930  0.84890  Biso   1.000  C
  H888     1.0000 0.39280  0.08980  0.85310  Biso   1.000  H
  H889     1.0000 0.35780  0.20120  0.76210  Biso   1.000  H
  H890     1.0000 0.43520  0.23290  0.80320  Biso   1.000  H
  H891     1.0000 0.45200  0.97450  0.72180  Biso   1.000  H
  H892     1.0000 0.39740  0.97460  0.66740  Biso   1.000  H
  H893     1.0000 0.44800  0.21290  0.82300  Biso   1.000  H
  H894     1.0000 0.44720  0.24720  0.75540  Biso   1.000  H
  H895     1.0000 0.40280  0.25660  0.77790  Biso   1.000  H
  H896     1.0000 0.40580  0.22120  0.74170  Biso   1.000  H
  C207     1.0000 0.63390  0.33570  0.15720  Biso   1.000  C
  H897     1.0000 0.61220  0.33230  0.17780  Biso   1.000  H
  N139     1.0000 0.88620  0.53550  0.27010  Biso   1.000  N
  N140     1.0000 0.88050  0.64070  0.30870  Biso   1.000  N
  C208     1.0000 0.86770  0.52240  0.30580  Biso   1.000  C
  H898     1.0000 0.85650  0.54010  0.32740  Biso   1.000  H
  H899     1.0000 0.87270  0.52560  0.18970  Biso   1.000  H
  H900     1.0000 0.94990  0.52540  0.19160  Biso   1.000  H
  C209     1.0000 0.88850  0.61930  0.34890  Biso   1.000  C
  H901     1.0000 0.89280  0.58980  0.35310  Biso   1.000  H
  H902     1.0000 0.85780  0.70120  0.26210  Biso   1.000  H
  H903     1.0000 0.93520  0.73290  0.30320  Biso   1.000  H
  H904     1.0000 0.95200  0.47450  0.22180  Biso   1.000  H
  H905     1.0000 0.89740  0.47460  0.16740  Biso   1.000  H
  H906     1.0000 0.94800  0.71290  0.32300  Biso   1.000  H
  H907     1.0000 0.94720  0.74720  0.25540  Biso   1.000  H
  H908     1.0000 0.90280  0.75660  0.27790  Biso   1.000  H
  H909     1.0000 0.90580  0.72120  0.24170  Biso   1.000  H
  C210     1.0000 0.13390  0.83570  0.65720  Biso   1.000  C
  H910     1.0000 0.11220  0.83230  0.67780  Biso   1.000  H
  N141     1.0000 0.61380  0.03550  0.22990  Biso   1.000  N
  N142     1.0000 0.61950  0.14070  0.19130  Biso   1.000  N
  C211     1.0000 0.63230  0.02240  0.19420  Biso   1.000  C
  H911     1.0000 0.64350  0.04010  0.17260  Biso   1.000  H
  H912     1.0000 0.62730  0.02560  0.31030  Biso   1.000  H
  H913     1.0000 0.55010  0.02540  0.30840  Biso   1.000  H
  C212     1.0000 0.61150  0.11930  0.15110  Biso   1.000  C
  H914     1.0000 0.60720  0.08980  0.14690  Biso   1.000  H
  H915     1.0000 0.64220  0.20120  0.23790  Biso   1.000  H
  H916     1.0000 0.56480  0.23290  0.19680  Biso   1.000  H
  H917     1.0000 0.54800  0.97450  0.27820  Biso   1.000  H
  H918     1.0000 0.60260  0.97460  0.33260  Biso   1.000  H
  H919     1.0000 0.55200  0.21290  0.17700  Biso   1.000  H
  H920     1.0000 0.55280  0.24720  0.24460  Biso   1.000  H
  H921     1.0000 0.59720  0.25660  0.22210  Biso   1.000  H
  H922     1.0000 0.59420  0.22120  0.25830  Biso   1.000  H
  C213     1.0000 0.36610  0.33570  0.84280  Biso   1.000  C
  H923     1.0000 0.38780  0.33230  0.82220  Biso   1.000  H
  N143     1.0000 0.11380  0.53550  0.72990  Biso   1.000  N
  N144     1.0000 0.11950  0.64070  0.69130  Biso   1.000  N
  C214     1.0000 0.13230  0.52240  0.69420  Biso   1.000  C
  H924     1.0000 0.14350  0.54010  0.67260  Biso   1.000  H
  H925     1.0000 0.12730  0.52560  0.81030  Biso   1.000  H
  H926     1.0000 0.05010  0.52540  0.80840  Biso   1.000  H
  C215     1.0000 0.11150  0.61930  0.65110  Biso   1.000  C
  H927     1.0000 0.10720  0.58980  0.64690  Biso   1.000  H
  H928     1.0000 0.14220  0.70120  0.73790  Biso   1.000  H
  H929     1.0000 0.06480  0.73290  0.69680  Biso   1.000  H
  H930     1.0000 0.04800  0.47450  0.77820  Biso   1.000  H
  H931     1.0000 0.10260  0.47460  0.83260  Biso   1.000  H
  H932     1.0000 0.05200  0.71290  0.67700  Biso   1.000  H
  H933     1.0000 0.05280  0.74720  0.74460  Biso   1.000  H
  H934     1.0000 0.09720  0.75660  0.72210  Biso   1.000  H
  H935     1.0000 0.09420  0.72120  0.75830  Biso   1.000  H
  C216     1.0000 0.86610  0.83570  0.34280  Biso   1.000  C
  H936     1.0000 0.88780  0.83230  0.32220  Biso   1.000  H
  N145     1.0000 0.38620  0.22990  0.03550  Biso   1.000  N
  N146     1.0000 0.38050  0.19130  0.14070  Biso   1.000  N
  C217     1.0000 0.36770  0.19420  0.02240  Biso   1.000  C
  H937     1.0000 0.35650  0.17260  0.04010  Biso   1.000  H
  H938     1.0000 0.37270  0.31030  0.02560  Biso   1.000  H
  H939     1.0000 0.44990  0.30840  0.02540  Biso   1.000  H
  C218     1.0000 0.38850  0.15110  0.11930  Biso   1.000  C
  H940     1.0000 0.39280  0.14690  0.08980  Biso   1.000  H
  H941     1.0000 0.35780  0.23790  0.20120  Biso   1.000  H
  H942     1.0000 0.43520  0.19680  0.23290  Biso   1.000  H
  H943     1.0000 0.45200  0.27820  0.97450  Biso   1.000  H
  H944     1.0000 0.39740  0.33260  0.97460  Biso   1.000  H
  H945     1.0000 0.44800  0.17700  0.21290  Biso   1.000  H
  H946     1.0000 0.44720  0.24460  0.24720  Biso   1.000  H
  H947     1.0000 0.40280  0.22210  0.25660  Biso   1.000  H
  H948     1.0000 0.40580  0.25830  0.22120  Biso   1.000  H
  C219     1.0000 0.63390  0.84280  0.33570  Biso   1.000  C
  H949     1.0000 0.61220  0.82220  0.33230  Biso   1.000  H
  N147     1.0000 0.88620  0.72990  0.53550  Biso   1.000  N
  N148     1.0000 0.88050  0.69130  0.64070  Biso   1.000  N
  C220     1.0000 0.86770  0.69420  0.52240  Biso   1.000  C
  H950     1.0000 0.85650  0.67260  0.54010  Biso   1.000  H
  H951     1.0000 0.87270  0.81030  0.52560  Biso   1.000  H
  H952     1.0000 0.94990  0.80840  0.52540  Biso   1.000  H
  C221     1.0000 0.88850  0.65110  0.61930  Biso   1.000  C
  H953     1.0000 0.89280  0.64690  0.58980  Biso   1.000  H
  H954     1.0000 0.85780  0.73790  0.70120  Biso   1.000  H
  H955     1.0000 0.93520  0.69680  0.73290  Biso   1.000  H
  H956     1.0000 0.95200  0.77820  0.47450  Biso   1.000  H
  H957     1.0000 0.89740  0.83260  0.47460  Biso   1.000  H
  H958     1.0000 0.94800  0.67700  0.71290  Biso   1.000  H
  H959     1.0000 0.94720  0.74460  0.74720  Biso   1.000  H
  H960     1.0000 0.90280  0.72210  0.75660  Biso   1.000  H
  H961     1.0000 0.90580  0.75830  0.72120  Biso   1.000  H
  C222     1.0000 0.13390  0.34280  0.83570  Biso   1.000  C
  H962     1.0000 0.11220  0.32220  0.83230  Biso   1.000  H
  N149     1.0000 0.61380  0.77010  0.03550  Biso   1.000  N
  N150     1.0000 0.61950  0.80870  0.14070  Biso   1.000  N
  C223     1.0000 0.63230  0.80580  0.02240  Biso   1.000  C
  H963     1.0000 0.64350  0.82740  0.04010  Biso   1.000  H
  H964     1.0000 0.62730  0.68970  0.02560  Biso   1.000  H
  H965     1.0000 0.55010  0.69160  0.02540  Biso   1.000  H
  C224     1.0000 0.61150  0.84890  0.11930  Biso   1.000  C
  H966     1.0000 0.60720  0.85310  0.08980  Biso   1.000  H
  H967     1.0000 0.64220  0.76210  0.20120  Biso   1.000  H
  H968     1.0000 0.56480  0.80320  0.23290  Biso   1.000  H
  H969     1.0000 0.54800  0.72180  0.97450  Biso   1.000  H
  H970     1.0000 0.60260  0.66740  0.97460  Biso   1.000  H
  H971     1.0000 0.55200  0.82300  0.21290  Biso   1.000  H
  H972     1.0000 0.55280  0.75540  0.24720  Biso   1.000  H
  H973     1.0000 0.59720  0.77790  0.25660  Biso   1.000  H
  H974     1.0000 0.59420  0.74170  0.22120  Biso   1.000  H
  C225     1.0000 0.36610  0.15720  0.33570  Biso   1.000  C
  H975     1.0000 0.38780  0.17780  0.33230  Biso   1.000  H
  N151     1.0000 0.11380  0.27010  0.53550  Biso   1.000  N
  N152     1.0000 0.11950  0.30870  0.64070  Biso   1.000  N
  C226     1.0000 0.13230  0.30580  0.52240  Biso   1.000  C
  H976     1.0000 0.14350  0.32740  0.54010  Biso   1.000  H
  H977     1.0000 0.12730  0.18970  0.52560  Biso   1.000  H
  H978     1.0000 0.05010  0.19160  0.52540  Biso   1.000  H
  C227     1.0000 0.11150  0.34890  0.61930  Biso   1.000  C
  H979     1.0000 0.10720  0.35310  0.58980  Biso   1.000  H
  H980     1.0000 0.14220  0.26210  0.70120  Biso   1.000  H
  H981     1.0000 0.06480  0.30320  0.73290  Biso   1.000  H
  H982     1.0000 0.04800  0.22180  0.47450  Biso   1.000  H
  H983     1.0000 0.10260  0.16740  0.47460  Biso   1.000  H
  H984     1.0000 0.05200  0.32300  0.71290  Biso   1.000  H
  H985     1.0000 0.05280  0.25540  0.74720  Biso   1.000  H
  H986     1.0000 0.09720  0.27790  0.75660  Biso   1.000  H
  H987     1.0000 0.09420  0.24170  0.72120  Biso   1.000  H
  C228     1.0000 0.86610  0.65720  0.83570  Biso   1.000  C
  H988     1.0000 0.88780  0.67780  0.83230  Biso   1.000  H
  N153     1.0000 0.38620  0.77010  0.96450  Biso   1.000  N
  N154     1.0000 0.38050  0.80870  0.85930  Biso   1.000  N
  C229     1.0000 0.36770  0.80580  0.97760  Biso   1.000  C
  H989     1.0000 0.35650  0.82740  0.95990  Biso   1.000  H
  H990     1.0000 0.37270  0.68970  0.97440  Biso   1.000  H
  H991     1.0000 0.44990  0.69160  0.97460  Biso   1.000  H
  C230     1.0000 0.38850  0.84890  0.88070  Biso   1.000  C
  H992     1.0000 0.39280  0.85310  0.91020  Biso   1.000  H
  H993     1.0000 0.35780  0.76210  0.79880  Biso   1.000  H
  H994     1.0000 0.43520  0.80320  0.76710  Biso   1.000  H
  H995     1.0000 0.45200  0.72180  0.02550  Biso   1.000  H
  H996     1.0000 0.39740  0.66740  0.02540  Biso   1.000  H
  H997     1.0000 0.44800  0.82300  0.78710  Biso   1.000  H
  H998     1.0000 0.44720  0.75540  0.75280  Biso   1.000  H
  H999     1.0000 0.40280  0.77790  0.74340  Biso   1.000  H
  H1000    1.0000 0.40580  0.74170  0.77880  Biso   1.000  H
  C231     1.0000 0.63390  0.15720  0.66430  Biso   1.000  C
  H1001    1.0000 0.61220  0.17780  0.66770  Biso   1.000  H
  N155     1.0000 0.88620  0.27010  0.46450  Biso   1.000  N
  N156     1.0000 0.88050  0.30870  0.35930  Biso   1.000  N
  C232     1.0000 0.86770  0.30580  0.47760  Biso   1.000  C
  H1002    1.0000 0.85650  0.32740  0.45990  Biso   1.000  H
  H1003    1.0000 0.87270  0.18970  0.47440  Biso   1.000  H
  H1004    1.0000 0.94990  0.19160  0.47460  Biso   1.000  H
  C233     1.0000 0.88850  0.34890  0.38070  Biso   1.000  C
  H1005    1.0000 0.89280  0.35310  0.41020  Biso   1.000  H
  H1006    1.0000 0.85780  0.26210  0.29880  Biso   1.000  H
  H1007    1.0000 0.93520  0.30320  0.26710  Biso   1.000  H
  H1008    1.0000 0.95200  0.22180  0.52550  Biso   1.000  H
  H1009    1.0000 0.89740  0.16740  0.52540  Biso   1.000  H
  H1010    1.0000 0.94800  0.32300  0.28710  Biso   1.000  H
  H1011    1.0000 0.94720  0.25540  0.25280  Biso   1.000  H
  H1012    1.0000 0.90280  0.27790  0.24340  Biso   1.000  H
  H1013    1.0000 0.90580  0.24170  0.27880  Biso   1.000  H
  C234     1.0000 0.13390  0.65720  0.16430  Biso   1.000  C
  H1014    1.0000 0.11220  0.67780  0.16770  Biso   1.000  H
  N157     1.0000 0.61380  0.22990  0.96450  Biso   1.000  N
  N158     1.0000 0.61950  0.19130  0.85930  Biso   1.000  N
  C235     1.0000 0.63230  0.19420  0.97760  Biso   1.000  C
  H1015    1.0000 0.64350  0.17260  0.95990  Biso   1.000  H
  H1016    1.0000 0.62730  0.31030  0.97440  Biso   1.000  H
  H1017    1.0000 0.55010  0.30840  0.97460  Biso   1.000  H
  C236     1.0000 0.61150  0.15110  0.88070  Biso   1.000  C
  H1018    1.0000 0.60720  0.14690  0.91020  Biso   1.000  H
  H1019    1.0000 0.64220  0.23790  0.79880  Biso   1.000  H
  H1020    1.0000 0.56480  0.19680  0.76710  Biso   1.000  H
  H1021    1.0000 0.54800  0.27820  0.02550  Biso   1.000  H
  H1022    1.0000 0.60260  0.33260  0.02540  Biso   1.000  H
  H1023    1.0000 0.55200  0.17700  0.78710  Biso   1.000  H
  H1024    1.0000 0.55280  0.24460  0.75280  Biso   1.000  H
  H1025    1.0000 0.59720  0.22210  0.74340  Biso   1.000  H
  H1026    1.0000 0.59420  0.25830  0.77880  Biso   1.000  H
  C237     1.0000 0.36610  0.84280  0.66430  Biso   1.000  C
  H1027    1.0000 0.38780  0.82220  0.66770  Biso   1.000  H
  N159     1.0000 0.11380  0.72990  0.46450  Biso   1.000  N
  N160     1.0000 0.11950  0.69130  0.35930  Biso   1.000  N
  C238     1.0000 0.13230  0.69420  0.47760  Biso   1.000  C
  H1028    1.0000 0.14350  0.67260  0.45990  Biso   1.000  H
  H1029    1.0000 0.12730  0.81030  0.47440  Biso   1.000  H
  H1030    1.0000 0.05010  0.80840  0.47460  Biso   1.000  H
  C239     1.0000 0.11150  0.65110  0.38070  Biso   1.000  C
  H1031    1.0000 0.10720  0.64690  0.41020  Biso   1.000  H
  H1032    1.0000 0.14220  0.73790  0.29880  Biso   1.000  H
  H1033    1.0000 0.06480  0.69680  0.26710  Biso   1.000  H
  H1034    1.0000 0.04800  0.77820  0.52550  Biso   1.000  H
  H1035    1.0000 0.10260  0.83260  0.52540  Biso   1.000  H
  H1036    1.0000 0.05200  0.67700  0.28710  Biso   1.000  H
  H1037    1.0000 0.05280  0.74460  0.25280  Biso   1.000  H
  H1038    1.0000 0.09720  0.72210  0.24340  Biso   1.000  H
  H1039    1.0000 0.09420  0.75830  0.27880  Biso   1.000  H
  C240     1.0000 0.86610  0.34280  0.16430  Biso   1.000  C
  H1040    1.0000 0.88780  0.32220  0.16770  Biso   1.000  H
  N161     1.0000 0.22990  0.96450  0.61380  Biso   1.000  N
  N162     1.0000 0.19130  0.85930  0.61950  Biso   1.000  N
  C241     1.0000 0.19420  0.97760  0.63230  Biso   1.000  C
  H1041    1.0000 0.17260  0.95990  0.64350  Biso   1.000  H
  H1042    1.0000 0.31030  0.97440  0.62730  Biso   1.000  H
  H1043    1.0000 0.30840  0.97460  0.55010  Biso   1.000  H
  C242     1.0000 0.15110  0.88070  0.61150  Biso   1.000  C
  H1044    1.0000 0.14690  0.91020  0.60720  Biso   1.000  H
  H1045    1.0000 0.23790  0.79880  0.64220  Biso   1.000  H
  H1046    1.0000 0.19680  0.76710  0.56480  Biso   1.000  H
  H1047    1.0000 0.27820  0.02550  0.54800  Biso   1.000  H
  H1048    1.0000 0.33260  0.02540  0.60260  Biso   1.000  H
  H1049    1.0000 0.17700  0.78710  0.55200  Biso   1.000  H
  H1050    1.0000 0.24460  0.75280  0.55280  Biso   1.000  H
  H1051    1.0000 0.22210  0.74340  0.59720  Biso   1.000  H
  H1052    1.0000 0.25830  0.77880  0.59420  Biso   1.000  H
  C243     1.0000 0.84280  0.66430  0.36610  Biso   1.000  C
  H1053    1.0000 0.82220  0.66770  0.38780  Biso   1.000  H
  N163     1.0000 0.72990  0.46450  0.11380  Biso   1.000  N
  N164     1.0000 0.69130  0.35930  0.11950  Biso   1.000  N
  C244     1.0000 0.69420  0.47760  0.13230  Biso   1.000  C
  H1054    1.0000 0.67260  0.45990  0.14350  Biso   1.000  H
  H1055    1.0000 0.81030  0.47440  0.12730  Biso   1.000  H
  H1056    1.0000 0.80840  0.47460  0.05010  Biso   1.000  H
  C245     1.0000 0.65110  0.38070  0.11150  Biso   1.000  C
  H1057    1.0000 0.64690  0.41020  0.10720  Biso   1.000  H
  H1058    1.0000 0.73790  0.29880  0.14220  Biso   1.000  H
  H1059    1.0000 0.69680  0.26710  0.06480  Biso   1.000  H
  H1060    1.0000 0.77820  0.52550  0.04800  Biso   1.000  H
  H1061    1.0000 0.83260  0.52540  0.10260  Biso   1.000  H
  H1062    1.0000 0.67700  0.28710  0.05200  Biso   1.000  H
  H1063    1.0000 0.74460  0.25280  0.05280  Biso   1.000  H
  H1064    1.0000 0.72210  0.24340  0.09720  Biso   1.000  H
  H1065    1.0000 0.75830  0.27880  0.09420  Biso   1.000  H
  C246     1.0000 0.34280  0.16430  0.86610  Biso   1.000  C
  H1066    1.0000 0.32220  0.16770  0.88780  Biso   1.000  H
  N165     1.0000 0.77010  0.96450  0.38620  Biso   1.000  N
  N166     1.0000 0.80870  0.85930  0.38050  Biso   1.000  N
  C247     1.0000 0.80580  0.97760  0.36770  Biso   1.000  C
  H1067    1.0000 0.82740  0.95990  0.35650  Biso   1.000  H
  H1068    1.0000 0.68970  0.97440  0.37270  Biso   1.000  H
  H1069    1.0000 0.69160  0.97460  0.44990  Biso   1.000  H
  C248     1.0000 0.84890  0.88070  0.38850  Biso   1.000  C
  H1070    1.0000 0.85310  0.91020  0.39280  Biso   1.000  H
  H1071    1.0000 0.76210  0.79880  0.35780  Biso   1.000  H
  H1072    1.0000 0.80320  0.76710  0.43520  Biso   1.000  H
  H1073    1.0000 0.72180  0.02550  0.45200  Biso   1.000  H
  H1074    1.0000 0.66740  0.02540  0.39740  Biso   1.000  H
  H1075    1.0000 0.82300  0.78710  0.44800  Biso   1.000  H
  H1076    1.0000 0.75540  0.75280  0.44720  Biso   1.000  H
  H1077    1.0000 0.77790  0.74340  0.40280  Biso   1.000  H
  H1078    1.0000 0.74170  0.77880  0.40580  Biso   1.000  H
  C249     1.0000 0.15720  0.66430  0.63390  Biso   1.000  C
  H1079    1.0000 0.17780  0.66770  0.61220  Biso   1.000  H
  N167     1.0000 0.27010  0.46450  0.88620  Biso   1.000  N
  N168     1.0000 0.30870  0.35930  0.88050  Biso   1.000  N
  C250     1.0000 0.30580  0.47760  0.86770  Biso   1.000  C
  H1080    1.0000 0.32740  0.45990  0.85650  Biso   1.000  H
  H1081    1.0000 0.18970  0.47440  0.87270  Biso   1.000  H
  H1082    1.0000 0.19160  0.47460  0.94990  Biso   1.000  H
  C251     1.0000 0.34890  0.38070  0.88850  Biso   1.000  C
  H1083    1.0000 0.35310  0.41020  0.89280  Biso   1.000  H
  H1084    1.0000 0.26210  0.29880  0.85780  Biso   1.000  H
  H1085    1.0000 0.30320  0.26710  0.93520  Biso   1.000  H
  H1086    1.0000 0.22180  0.52550  0.95200  Biso   1.000  H
  H1087    1.0000 0.16740  0.52540  0.89740  Biso   1.000  H
  H1088    1.0000 0.32300  0.28710  0.94800  Biso   1.000  H
  H1089    1.0000 0.25540  0.25280  0.94720  Biso   1.000  H
  H1090    1.0000 0.27790  0.24340  0.90280  Biso   1.000  H
  H1091    1.0000 0.24170  0.27880  0.90580  Biso   1.000  H
  C252     1.0000 0.65720  0.16430  0.13390  Biso   1.000  C
  H1092    1.0000 0.67780  0.16770  0.11220  Biso   1.000  H
  N169     1.0000 0.77010  0.03550  0.61380  Biso   1.000  N
  N170     1.0000 0.80870  0.14070  0.61950  Biso   1.000  N
  C253     1.0000 0.80580  0.02240  0.63230  Biso   1.000  C
  H1093    1.0000 0.82740  0.04010  0.64350  Biso   1.000  H
  H1094    1.0000 0.68970  0.02560  0.62730  Biso   1.000  H
  H1095    1.0000 0.69160  0.02540  0.55010  Biso   1.000  H
  C254     1.0000 0.84890  0.11930  0.61150  Biso   1.000  C
  H1096    1.0000 0.85310  0.08980  0.60720  Biso   1.000  H
  H1097    1.0000 0.76210  0.20120  0.64220  Biso   1.000  H
  H1098    1.0000 0.80320  0.23290  0.56480  Biso   1.000  H
  H1099    1.0000 0.72180  0.97450  0.54800  Biso   1.000  H
  H1100    1.0000 0.66740  0.97460  0.60260  Biso   1.000  H
  H1101    1.0000 0.82300  0.21290  0.55200  Biso   1.000  H
  H1102    1.0000 0.75540  0.24720  0.55280  Biso   1.000  H
  H1103    1.0000 0.77790  0.25660  0.59720  Biso   1.000  H
  H1104    1.0000 0.74170  0.22120  0.59420  Biso   1.000  H
  C255     1.0000 0.15720  0.33570  0.36610  Biso   1.000  C
  H1105    1.0000 0.17780  0.33230  0.38780  Biso   1.000  H
  N171     1.0000 0.27010  0.53550  0.11380  Biso   1.000  N
  N172     1.0000 0.30870  0.64070  0.11950  Biso   1.000  N
  C256     1.0000 0.30580  0.52240  0.13230  Biso   1.000  C
  H1106    1.0000 0.32740  0.54010  0.14350  Biso   1.000  H
  H1107    1.0000 0.18970  0.52560  0.12730  Biso   1.000  H
  H1108    1.0000 0.19160  0.52540  0.05010  Biso   1.000  H
  C257     1.0000 0.34890  0.61930  0.11150  Biso   1.000  C
  H1109    1.0000 0.35310  0.58980  0.10720  Biso   1.000  H
  H1110    1.0000 0.26210  0.70120  0.14220  Biso   1.000  H
  H1111    1.0000 0.30320  0.73290  0.06480  Biso   1.000  H
  H1112    1.0000 0.22180  0.47450  0.04800  Biso   1.000  H
  H1113    1.0000 0.16740  0.47460  0.10260  Biso   1.000  H
  H1114    1.0000 0.32300  0.71290  0.05200  Biso   1.000  H
  H1115    1.0000 0.25540  0.74720  0.05280  Biso   1.000  H
  H1116    1.0000 0.27790  0.75660  0.09720  Biso   1.000  H
  H1117    1.0000 0.24170  0.72120  0.09420  Biso   1.000  H
  C258     1.0000 0.65720  0.83570  0.86610  Biso   1.000  C
  H1118    1.0000 0.67780  0.83230  0.88780  Biso   1.000  H
  N173     1.0000 0.22990  0.03550  0.38620  Biso   1.000  N
  N174     1.0000 0.19130  0.14070  0.38050  Biso   1.000  N
  C259     1.0000 0.19420  0.02240  0.36770  Biso   1.000  C
  H1119    1.0000 0.17260  0.04010  0.35650  Biso   1.000  H
  H1120    1.0000 0.31030  0.02560  0.37270  Biso   1.000  H
  H1121    1.0000 0.30840  0.02540  0.44990  Biso   1.000  H
  C260     1.0000 0.15110  0.11930  0.38850  Biso   1.000  C
  H1122    1.0000 0.14690  0.08980  0.39280  Biso   1.000  H
  H1123    1.0000 0.23790  0.20120  0.35780  Biso   1.000  H
  H1124    1.0000 0.19680  0.23290  0.43520  Biso   1.000  H
  H1125    1.0000 0.27820  0.97450  0.45200  Biso   1.000  H
  H1126    1.0000 0.33260  0.97460  0.39740  Biso   1.000  H
  H1127    1.0000 0.17700  0.21290  0.44800  Biso   1.000  H
  H1128    1.0000 0.24460  0.24720  0.44720  Biso   1.000  H
  H1129    1.0000 0.22210  0.25660  0.40280  Biso   1.000  H
  H1130    1.0000 0.25830  0.22120  0.40580  Biso   1.000  H
  C261     1.0000 0.84280  0.33570  0.63390  Biso   1.000  C
  H1131    1.0000 0.82220  0.33230  0.61220  Biso   1.000  H
  N175     1.0000 0.72990  0.53550  0.88620  Biso   1.000  N
  N176     1.0000 0.69130  0.64070  0.88050  Biso   1.000  N
  C262     1.0000 0.69420  0.52240  0.86770  Biso   1.000  C
  H1132    1.0000 0.67260  0.54010  0.85650  Biso   1.000  H
  H1133    1.0000 0.81030  0.52560  0.87270  Biso   1.000  H
  H1134    1.0000 0.80840  0.52540  0.94990  Biso   1.000  H
  C263     1.0000 0.65110  0.61930  0.88850  Biso   1.000  C
  H1135    1.0000 0.64690  0.58980  0.89280  Biso   1.000  H
  H1136    1.0000 0.73790  0.70120  0.85780  Biso   1.000  H
  H1137    1.0000 0.69680  0.73290  0.93520  Biso   1.000  H
  H1138    1.0000 0.77820  0.47450  0.95200  Biso   1.000  H
  H1139    1.0000 0.83260  0.47460  0.89740  Biso   1.000  H
  H1140    1.0000 0.67700  0.71290  0.94800  Biso   1.000  H
  H1141    1.0000 0.74460  0.74720  0.94720  Biso   1.000  H
  H1142    1.0000 0.72210  0.75660  0.90280  Biso   1.000  H
  H1143    1.0000 0.75830  0.72120  0.90580  Biso   1.000  H
  C264     1.0000 0.34280  0.83570  0.13390  Biso   1.000  C
  H1144    1.0000 0.32220  0.83230  0.11220  Biso   1.000  H
  N177     1.0000 0.96450  0.38620  0.77010  Biso   1.000  N
  N178     1.0000 0.85930  0.38050  0.80870  Biso   1.000  N
  C265     1.0000 0.97760  0.36770  0.80580  Biso   1.000  C
  H1145    1.0000 0.95990  0.35650  0.82740  Biso   1.000  H
  H1146    1.0000 0.97440  0.37270  0.68970  Biso   1.000  H
  H1147    1.0000 0.97460  0.44990  0.69160  Biso   1.000  H
  C266     1.0000 0.88070  0.38850  0.84890  Biso   1.000  C
  H1148    1.0000 0.91020  0.39280  0.85310  Biso   1.000  H
  H1149    1.0000 0.79880  0.35780  0.76210  Biso   1.000  H
  H1150    1.0000 0.76710  0.43520  0.80320  Biso   1.000  H
  H1151    1.0000 0.02550  0.45200  0.72180  Biso   1.000  H
  H1152    1.0000 0.02540  0.39740  0.66740  Biso   1.000  H
  H1153    1.0000 0.78710  0.44800  0.82300  Biso   1.000  H
  H1154    1.0000 0.75280  0.44720  0.75540  Biso   1.000  H
  H1155    1.0000 0.74340  0.40280  0.77790  Biso   1.000  H
  H1156    1.0000 0.77880  0.40580  0.74170  Biso   1.000  H
  C267     1.0000 0.66430  0.63390  0.15720  Biso   1.000  C
  H1157    1.0000 0.66770  0.61220  0.17780  Biso   1.000  H
  N179     1.0000 0.46450  0.88620  0.27010  Biso   1.000  N
  N180     1.0000 0.35930  0.88050  0.30870  Biso   1.000  N
  C268     1.0000 0.47760  0.86770  0.30580  Biso   1.000  C
  H1158    1.0000 0.45990  0.85650  0.32740  Biso   1.000  H
  H1159    1.0000 0.47440  0.87270  0.18970  Biso   1.000  H
  H1160    1.0000 0.47460  0.94990  0.19160  Biso   1.000  H
  C269     1.0000 0.38070  0.88850  0.34890  Biso   1.000  C
  H1161    1.0000 0.41020  0.89280  0.35310  Biso   1.000  H
  H1162    1.0000 0.29880  0.85780  0.26210  Biso   1.000  H
  H1163    1.0000 0.26710  0.93520  0.30320  Biso   1.000  H
  H1164    1.0000 0.52550  0.95200  0.22180  Biso   1.000  H
  H1165    1.0000 0.52540  0.89740  0.16740  Biso   1.000  H
  H1166    1.0000 0.28710  0.94800  0.32300  Biso   1.000  H
  H1167    1.0000 0.25280  0.94720  0.25540  Biso   1.000  H
  H1168    1.0000 0.24340  0.90280  0.27790  Biso   1.000  H
  H1169    1.0000 0.27880  0.90580  0.24170  Biso   1.000  H
  C270     1.0000 0.16430  0.13390  0.65720  Biso   1.000  C
  H1170    1.0000 0.16770  0.11220  0.67780  Biso   1.000  H
  N181     1.0000 0.96450  0.61380  0.22990  Biso   1.000  N
  N182     1.0000 0.85930  0.61950  0.19130  Biso   1.000  N
  C271     1.0000 0.97760  0.63230  0.19420  Biso   1.000  C
  H1171    1.0000 0.95990  0.64350  0.17260  Biso   1.000  H
  H1172    1.0000 0.97440  0.62730  0.31030  Biso   1.000  H
  H1173    1.0000 0.97460  0.55010  0.30840  Biso   1.000  H
  C272     1.0000 0.88070  0.61150  0.15110  Biso   1.000  C
  H1174    1.0000 0.91020  0.60720  0.14690  Biso   1.000  H
  H1175    1.0000 0.79880  0.64220  0.23790  Biso   1.000  H
  H1176    1.0000 0.76710  0.56480  0.19680  Biso   1.000  H
  H1177    1.0000 0.02550  0.54800  0.27820  Biso   1.000  H
  H1178    1.0000 0.02540  0.60260  0.33260  Biso   1.000  H
  H1179    1.0000 0.78710  0.55200  0.17700  Biso   1.000  H
  H1180    1.0000 0.75280  0.55280  0.24460  Biso   1.000  H
  H1181    1.0000 0.74340  0.59720  0.22210  Biso   1.000  H
  H1182    1.0000 0.77880  0.59420  0.25830  Biso   1.000  H
  C273     1.0000 0.66430  0.36610  0.84280  Biso   1.000  C
  H1183    1.0000 0.66770  0.38780  0.82220  Biso   1.000  H
  N183     1.0000 0.46450  0.11380  0.72990  Biso   1.000  N
  N184     1.0000 0.35930  0.11950  0.69130  Biso   1.000  N
  C274     1.0000 0.47760  0.13230  0.69420  Biso   1.000  C
  H1184    1.0000 0.45990  0.14350  0.67260  Biso   1.000  H
  H1185    1.0000 0.47440  0.12730  0.81030  Biso   1.000  H
  H1186    1.0000 0.47460  0.05010  0.80840  Biso   1.000  H
  C275     1.0000 0.38070  0.11150  0.65110  Biso   1.000  C
  H1187    1.0000 0.41020  0.10720  0.64690  Biso   1.000  H
  H1188    1.0000 0.29880  0.14220  0.73790  Biso   1.000  H
  H1189    1.0000 0.26710  0.06480  0.69680  Biso   1.000  H
  H1190    1.0000 0.52550  0.04800  0.77820  Biso   1.000  H
  H1191    1.0000 0.52540  0.10260  0.83260  Biso   1.000  H
  H1192    1.0000 0.28710  0.05200  0.67700  Biso   1.000  H
  H1193    1.0000 0.25280  0.05280  0.74460  Biso   1.000  H
  H1194    1.0000 0.24340  0.09720  0.72210  Biso   1.000  H
  H1195    1.0000 0.27880  0.09420  0.75830  Biso   1.000  H
  C276     1.0000 0.16430  0.86610  0.34280  Biso   1.000  C
  H1196    1.0000 0.16770  0.88780  0.32220  Biso   1.000  H
  N185     1.0000 0.03550  0.38620  0.22990  Biso   1.000  N
  N186     1.0000 0.14070  0.38050  0.19130  Biso   1.000  N
  C277     1.0000 0.02240  0.36770  0.19420  Biso   1.000  C
  H1197    1.0000 0.04010  0.35650  0.17260  Biso   1.000  H
  H1198    1.0000 0.02560  0.37270  0.31030  Biso   1.000  H
  H1199    1.0000 0.02540  0.44990  0.30840  Biso   1.000  H
  C278     1.0000 0.11930  0.38850  0.15110  Biso   1.000  C
  H1200    1.0000 0.08980  0.39280  0.14690  Biso   1.000  H
  H1201    1.0000 0.20120  0.35780  0.23790  Biso   1.000  H
  H1202    1.0000 0.23290  0.43520  0.19680  Biso   1.000  H
  H1203    1.0000 0.97450  0.45200  0.27820  Biso   1.000  H
  H1204    1.0000 0.97460  0.39740  0.33260  Biso   1.000  H
  H1205    1.0000 0.21290  0.44800  0.17700  Biso   1.000  H
  H1206    1.0000 0.24720  0.44720  0.24460  Biso   1.000  H
  H1207    1.0000 0.25660  0.40280  0.22210  Biso   1.000  H
  H1208    1.0000 0.22120  0.40580  0.25830  Biso   1.000  H
  C279     1.0000 0.33570  0.63390  0.84280  Biso   1.000  C
  H1209    1.0000 0.33230  0.61220  0.82220  Biso   1.000  H
  N187     1.0000 0.53550  0.88620  0.72990  Biso   1.000  N
  N188     1.0000 0.64070  0.88050  0.69130  Biso   1.000  N
  C280     1.0000 0.52240  0.86770  0.69420  Biso   1.000  C
  H1210    1.0000 0.54010  0.85650  0.67260  Biso   1.000  H
  H1211    1.0000 0.52560  0.87270  0.81030  Biso   1.000  H
  H1212    1.0000 0.52540  0.94990  0.80840  Biso   1.000  H
  C281     1.0000 0.61930  0.88850  0.65110  Biso   1.000  C
  H1213    1.0000 0.58980  0.89280  0.64690  Biso   1.000  H
  H1214    1.0000 0.70120  0.85780  0.73790  Biso   1.000  H
  H1215    1.0000 0.73290  0.93520  0.69680  Biso   1.000  H
  H1216    1.0000 0.47450  0.95200  0.77820  Biso   1.000  H
  H1217    1.0000 0.47460  0.89740  0.83260  Biso   1.000  H
  H1218    1.0000 0.71290  0.94800  0.67700  Biso   1.000  H
  H1219    1.0000 0.74720  0.94720  0.74460  Biso   1.000  H
  H1220    1.0000 0.75660  0.90280  0.72210  Biso   1.000  H
  H1221    1.0000 0.72120  0.90580  0.75830  Biso   1.000  H
  C282     1.0000 0.83570  0.13390  0.34280  Biso   1.000  C
  H1222    1.0000 0.83230  0.11220  0.32220  Biso   1.000  H
  N189     1.0000 0.03550  0.61380  0.77010  Biso   1.000  N
  N190     1.0000 0.14070  0.61950  0.80870  Biso   1.000  N
  C283     1.0000 0.02240  0.63230  0.80580  Biso   1.000  C
  H1223    1.0000 0.04010  0.64350  0.82740  Biso   1.000  H
  H1224    1.0000 0.02560  0.62730  0.68970  Biso   1.000  H
  H1225    1.0000 0.02540  0.55010  0.69160  Biso   1.000  H
  C284     1.0000 0.11930  0.61150  0.84890  Biso   1.000  C
  H1226    1.0000 0.08980  0.60720  0.85310  Biso   1.000  H
  H1227    1.0000 0.20120  0.64220  0.76210  Biso   1.000  H
  H1228    1.0000 0.23290  0.56480  0.80320  Biso   1.000  H
  H1229    1.0000 0.97450  0.54800  0.72180  Biso   1.000  H
  H1230    1.0000 0.97460  0.60260  0.66740  Biso   1.000  H
  H1231    1.0000 0.21290  0.55200  0.82300  Biso   1.000  H
  H1232    1.0000 0.24720  0.55280  0.75540  Biso   1.000  H
  H1233    1.0000 0.25660  0.59720  0.77790  Biso   1.000  H
  H1234    1.0000 0.22120  0.59420  0.74170  Biso   1.000  H
  C285     1.0000 0.33570  0.36610  0.15720  Biso   1.000  C
  H1235    1.0000 0.33230  0.38780  0.17780  Biso   1.000  H
  N191     1.0000 0.53550  0.11380  0.27010  Biso   1.000  N
  N192     1.0000 0.64070  0.11950  0.30870  Biso   1.000  N
  C286     1.0000 0.52240  0.13230  0.30580  Biso   1.000  C
  H1236    1.0000 0.54010  0.14350  0.32740  Biso   1.000  H
  H1237    1.0000 0.52560  0.12730  0.18970  Biso   1.000  H
  H1238    1.0000 0.52540  0.05010  0.19160  Biso   1.000  H
  C287     1.0000 0.61930  0.11150  0.34890  Biso   1.000  C
  H1239    1.0000 0.58980  0.10720  0.35310  Biso   1.000  H
  H1240    1.0000 0.70120  0.14220  0.26210  Biso   1.000  H
  H1241    1.0000 0.73290  0.06480  0.30320  Biso   1.000  H
  H1242    1.0000 0.47450  0.04800  0.22180  Biso   1.000  H
  H1243    1.0000 0.47460  0.10260  0.16740  Biso   1.000  H
  H1244    1.0000 0.71290  0.05200  0.32300  Biso   1.000  H
  H1245    1.0000 0.74720  0.05280  0.25540  Biso   1.000  H
  H1246    1.0000 0.75660  0.09720  0.27790  Biso   1.000  H
  H1247    1.0000 0.72120  0.09420  0.24170  Biso   1.000  H
  C288     1.0000 0.83570  0.86610  0.65720  Biso   1.000  C
  H1248    1.0000 0.83230  0.88780  0.67780  Biso   1.000  H
  Cd1      1.0000 0.75000  0.60389  0.10389  Biso   1.000  Cd
  Cd2      1.0000 0.25000  0.39611  0.10389  Biso   1.000  Cd
  Cd3      1.0000 0.25000  0.60389  0.89611  Biso   1.000  Cd
  Cd4      1.0000 0.75000  0.39611  0.89611  Biso   1.000  Cd
  Cd5      1.0000 0.10389  0.75000  0.60389  Biso   1.000  Cd
  Cd6      1.0000 0.10389  0.25000  0.39611  Biso   1.000  Cd
  Cd7      1.0000 0.89611  0.25000  0.60389  Biso   1.000  Cd
  Cd8      1.0000 0.89611  0.75000  0.39611  Biso   1.000  Cd
  Cd9      1.0000 0.60389  0.10389  0.75000  Biso   1.000  Cd
  Cd10     1.0000 0.39611  0.10389  0.25000  Biso   1.000  Cd
  Cd11     1.0000 0.60389  0.89611  0.25000  Biso   1.000  Cd
  Cd12     1.0000 0.39611  0.89611  0.75000  Biso   1.000  Cd
  Cd13     1.0000 0.60389  0.75000  0.89611  Biso   1.000  Cd
  Cd14     1.0000 0.39611  0.25000  0.89611  Biso   1.000  Cd
  Cd15     1.0000 0.60389  0.25000  0.10389  Biso   1.000  Cd
  Cd16     1.0000 0.39611  0.75000  0.10389  Biso   1.000  Cd
  Cd17     1.0000 0.75000  0.10389  0.39611  Biso   1.000  Cd
  Cd18     1.0000 0.25000  0.10389  0.60389  Biso   1.000  Cd
  Cd19     1.0000 0.25000  0.89611  0.39611  Biso   1.000  Cd
  Cd20     1.0000 0.75000  0.89611  0.60389  Biso   1.000  Cd
  Cd21     1.0000 0.10389  0.60389  0.25000  Biso   1.000  Cd
  Cd22     1.0000 0.10389  0.39611  0.75000  Biso   1.000  Cd
  Cd23     1.0000 0.89611  0.60389  0.75000  Biso   1.000  Cd
  Cd24     1.0000 0.89611  0.39611  0.25000  Biso   1.000  Cd
  Cd25     1.0000 0.25000  0.39611  0.89611  Biso   1.000  Cd
  Cd26     1.0000 0.75000  0.60389  0.89611  Biso   1.000  Cd
  Cd27     1.0000 0.75000  0.39611  0.10389  Biso   1.000  Cd
  Cd28     1.0000 0.25000  0.89611  0.60389  Biso   1.000  Cd
  Cd29     1.0000 0.25000  0.60389  0.10389  Biso   1.000  Cd
  Cd30     1.0000 0.89611  0.25000  0.39611  Biso   1.000  Cd
  Cd31     1.0000 0.89611  0.75000  0.60389  Biso   1.000  Cd
  Cd32     1.0000 0.10389  0.75000  0.39611  Biso   1.000  Cd
  Cd33     1.0000 0.60389  0.25000  0.89611  Biso   1.000  Cd
  Cd34     1.0000 0.10389  0.25000  0.60389  Biso   1.000  Cd
  Cd35     1.0000 0.39611  0.89611  0.25000  Biso   1.000  Cd
  Cd36     1.0000 0.60389  0.89611  0.75000  Biso   1.000  Cd
  Cd37     1.0000 0.39611  0.10389  0.75000  Biso   1.000  Cd
  Cd38     1.0000 0.89611  0.60389  0.25000  Biso   1.000  Cd
  Cd39     1.0000 0.60389  0.10389  0.25000  Biso   1.000  Cd
  Cd40     1.0000 0.39611  0.25000  0.10389  Biso   1.000  Cd
  Cd41     1.0000 0.60389  0.75000  0.10389  Biso   1.000  Cd
  Cd42     1.0000 0.39611  0.75000  0.89611  Biso   1.000  Cd
  Cd43     1.0000 0.75000  0.89611  0.39611  Biso   1.000  Cd
  Cd44     1.0000 0.75000  0.10389  0.60389  Biso   1.000  Cd
  Cd45     1.0000 0.25000  0.10389  0.39611  Biso   1.000  Cd
  Cd46     1.0000 0.89611  0.39611  0.75000  Biso   1.000  Cd
  Cd47     1.0000 0.10389  0.39611  0.25000  Biso   1.000  Cd
  Cd48     1.0000 0.10389  0.60389  0.75000  Biso   1.000  Cd
  C289     1.0000 0.81960  0.61060  0.18040  Biso   1.000  C
  C290     1.0000 0.78630  0.62660  0.21370  Biso   1.000  C
  C291     1.0000 0.77730  0.57850  0.22270  Biso   1.000  C
  H1249    1.0000 0.75535  0.57600  0.24465  Biso   1.000  H
  C292     1.0000 0.80010  0.56910  0.19990  Biso   1.000  C
  C293     1.0000 0.76550  0.57900  0.23450  Biso   1.000  C
  C294     1.0000 0.31960  0.11060  0.68040  Biso   1.000  C
  C295     1.0000 0.28630  0.12660  0.71370  Biso   1.000  C
  C296     1.0000 0.27730  0.07850  0.72270  Biso   1.000  C
  H1250    1.0000 0.25535  0.07600  0.74465  Biso   1.000  H
  C297     1.0000 0.30010  0.06910  0.69990  Biso   1.000  C
  C298     1.0000 0.26550  0.07900  0.73450  Biso   1.000  C
  C299     1.0000 0.18040  0.38940  0.18040  Biso   1.000  C
  C300     1.0000 0.21370  0.37340  0.21370  Biso   1.000  C
  C301     1.0000 0.22270  0.42150  0.22270  Biso   1.000  C
  H1251    1.0000 0.24465  0.42400  0.24465  Biso   1.000  H
  C302     1.0000 0.19990  0.43090  0.19990  Biso   1.000  C
  C303     1.0000 0.23450  0.42100  0.23450  Biso   1.000  C
  C304     1.0000 0.68040  0.88940  0.68040  Biso   1.000  C
  C305     1.0000 0.71370  0.87340  0.71370  Biso   1.000  C
  C306     1.0000 0.72270  0.92150  0.72270  Biso   1.000  C
  H1252    1.0000 0.74465  0.92400  0.74465  Biso   1.000  H
  C307     1.0000 0.69990  0.93090  0.69990  Biso   1.000  C
  C308     1.0000 0.73450  0.92100  0.73450  Biso   1.000  C
  C309     1.0000 0.18040  0.61060  0.81960  Biso   1.000  C
  C310     1.0000 0.21370  0.62660  0.78630  Biso   1.000  C
  C311     1.0000 0.22270  0.57850  0.77730  Biso   1.000  C
  H1253    1.0000 0.24465  0.57600  0.75535  Biso   1.000  H
  C312     1.0000 0.19990  0.56910  0.80010  Biso   1.000  C
  C313     1.0000 0.23450  0.57900  0.76550  Biso   1.000  C
  C314     1.0000 0.68040  0.11060  0.31960  Biso   1.000  C
  C315     1.0000 0.71370  0.12660  0.28630  Biso   1.000  C
  C316     1.0000 0.72270  0.07850  0.27730  Biso   1.000  C
  H1254    1.0000 0.74465  0.07600  0.25535  Biso   1.000  H
  C317     1.0000 0.69990  0.06910  0.30010  Biso   1.000  C
  C318     1.0000 0.73450  0.07900  0.26550  Biso   1.000  C
  C319     1.0000 0.81960  0.38940  0.81960  Biso   1.000  C
  C320     1.0000 0.78630  0.37340  0.78630  Biso   1.000  C
  C321     1.0000 0.77730  0.42150  0.77730  Biso   1.000  C
  H1255    1.0000 0.75535  0.42400  0.75535  Biso   1.000  H
  C322     1.0000 0.80010  0.43090  0.80010  Biso   1.000  C
  C323     1.0000 0.76550  0.42100  0.76550  Biso   1.000  C
  C324     1.0000 0.31960  0.88940  0.31960  Biso   1.000  C
  C325     1.0000 0.28630  0.87340  0.28630  Biso   1.000  C
  C326     1.0000 0.27730  0.92150  0.27730  Biso   1.000  C
  H1256    1.0000 0.25535  0.92400  0.25535  Biso   1.000  H
  C327     1.0000 0.30010  0.93090  0.30010  Biso   1.000  C
  C328     1.0000 0.26550  0.92100  0.26550  Biso   1.000  C
  C329     1.0000 0.18040  0.81960  0.61060  Biso   1.000  C
  C330     1.0000 0.21370  0.78630  0.62660  Biso   1.000  C
  C331     1.0000 0.22270  0.77730  0.57850  Biso   1.000  C
  H1257    1.0000 0.24465  0.75535  0.57600  Biso   1.000  H
  C332     1.0000 0.19990  0.80010  0.56910  Biso   1.000  C
  C333     1.0000 0.23450  0.76550  0.57900  Biso   1.000  C
  C334     1.0000 0.68040  0.31960  0.11060  Biso   1.000  C
  C335     1.0000 0.71370  0.28630  0.12660  Biso   1.000  C
  C336     1.0000 0.72270  0.27730  0.07850  Biso   1.000  C
  H1258    1.0000 0.74465  0.25535  0.07600  Biso   1.000  H
  C337     1.0000 0.69990  0.30010  0.06910  Biso   1.000  C
  C338     1.0000 0.73450  0.26550  0.07900  Biso   1.000  C
  C339     1.0000 0.18040  0.18040  0.38940  Biso   1.000  C
  C340     1.0000 0.21370  0.21370  0.37340  Biso   1.000  C
  C341     1.0000 0.22270  0.22270  0.42150  Biso   1.000  C
  H1259    1.0000 0.24465  0.24465  0.42400  Biso   1.000  H
  C342     1.0000 0.19990  0.19990  0.43090  Biso   1.000  C
  C343     1.0000 0.23450  0.23450  0.42100  Biso   1.000  C
  C344     1.0000 0.68040  0.68040  0.88940  Biso   1.000  C
  C345     1.0000 0.71370  0.71370  0.87340  Biso   1.000  C
  C346     1.0000 0.72270  0.72270  0.92150  Biso   1.000  C
  H1260    1.0000 0.74465  0.74465  0.92400  Biso   1.000  H
  C347     1.0000 0.69990  0.69990  0.93090  Biso   1.000  C
  C348     1.0000 0.73450  0.73450  0.92100  Biso   1.000  C
  C349     1.0000 0.81960  0.18040  0.61060  Biso   1.000  C
  C350     1.0000 0.78630  0.21370  0.62660  Biso   1.000  C
  C351     1.0000 0.77730  0.22270  0.57850  Biso   1.000  C
  H1261    1.0000 0.75535  0.24465  0.57600  Biso   1.000  H
  C352     1.0000 0.80010  0.19990  0.56910  Biso   1.000  C
  C353     1.0000 0.76550  0.23450  0.57900  Biso   1.000  C
  C354     1.0000 0.31960  0.68040  0.11060  Biso   1.000  C
  C355     1.0000 0.28630  0.71370  0.12660  Biso   1.000  C
  C356     1.0000 0.27730  0.72270  0.07850  Biso   1.000  C
  H1262    1.0000 0.25535  0.74465  0.07600  Biso   1.000  H
  C357     1.0000 0.30010  0.69990  0.06910  Biso   1.000  C
  C358     1.0000 0.26550  0.73450  0.07900  Biso   1.000  C
  C359     1.0000 0.81960  0.81960  0.38940  Biso   1.000  C
  C360     1.0000 0.78630  0.78630  0.37340  Biso   1.000  C
  C361     1.0000 0.77730  0.77730  0.42150  Biso   1.000  C
  H1263    1.0000 0.75535  0.75535  0.42400  Biso   1.000  H
  C362     1.0000 0.80010  0.80010  0.43090  Biso   1.000  C
  C363     1.0000 0.76550  0.76550  0.42100  Biso   1.000  C
  C364     1.0000 0.31960  0.31960  0.88940  Biso   1.000  C
  C365     1.0000 0.28630  0.28630  0.87340  Biso   1.000  C
  C366     1.0000 0.27730  0.27730  0.92150  Biso   1.000  C
  H1264    1.0000 0.25535  0.25535  0.92400  Biso   1.000  H
  C367     1.0000 0.30010  0.30010  0.93090  Biso   1.000  C
  C368     1.0000 0.26550  0.26550  0.92100  Biso   1.000  C
  C369     1.0000 0.61060  0.18040  0.81960  Biso   1.000  C
  C370     1.0000 0.62660  0.21370  0.78630  Biso   1.000  C
  C371     1.0000 0.57850  0.22270  0.77730  Biso   1.000  C
  H1265    1.0000 0.57600  0.24465  0.75535  Biso   1.000  H
  C372     1.0000 0.56910  0.19990  0.80010  Biso   1.000  C
  C373     1.0000 0.57900  0.23450  0.76550  Biso   1.000  C
  C374     1.0000 0.11060  0.68040  0.31960  Biso   1.000  C
  C375     1.0000 0.12660  0.71370  0.28630  Biso   1.000  C
  C376     1.0000 0.07850  0.72270  0.27730  Biso   1.000  C
  H1266    1.0000 0.07600  0.74465  0.25535  Biso   1.000  H
  C377     1.0000 0.06910  0.69990  0.30010  Biso   1.000  C
  C378     1.0000 0.07900  0.73450  0.26550  Biso   1.000  C
  C379     1.0000 0.38940  0.18040  0.18040  Biso   1.000  C
  C380     1.0000 0.37340  0.21370  0.21370  Biso   1.000  C
  C381     1.0000 0.42150  0.22270  0.22270  Biso   1.000  C
  H1267    1.0000 0.42400  0.24465  0.24465  Biso   1.000  H
  C382     1.0000 0.43090  0.19990  0.19990  Biso   1.000  C
  C383     1.0000 0.42100  0.23450  0.23450  Biso   1.000  C
  C384     1.0000 0.88940  0.68040  0.68040  Biso   1.000  C
  C385     1.0000 0.87340  0.71370  0.71370  Biso   1.000  C
  C386     1.0000 0.92150  0.72270  0.72270  Biso   1.000  C
  H1268    1.0000 0.92400  0.74465  0.74465  Biso   1.000  H
  C387     1.0000 0.93090  0.69990  0.69990  Biso   1.000  C
  C388     1.0000 0.92100  0.73450  0.73450  Biso   1.000  C
  C389     1.0000 0.61060  0.81960  0.18040  Biso   1.000  C
  C390     1.0000 0.62660  0.78630  0.21370  Biso   1.000  C
  C391     1.0000 0.57850  0.77730  0.22270  Biso   1.000  C
  H1269    1.0000 0.57600  0.75535  0.24465  Biso   1.000  H
  C392     1.0000 0.56910  0.80010  0.19990  Biso   1.000  C
  C393     1.0000 0.57900  0.76550  0.23450  Biso   1.000  C
  C394     1.0000 0.11060  0.31960  0.68040  Biso   1.000  C
  C395     1.0000 0.12660  0.28630  0.71370  Biso   1.000  C
  C396     1.0000 0.07850  0.27730  0.72270  Biso   1.000  C
  H1270    1.0000 0.07600  0.25535  0.74465  Biso   1.000  H
  C397     1.0000 0.06910  0.30010  0.69990  Biso   1.000  C
  C398     1.0000 0.07900  0.26550  0.73450  Biso   1.000  C
  C399     1.0000 0.38940  0.81960  0.81960  Biso   1.000  C
  C400     1.0000 0.37340  0.78630  0.78630  Biso   1.000  C
  C401     1.0000 0.42150  0.77730  0.77730  Biso   1.000  C
  H1271    1.0000 0.42400  0.75535  0.75535  Biso   1.000  H
  C402     1.0000 0.43090  0.80010  0.80010  Biso   1.000  C
  C403     1.0000 0.42100  0.76550  0.76550  Biso   1.000  C
  C404     1.0000 0.88940  0.31960  0.31960  Biso   1.000  C
  C405     1.0000 0.87340  0.28630  0.28630  Biso   1.000  C
  C406     1.0000 0.92150  0.27730  0.27730  Biso   1.000  C
  H1272    1.0000 0.92400  0.25535  0.25535  Biso   1.000  H
  C407     1.0000 0.93090  0.30010  0.30010  Biso   1.000  C
  C408     1.0000 0.92100  0.26550  0.26550  Biso   1.000  C
  C409     1.0000 0.61060  0.81960  0.81960  Biso   1.000  C
  C410     1.0000 0.62660  0.78630  0.78630  Biso   1.000  C
  C411     1.0000 0.57850  0.77730  0.77730  Biso   1.000  C
  H1273    1.0000 0.57600  0.75535  0.75535  Biso   1.000  H
  C412     1.0000 0.56910  0.80010  0.80010  Biso   1.000  C
  C413     1.0000 0.57900  0.76550  0.76550  Biso   1.000  C
  C414     1.0000 0.11060  0.31960  0.31960  Biso   1.000  C
  C415     1.0000 0.12660  0.28630  0.28630  Biso   1.000  C
  C416     1.0000 0.07850  0.27730  0.27730  Biso   1.000  C
  H1274    1.0000 0.07600  0.25535  0.25535  Biso   1.000  H
  C417     1.0000 0.06910  0.30010  0.30010  Biso   1.000  C
  C418     1.0000 0.07900  0.26550  0.26550  Biso   1.000  C
  C419     1.0000 0.38940  0.18040  0.81960  Biso   1.000  C
  C420     1.0000 0.37340  0.21370  0.78630  Biso   1.000  C
  C421     1.0000 0.42150  0.22270  0.77730  Biso   1.000  C
  H1275    1.0000 0.42400  0.24465  0.75535  Biso   1.000  H
  C422     1.0000 0.43090  0.19990  0.80010  Biso   1.000  C
  C423     1.0000 0.42100  0.23450  0.76550  Biso   1.000  C
  C424     1.0000 0.88940  0.68040  0.31960  Biso   1.000  C
  C425     1.0000 0.87340  0.71370  0.28630  Biso   1.000  C
  C426     1.0000 0.92150  0.72270  0.27730  Biso   1.000  C
  H1276    1.0000 0.92400  0.74465  0.25535  Biso   1.000  H
  C427     1.0000 0.93090  0.69990  0.30010  Biso   1.000  C
  C428     1.0000 0.92100  0.73450  0.26550  Biso   1.000  C
  C429     1.0000 0.61060  0.18040  0.18040  Biso   1.000  C
  C430     1.0000 0.62660  0.21370  0.21370  Biso   1.000  C
  C431     1.0000 0.57850  0.22270  0.22270  Biso   1.000  C
  H1277    1.0000 0.57600  0.24465  0.24465  Biso   1.000  H
  C432     1.0000 0.56910  0.19990  0.19990  Biso   1.000  C
  C433     1.0000 0.57900  0.23450  0.23450  Biso   1.000  C
  C434     1.0000 0.11060  0.68040  0.68040  Biso   1.000  C
  C435     1.0000 0.12660  0.71370  0.71370  Biso   1.000  C
  C436     1.0000 0.07850  0.72270  0.72270  Biso   1.000  C
  H1278    1.0000 0.07600  0.74465  0.74465  Biso   1.000  H
  C437     1.0000 0.06910  0.69990  0.69990  Biso   1.000  C
  C438     1.0000 0.07900  0.73450  0.73450  Biso   1.000  C
  C439     1.0000 0.38940  0.81960  0.18040  Biso   1.000  C
  C440     1.0000 0.37340  0.78630  0.21370  Biso   1.000  C
  C441     1.0000 0.42150  0.77730  0.22270  Biso   1.000  C
  H1279    1.0000 0.42400  0.75535  0.24465  Biso   1.000  H
  C442     1.0000 0.43090  0.80010  0.19990  Biso   1.000  C
  C443     1.0000 0.42100  0.76550  0.23450  Biso   1.000  C
  C444     1.0000 0.88940  0.31960  0.68040  Biso   1.000  C
  C445     1.0000 0.87340  0.28630  0.71370  Biso   1.000  C
  C446     1.0000 0.92150  0.27730  0.72270  Biso   1.000  C
  H1280    1.0000 0.92400  0.25535  0.74465  Biso   1.000  H
  C447     1.0000 0.93090  0.30010  0.69990  Biso   1.000  C
  C448     1.0000 0.92100  0.26550  0.73450  Biso   1.000  C
  C449     1.0000 0.81960  0.18040  0.38940  Biso   1.000  C
  C450     1.0000 0.78630  0.21370  0.37340  Biso   1.000  C
  C451     1.0000 0.77730  0.22270  0.42150  Biso   1.000  C
  H1281    1.0000 0.75535  0.24465  0.42400  Biso   1.000  H
  C452     1.0000 0.80010  0.19990  0.43090  Biso   1.000  C
  C453     1.0000 0.76550  0.23450  0.42100  Biso   1.000  C
  C454     1.0000 0.31960  0.68040  0.88940  Biso   1.000  C
  C455     1.0000 0.28630  0.71370  0.87340  Biso   1.000  C
  C456     1.0000 0.27730  0.72270  0.92150  Biso   1.000  C
  H1282    1.0000 0.25535  0.74465  0.92400  Biso   1.000  H
  C457     1.0000 0.30010  0.69990  0.93090  Biso   1.000  C
  C458     1.0000 0.26550  0.73450  0.92100  Biso   1.000  C
  C459     1.0000 0.18040  0.18040  0.61060  Biso   1.000  C
  C460     1.0000 0.21370  0.21370  0.62660  Biso   1.000  C
  C461     1.0000 0.22270  0.22270  0.57850  Biso   1.000  C
  H1283    1.0000 0.24465  0.24465  0.57600  Biso   1.000  H
  C462     1.0000 0.19990  0.19990  0.56910  Biso   1.000  C
  C463     1.0000 0.23450  0.23450  0.57900  Biso   1.000  C
  C464     1.0000 0.68040  0.68040  0.11060  Biso   1.000  C
  C465     1.0000 0.71370  0.71370  0.12660  Biso   1.000  C
  C466     1.0000 0.72270  0.72270  0.07850  Biso   1.000  C
  H1284    1.0000 0.74465  0.74465  0.07600  Biso   1.000  H
  C467     1.0000 0.69990  0.69990  0.06910  Biso   1.000  C
  C468     1.0000 0.73450  0.73450  0.07900  Biso   1.000  C
  C469     1.0000 0.18040  0.81960  0.38940  Biso   1.000  C
  C470     1.0000 0.21370  0.78630  0.37340  Biso   1.000  C
  C471     1.0000 0.22270  0.77730  0.42150  Biso   1.000  C
  H1285    1.0000 0.24465  0.75535  0.42400  Biso   1.000  H
  C472     1.0000 0.19990  0.80010  0.43090  Biso   1.000  C
  C473     1.0000 0.23450  0.76550  0.42100  Biso   1.000  C
  C474     1.0000 0.68040  0.31960  0.88940  Biso   1.000  C
  C475     1.0000 0.71370  0.28630  0.87340  Biso   1.000  C
  C476     1.0000 0.72270  0.27730  0.92150  Biso   1.000  C
  H1286    1.0000 0.74465  0.25535  0.92400  Biso   1.000  H
  C477     1.0000 0.69990  0.30010  0.93090  Biso   1.000  C
  C478     1.0000 0.73450  0.26550  0.92100  Biso   1.000  C
  C479     1.0000 0.81960  0.81960  0.61060  Biso   1.000  C
  C480     1.0000 0.78630  0.78630  0.62660  Biso   1.000  C
  C481     1.0000 0.77730  0.77730  0.57850  Biso   1.000  C
  H1287    1.0000 0.75535  0.75535  0.57600  Biso   1.000  H
  C482     1.0000 0.80010  0.80010  0.56910  Biso   1.000  C
  C483     1.0000 0.76550  0.76550  0.57900  Biso   1.000  C
  C484     1.0000 0.31960  0.31960  0.11060  Biso   1.000  C
  C485     1.0000 0.28630  0.28630  0.12660  Biso   1.000  C
  C486     1.0000 0.27730  0.27730  0.07850  Biso   1.000  C
  H1288    1.0000 0.25535  0.25535  0.07600  Biso   1.000  H
  C487     1.0000 0.30010  0.30010  0.06910  Biso   1.000  C
  C488     1.0000 0.26550  0.26550  0.07900  Biso   1.000  C
  C489     1.0000 0.18040  0.61060  0.18040  Biso   1.000  C
  C490     1.0000 0.21370  0.62660  0.21370  Biso   1.000  C
  C491     1.0000 0.22270  0.57850  0.22270  Biso   1.000  C
  H1289    1.0000 0.24465  0.57600  0.24465  Biso   1.000  H
  C492     1.0000 0.19990  0.56910  0.19990  Biso   1.000  C
  C493     1.0000 0.23450  0.57900  0.23450  Biso   1.000  C
  C494     1.0000 0.68040  0.11060  0.68040  Biso   1.000  C
  C495     1.0000 0.71370  0.12660  0.71370  Biso   1.000  C
  C496     1.0000 0.72270  0.07850  0.72270  Biso   1.000  C
  H1290    1.0000 0.74465  0.07600  0.74465  Biso   1.000  H
  C497     1.0000 0.69990  0.06910  0.69990  Biso   1.000  C
  C498     1.0000 0.73450  0.07900  0.73450  Biso   1.000  C
  C499     1.0000 0.18040  0.38940  0.81960  Biso   1.000  C
  C500     1.0000 0.21370  0.37340  0.78630  Biso   1.000  C
  C501     1.0000 0.22270  0.42150  0.77730  Biso   1.000  C
  H1291    1.0000 0.24465  0.42400  0.75535  Biso   1.000  H
  C502     1.0000 0.19990  0.43090  0.80010  Biso   1.000  C
  C503     1.0000 0.23450  0.42100  0.76550  Biso   1.000  C
  C504     1.0000 0.68040  0.88940  0.31960  Biso   1.000  C
  C505     1.0000 0.71370  0.87340  0.28630  Biso   1.000  C
  C506     1.0000 0.72270  0.92150  0.27730  Biso   1.000  C
  H1292    1.0000 0.74465  0.92400  0.25535  Biso   1.000  H
  C507     1.0000 0.69990  0.93090  0.30010  Biso   1.000  C
  C508     1.0000 0.73450  0.92100  0.26550  Biso   1.000  C
  C509     1.0000 0.81960  0.61060  0.81960  Biso   1.000  C
  C510     1.0000 0.78630  0.62660  0.78630  Biso   1.000  C
  C511     1.0000 0.77730  0.57850  0.77730  Biso   1.000  C
  H1293    1.0000 0.75535  0.57600  0.75535  Biso   1.000  H
  C512     1.0000 0.80010  0.56910  0.80010  Biso   1.000  C
  C513     1.0000 0.76550  0.57900  0.76550  Biso   1.000  C
  C514     1.0000 0.31960  0.11060  0.31960  Biso   1.000  C
  C515     1.0000 0.28630  0.12660  0.28630  Biso   1.000  C
  C516     1.0000 0.27730  0.07850  0.27730  Biso   1.000  C
  H1294    1.0000 0.25535  0.07600  0.25535  Biso   1.000  H
  C517     1.0000 0.30010  0.06910  0.30010  Biso   1.000  C
  C518     1.0000 0.26550  0.07900  0.26550  Biso   1.000  C
  C519     1.0000 0.81960  0.38940  0.18040  Biso   1.000  C
  C520     1.0000 0.78630  0.37340  0.21370  Biso   1.000  C
  C521     1.0000 0.77730  0.42150  0.22270  Biso   1.000  C
  H1295    1.0000 0.75535  0.42400  0.24465  Biso   1.000  H
  C522     1.0000 0.80010  0.43090  0.19990  Biso   1.000  C
  C523     1.0000 0.76550  0.42100  0.23450  Biso   1.000  C
  C524     1.0000 0.31960  0.88940  0.68040  Biso   1.000  C
  C525     1.0000 0.28630  0.87340  0.71370  Biso   1.000  C
  C526     1.0000 0.27730  0.92150  0.72270  Biso   1.000  C
  H1296    1.0000 0.25535  0.92400  0.74465  Biso   1.000  H
  C527     1.0000 0.30010  0.93090  0.69990  Biso   1.000  C
  C528     1.0000 0.26550  0.92100  0.73450  Biso   1.000  C
  C529     1.0000 0.74860  0.60490  0.00000  Biso   1.000  C
  C530     1.0000 0.69900  0.61160  0.00000  Biso   1.000  C
  C531     1.0000 0.68150  0.56500  0.00000  Biso   1.000  C
  H1297    1.0000 0.65040  0.56560  0.00000  Biso   1.000  H
  C532     1.0000 0.71730  0.56570  0.00000  Biso   1.000  C
  C533     1.0000 0.67130  0.58500  0.00000  Biso   1.000  C
  H1298    1.0000 0.65040  0.56200  0.00000  Biso   1.000  H
  C534     1.0000 0.24860  0.10490  0.50000  Biso   1.000  C
  C535     1.0000 0.19900  0.11160  0.50000  Biso   1.000  C
  C536     1.0000 0.18150  0.06500  0.50000  Biso   1.000  C
  H1299    1.0000 0.15040  0.06560  0.50000  Biso   1.000  H
  C537     1.0000 0.21730  0.06570  0.50000  Biso   1.000  C
  C538     1.0000 0.17130  0.08500  0.50000  Biso   1.000  C
  H1300    1.0000 0.15040  0.06200  0.50000  Biso   1.000  H
  C539     1.0000 0.25140  0.39510  0.00000  Biso   1.000  C
  C540     1.0000 0.30100  0.38840  0.00000  Biso   1.000  C
  C541     1.0000 0.31850  0.43500  0.00000  Biso   1.000  C
  H1301    1.0000 0.34960  0.43440  0.00000  Biso   1.000  H
  C542     1.0000 0.28270  0.43430  0.00000  Biso   1.000  C
  C543     1.0000 0.32870  0.41500  0.00000  Biso   1.000  C
  H1302    1.0000 0.34960  0.43800  0.00000  Biso   1.000  H
  C544     1.0000 0.75140  0.89510  0.50000  Biso   1.000  C
  C545     1.0000 0.80100  0.88840  0.50000  Biso   1.000  C
  C546     1.0000 0.81850  0.93500  0.50000  Biso   1.000  C
  H1303    1.0000 0.84960  0.93440  0.50000  Biso   1.000  H
  C547     1.0000 0.78270  0.93430  0.50000  Biso   1.000  C
  C548     1.0000 0.82870  0.91500  0.50000  Biso   1.000  C
  H1304    1.0000 0.84960  0.93800  0.50000  Biso   1.000  H
  C549     1.0000 0.25140  0.60490  0.00000  Biso   1.000  C
  C550     1.0000 0.30100  0.61160  0.00000  Biso   1.000  C
  C551     1.0000 0.31850  0.56500  0.00000  Biso   1.000  C
  H1305    1.0000 0.34960  0.56560  0.00000  Biso   1.000  H
  C552     1.0000 0.28270  0.56570  0.00000  Biso   1.000  C
  C553     1.0000 0.32870  0.58500  0.00000  Biso   1.000  C
  H1306    1.0000 0.34960  0.56200  0.00000  Biso   1.000  H
  C554     1.0000 0.75140  0.10490  0.50000  Biso   1.000  C
  C555     1.0000 0.80100  0.11160  0.50000  Biso   1.000  C
  C556     1.0000 0.81850  0.06500  0.50000  Biso   1.000  C
  H1307    1.0000 0.84960  0.06560  0.50000  Biso   1.000  H
  C557     1.0000 0.78270  0.06570  0.50000  Biso   1.000  C
  C558     1.0000 0.82870  0.08500  0.50000  Biso   1.000  C
  H1308    1.0000 0.84960  0.06200  0.50000  Biso   1.000  H
  C559     1.0000 0.74860  0.39510  0.00000  Biso   1.000  C
  C560     1.0000 0.69900  0.38840  0.00000  Biso   1.000  C
  C561     1.0000 0.68150  0.43500  0.00000  Biso   1.000  C
  H1309    1.0000 0.65040  0.43440  0.00000  Biso   1.000  H
  C562     1.0000 0.71730  0.43430  0.00000  Biso   1.000  C
  C563     1.0000 0.67130  0.41500  0.00000  Biso   1.000  C
  H1310    1.0000 0.65040  0.43800  0.00000  Biso   1.000  H
  C564     1.0000 0.24860  0.89510  0.50000  Biso   1.000  C
  C565     1.0000 0.19900  0.88840  0.50000  Biso   1.000  C
  C566     1.0000 0.18150  0.93500  0.50000  Biso   1.000  C
  H1311    1.0000 0.15040  0.93440  0.50000  Biso   1.000  H
  C567     1.0000 0.21730  0.93430  0.50000  Biso   1.000  C
  C568     1.0000 0.17130  0.91500  0.50000  Biso   1.000  C
  H1312    1.0000 0.15040  0.93800  0.50000  Biso   1.000  H
  C569     1.0000 0.00000  0.74860  0.60490  Biso   1.000  C
  C570     1.0000 0.00000  0.69900  0.61160  Biso   1.000  C
  C571     1.0000 0.00000  0.68150  0.56500  Biso   1.000  C
  H1313    1.0000 0.00000  0.65040  0.56560  Biso   1.000  H
  C572     1.0000 0.00000  0.71730  0.56570  Biso   1.000  C
  C573     1.0000 0.00000  0.67130  0.58500  Biso   1.000  C
  H1314    1.0000 0.00000  0.65040  0.56200  Biso   1.000  H
  C574     1.0000 0.50000  0.24860  0.10490  Biso   1.000  C
  C575     1.0000 0.50000  0.19900  0.11160  Biso   1.000  C
  C576     1.0000 0.50000  0.18150  0.06500  Biso   1.000  C
  H1315    1.0000 0.50000  0.15040  0.06560  Biso   1.000  H
  C577     1.0000 0.50000  0.21730  0.06570  Biso   1.000  C
  C578     1.0000 0.50000  0.17130  0.08500  Biso   1.000  C
  H1316    1.0000 0.50000  0.15040  0.06200  Biso   1.000  H
  C579     1.0000 0.00000  0.25140  0.39510  Biso   1.000  C
  C580     1.0000 0.00000  0.30100  0.38840  Biso   1.000  C
  C581     1.0000 0.00000  0.31850  0.43500  Biso   1.000  C
  H1317    1.0000 0.00000  0.34960  0.43440  Biso   1.000  H
  C582     1.0000 0.00000  0.28270  0.43430  Biso   1.000  C
  C583     1.0000 0.00000  0.32870  0.41500  Biso   1.000  C
  H1318    1.0000 0.00000  0.34960  0.43800  Biso   1.000  H
  C584     1.0000 0.50000  0.75140  0.89510  Biso   1.000  C
  C585     1.0000 0.50000  0.80100  0.88840  Biso   1.000  C
  C586     1.0000 0.50000  0.81850  0.93500  Biso   1.000  C
  H1319    1.0000 0.50000  0.84960  0.93440  Biso   1.000  H
  C587     1.0000 0.50000  0.78270  0.93430  Biso   1.000  C
  C588     1.0000 0.50000  0.82870  0.91500  Biso   1.000  C
  H1320    1.0000 0.50000  0.84960  0.93800  Biso   1.000  H
  C589     1.0000 0.00000  0.25140  0.60490  Biso   1.000  C
  C590     1.0000 0.00000  0.30100  0.61160  Biso   1.000  C
  C591     1.0000 0.00000  0.31850  0.56500  Biso   1.000  C
  H1321    1.0000 0.00000  0.34960  0.56560  Biso   1.000  H
  C592     1.0000 0.00000  0.28270  0.56570  Biso   1.000  C
  C593     1.0000 0.00000  0.32870  0.58500  Biso   1.000  C
  H1322    1.0000 0.00000  0.34960  0.56200  Biso   1.000  H
  C594     1.0000 0.50000  0.75140  0.10490  Biso   1.000  C
  C595     1.0000 0.50000  0.80100  0.11160  Biso   1.000  C
  C596     1.0000 0.50000  0.81850  0.06500  Biso   1.000  C
  H1323    1.0000 0.50000  0.84960  0.06560  Biso   1.000  H
  C597     1.0000 0.50000  0.78270  0.06570  Biso   1.000  C
  C598     1.0000 0.50000  0.82870  0.08500  Biso   1.000  C
  H1324    1.0000 0.50000  0.84960  0.06200  Biso   1.000  H
  C599     1.0000 0.00000  0.74860  0.39510  Biso   1.000  C
  C600     1.0000 0.00000  0.69900  0.38840  Biso   1.000  C
  C601     1.0000 0.00000  0.68150  0.43500  Biso   1.000  C
  H1325    1.0000 0.00000  0.65040  0.43440  Biso   1.000  H
  C602     1.0000 0.00000  0.71730  0.43430  Biso   1.000  C
  C603     1.0000 0.00000  0.67130  0.41500  Biso   1.000  C
  H1326    1.0000 0.00000  0.65040  0.43800  Biso   1.000  H
  C604     1.0000 0.50000  0.24860  0.89510  Biso   1.000  C
  C605     1.0000 0.50000  0.19900  0.88840  Biso   1.000  C
  C606     1.0000 0.50000  0.18150  0.93500  Biso   1.000  C
  H1327    1.0000 0.50000  0.15040  0.93440  Biso   1.000  H
  C607     1.0000 0.50000  0.21730  0.93430  Biso   1.000  C
  C608     1.0000 0.50000  0.17130  0.91500  Biso   1.000  C
  H1328    1.0000 0.50000  0.15040  0.93800  Biso   1.000  H
  C609     1.0000 0.60490  0.00000  0.74860  Biso   1.000  C
  C610     1.0000 0.61160  0.00000  0.69900  Biso   1.000  C
  C611     1.0000 0.56500  0.00000  0.68150  Biso   1.000  C
  H1329    1.0000 0.56560  0.00000  0.65040  Biso   1.000  H
  C612     1.0000 0.56570  0.00000  0.71730  Biso   1.000  C
  C613     1.0000 0.58500  0.00000  0.67130  Biso   1.000  C
  H1330    1.0000 0.56200  0.00000  0.65040  Biso   1.000  H
  C614     1.0000 0.10490  0.50000  0.24860  Biso   1.000  C
  C615     1.0000 0.11160  0.50000  0.19900  Biso   1.000  C
  C616     1.0000 0.06500  0.50000  0.18150  Biso   1.000  C
  H1331    1.0000 0.06560  0.50000  0.15040  Biso   1.000  H
  C617     1.0000 0.06570  0.50000  0.21730  Biso   1.000  C
  C618     1.0000 0.08500  0.50000  0.17130  Biso   1.000  C
  H1332    1.0000 0.06200  0.50000  0.15040  Biso   1.000  H
  C619     1.0000 0.39510  0.00000  0.25140  Biso   1.000  C
  C620     1.0000 0.38840  0.00000  0.30100  Biso   1.000  C
  C621     1.0000 0.43500  0.00000  0.31850  Biso   1.000  C
  H1333    1.0000 0.43440  0.00000  0.34960  Biso   1.000  H
  C622     1.0000 0.43430  0.00000  0.28270  Biso   1.000  C
  C623     1.0000 0.41500  0.00000  0.32870  Biso   1.000  C
  H1334    1.0000 0.43800  0.00000  0.34960  Biso   1.000  H
  C624     1.0000 0.89510  0.50000  0.75140  Biso   1.000  C
  C625     1.0000 0.88840  0.50000  0.80100  Biso   1.000  C
  C626     1.0000 0.93500  0.50000  0.81850  Biso   1.000  C
  H1335    1.0000 0.93440  0.50000  0.84960  Biso   1.000  H
  C627     1.0000 0.93430  0.50000  0.78270  Biso   1.000  C
  C628     1.0000 0.91500  0.50000  0.82870  Biso   1.000  C
  H1336    1.0000 0.93800  0.50000  0.84960  Biso   1.000  H
  C629     1.0000 0.60490  0.00000  0.25140  Biso   1.000  C
  C630     1.0000 0.61160  0.00000  0.30100  Biso   1.000  C
  C631     1.0000 0.56500  0.00000  0.31850  Biso   1.000  C
  H1337    1.0000 0.56560  0.00000  0.34960  Biso   1.000  H
  C632     1.0000 0.56570  0.00000  0.28270  Biso   1.000  C
  C633     1.0000 0.58500  0.00000  0.32870  Biso   1.000  C
  H1338    1.0000 0.56200  0.00000  0.34960  Biso   1.000  H
  C634     1.0000 0.10490  0.50000  0.75140  Biso   1.000  C
  C635     1.0000 0.11160  0.50000  0.80100  Biso   1.000  C
  C636     1.0000 0.06500  0.50000  0.81850  Biso   1.000  C
  H1339    1.0000 0.06560  0.50000  0.84960  Biso   1.000  H
  C637     1.0000 0.06570  0.50000  0.78270  Biso   1.000  C
  C638     1.0000 0.08500  0.50000  0.82870  Biso   1.000  C
  H1340    1.0000 0.06200  0.50000  0.84960  Biso   1.000  H
  C639     1.0000 0.39510  0.00000  0.74860  Biso   1.000  C
  C640     1.0000 0.38840  0.00000  0.69900  Biso   1.000  C
  C641     1.0000 0.43500  0.00000  0.68150  Biso   1.000  C
  H1341    1.0000 0.43440  0.00000  0.65040  Biso   1.000  H
  C642     1.0000 0.43430  0.00000  0.71730  Biso   1.000  C
  C643     1.0000 0.41500  0.00000  0.67130  Biso   1.000  C
  H1342    1.0000 0.43800  0.00000  0.65040  Biso   1.000  H
  C644     1.0000 0.89510  0.50000  0.24860  Biso   1.000  C
  C645     1.0000 0.88840  0.50000  0.19900  Biso   1.000  C
  C646     1.0000 0.93500  0.50000  0.18150  Biso   1.000  C
  H1343    1.0000 0.93440  0.50000  0.15040  Biso   1.000  H
  C647     1.0000 0.93430  0.50000  0.21730  Biso   1.000  C
  C648     1.0000 0.91500  0.50000  0.17130  Biso   1.000  C
  H1344    1.0000 0.93800  0.50000  0.15040  Biso   1.000  H
  C649     1.0000 0.60490  0.74860  0.00000  Biso   1.000  C
  C650     1.0000 0.61160  0.69900  0.00000  Biso   1.000  C
  C651     1.0000 0.56500  0.68150  0.00000  Biso   1.000  C
  H1345    1.0000 0.56560  0.65040  0.00000  Biso   1.000  H
  C652     1.0000 0.56570  0.71730  0.00000  Biso   1.000  C
  C653     1.0000 0.58500  0.67130  0.00000  Biso   1.000  C
  H1346    1.0000 0.56200  0.65040  0.00000  Biso   1.000  H
  C654     1.0000 0.10490  0.24860  0.50000  Biso   1.000  C
  C655     1.0000 0.11160  0.19900  0.50000  Biso   1.000  C
  C656     1.0000 0.06500  0.18150  0.50000  Biso   1.000  C
  H1347    1.0000 0.06560  0.15040  0.50000  Biso   1.000  H
  C657     1.0000 0.06570  0.21730  0.50000  Biso   1.000  C
  C658     1.0000 0.08500  0.17130  0.50000  Biso   1.000  C
  H1348    1.0000 0.06200  0.15040  0.50000  Biso   1.000  H
  C659     1.0000 0.39510  0.25140  0.00000  Biso   1.000  C
  C660     1.0000 0.38840  0.30100  0.00000  Biso   1.000  C
  C661     1.0000 0.43500  0.31850  0.00000  Biso   1.000  C
  H1349    1.0000 0.43440  0.34960  0.00000  Biso   1.000  H
  C662     1.0000 0.43430  0.28270  0.00000  Biso   1.000  C
  C663     1.0000 0.41500  0.32870  0.00000  Biso   1.000  C
  H1350    1.0000 0.43800  0.34960  0.00000  Biso   1.000  H
  C664     1.0000 0.89510  0.75140  0.50000  Biso   1.000  C
  C665     1.0000 0.88840  0.80100  0.50000  Biso   1.000  C
  C666     1.0000 0.93500  0.81850  0.50000  Biso   1.000  C
  H1351    1.0000 0.93440  0.84960  0.50000  Biso   1.000  H
  C667     1.0000 0.93430  0.78270  0.50000  Biso   1.000  C
  C668     1.0000 0.91500  0.82870  0.50000  Biso   1.000  C
  H1352    1.0000 0.93800  0.84960  0.50000  Biso   1.000  H
  C669     1.0000 0.60490  0.25140  0.00000  Biso   1.000  C
  C670     1.0000 0.61160  0.30100  0.00000  Biso   1.000  C
  C671     1.0000 0.56500  0.31850  0.00000  Biso   1.000  C
  H1353    1.0000 0.56560  0.34960  0.00000  Biso   1.000  H
  C672     1.0000 0.56570  0.28270  0.00000  Biso   1.000  C
  C673     1.0000 0.58500  0.32870  0.00000  Biso   1.000  C
  H1354    1.0000 0.56200  0.34960  0.00000  Biso   1.000  H
  C674     1.0000 0.10490  0.75140  0.50000  Biso   1.000  C
  C675     1.0000 0.11160  0.80100  0.50000  Biso   1.000  C
  C676     1.0000 0.06500  0.81850  0.50000  Biso   1.000  C
  H1355    1.0000 0.06560  0.84960  0.50000  Biso   1.000  H
  C677     1.0000 0.06570  0.78270  0.50000  Biso   1.000  C
  C678     1.0000 0.08500  0.82870  0.50000  Biso   1.000  C
  H1356    1.0000 0.06200  0.84960  0.50000  Biso   1.000  H
  C679     1.0000 0.39510  0.74860  0.00000  Biso   1.000  C
  C680     1.0000 0.38840  0.69900  0.00000  Biso   1.000  C
  C681     1.0000 0.43500  0.68150  0.00000  Biso   1.000  C
  H1357    1.0000 0.43440  0.65040  0.00000  Biso   1.000  H
  C682     1.0000 0.43430  0.71730  0.00000  Biso   1.000  C
  C683     1.0000 0.41500  0.67130  0.00000  Biso   1.000  C
  H1358    1.0000 0.43800  0.65040  0.00000  Biso   1.000  H
  C684     1.0000 0.89510  0.24860  0.50000  Biso   1.000  C
  C685     1.0000 0.88840  0.19900  0.50000  Biso   1.000  C
  C686     1.0000 0.93500  0.18150  0.50000  Biso   1.000  C
  H1359    1.0000 0.93440  0.15040  0.50000  Biso   1.000  H
  C687     1.0000 0.93430  0.21730  0.50000  Biso   1.000  C
  C688     1.0000 0.91500  0.17130  0.50000  Biso   1.000  C
  H1360    1.0000 0.93800  0.15040  0.50000  Biso   1.000  H
  C689     1.0000 0.74860  0.00000  0.39510  Biso   1.000  C
  C690     1.0000 0.69900  0.00000  0.38840  Biso   1.000  C
  C691     1.0000 0.68150  0.00000  0.43500  Biso   1.000  C
  H1361    1.0000 0.65040  0.00000  0.43440  Biso   1.000  H
  C692     1.0000 0.71730  0.00000  0.43430  Biso   1.000  C
  C693     1.0000 0.67130  0.00000  0.41500  Biso   1.000  C
  H1362    1.0000 0.65040  0.00000  0.43800  Biso   1.000  H
  C694     1.0000 0.24860  0.50000  0.89510  Biso   1.000  C
  C695     1.0000 0.19900  0.50000  0.88840  Biso   1.000  C
  C696     1.0000 0.18150  0.50000  0.93500  Biso   1.000  C
  H1363    1.0000 0.15040  0.50000  0.93440  Biso   1.000  H
  C697     1.0000 0.21730  0.50000  0.93430  Biso   1.000  C
  C698     1.0000 0.17130  0.50000  0.91500  Biso   1.000  C
  H1364    1.0000 0.15040  0.50000  0.93800  Biso   1.000  H
  C699     1.0000 0.25140  0.00000  0.60490  Biso   1.000  C
  C700     1.0000 0.30100  0.00000  0.61160  Biso   1.000  C
  C701     1.0000 0.31850  0.00000  0.56500  Biso   1.000  C
  H1365    1.0000 0.34960  0.00000  0.56560  Biso   1.000  H
  C702     1.0000 0.28270  0.00000  0.56570  Biso   1.000  C
  C703     1.0000 0.32870  0.00000  0.58500  Biso   1.000  C
  H1366    1.0000 0.34960  0.00000  0.56200  Biso   1.000  H
  C704     1.0000 0.75140  0.50000  0.10490  Biso   1.000  C
  C705     1.0000 0.80100  0.50000  0.11160  Biso   1.000  C
  C706     1.0000 0.81850  0.50000  0.06500  Biso   1.000  C
  H1367    1.0000 0.84960  0.50000  0.06560  Biso   1.000  H
  C707     1.0000 0.78270  0.50000  0.06570  Biso   1.000  C
  C708     1.0000 0.82870  0.50000  0.08500  Biso   1.000  C
  H1368    1.0000 0.84960  0.50000  0.06200  Biso   1.000  H
  C709     1.0000 0.25140  0.00000  0.39510  Biso   1.000  C
  C710     1.0000 0.30100  0.00000  0.38840  Biso   1.000  C
  C711     1.0000 0.31850  0.00000  0.43500  Biso   1.000  C
  H1369    1.0000 0.34960  0.00000  0.43440  Biso   1.000  H
  C712     1.0000 0.28270  0.00000  0.43430  Biso   1.000  C
  C713     1.0000 0.32870  0.00000  0.41500  Biso   1.000  C
  H1370    1.0000 0.34960  0.00000  0.43800  Biso   1.000  H
  C714     1.0000 0.75140  0.50000  0.89510  Biso   1.000  C
  C715     1.0000 0.80100  0.50000  0.88840  Biso   1.000  C
  C716     1.0000 0.81850  0.50000  0.93500  Biso   1.000  C
  H1371    1.0000 0.84960  0.50000  0.93440  Biso   1.000  H
  C717     1.0000 0.78270  0.50000  0.93430  Biso   1.000  C
  C718     1.0000 0.82870  0.50000  0.91500  Biso   1.000  C
  H1372    1.0000 0.84960  0.50000  0.93800  Biso   1.000  H
  C719     1.0000 0.74860  0.00000  0.60490  Biso   1.000  C
  C720     1.0000 0.69900  0.00000  0.61160  Biso   1.000  C
  C721     1.0000 0.68150  0.00000  0.56500  Biso   1.000  C
  H1373    1.0000 0.65040  0.00000  0.56560  Biso   1.000  H
  C722     1.0000 0.71730  0.00000  0.56570  Biso   1.000  C
  C723     1.0000 0.67130  0.00000  0.58500  Biso   1.000  C
  H1374    1.0000 0.65040  0.00000  0.56200  Biso   1.000  H
  C724     1.0000 0.24860  0.50000  0.10490  Biso   1.000  C
  C725     1.0000 0.19900  0.50000  0.11160  Biso   1.000  C
  C726     1.0000 0.18150  0.50000  0.06500  Biso   1.000  C
  H1375    1.0000 0.15040  0.50000  0.06560  Biso   1.000  H
  C727     1.0000 0.21730  0.50000  0.06570  Biso   1.000  C
  C728     1.0000 0.17130  0.50000  0.08500  Biso   1.000  C
  H1376    1.0000 0.15040  0.50000  0.06200  Biso   1.000  H
  C729     1.0000 0.00000  0.60490  0.25140  Biso   1.000  C
  C730     1.0000 0.00000  0.61160  0.30100  Biso   1.000  C
  C731     1.0000 0.00000  0.56500  0.31850  Biso   1.000  C
  H1377    1.0000 0.00000  0.56560  0.34960  Biso   1.000  H
  C732     1.0000 0.00000  0.56570  0.28270  Biso   1.000  C
  C733     1.0000 0.00000  0.58500  0.32870  Biso   1.000  C
  H1378    1.0000 0.00000  0.56200  0.34960  Biso   1.000  H
  C734     1.0000 0.50000  0.10490  0.75140  Biso   1.000  C
  C735     1.0000 0.50000  0.11160  0.80100  Biso   1.000  C
  C736     1.0000 0.50000  0.06500  0.81850  Biso   1.000  C
  H1379    1.0000 0.50000  0.06560  0.84960  Biso   1.000  H
  C737     1.0000 0.50000  0.06570  0.78270  Biso   1.000  C
  C738     1.0000 0.50000  0.08500  0.82870  Biso   1.000  C
  H1380    1.0000 0.50000  0.06200  0.84960  Biso   1.000  H
  C739     1.0000 0.00000  0.39510  0.74860  Biso   1.000  C
  C740     1.0000 0.00000  0.38840  0.69900  Biso   1.000  C
  C741     1.0000 0.00000  0.43500  0.68150  Biso   1.000  C
  H1381    1.0000 0.00000  0.43440  0.65040  Biso   1.000  H
  C742     1.0000 0.00000  0.43430  0.71730  Biso   1.000  C
  C743     1.0000 0.00000  0.41500  0.67130  Biso   1.000  C
  H1382    1.0000 0.00000  0.43800  0.65040  Biso   1.000  H
  C744     1.0000 0.50000  0.89510  0.24860  Biso   1.000  C
  C745     1.0000 0.50000  0.88840  0.19900  Biso   1.000  C
  C746     1.0000 0.50000  0.93500  0.18150  Biso   1.000  C
  H1383    1.0000 0.50000  0.93440  0.15040  Biso   1.000  H
  C747     1.0000 0.50000  0.93430  0.21730  Biso   1.000  C
  C748     1.0000 0.50000  0.91500  0.17130  Biso   1.000  C
  H1384    1.0000 0.50000  0.93800  0.15040  Biso   1.000  H
  C749     1.0000 0.00000  0.60490  0.74860  Biso   1.000  C
  C750     1.0000 0.00000  0.61160  0.69900  Biso   1.000  C
  C751     1.0000 0.00000  0.56500  0.68150  Biso   1.000  C
  H1385    1.0000 0.00000  0.56560  0.65040  Biso   1.000  H
  C752     1.0000 0.00000  0.56570  0.71730  Biso   1.000  C
  C753     1.0000 0.00000  0.58500  0.67130  Biso   1.000  C
  H1386    1.0000 0.00000  0.56200  0.65040  Biso   1.000  H
  C754     1.0000 0.50000  0.10490  0.24860  Biso   1.000  C
  C755     1.0000 0.50000  0.11160  0.19900  Biso   1.000  C
  C756     1.0000 0.50000  0.06500  0.18150  Biso   1.000  C
  H1387    1.0000 0.50000  0.06560  0.15040  Biso   1.000  H
  C757     1.0000 0.50000  0.06570  0.21730  Biso   1.000  C
  C758     1.0000 0.50000  0.08500  0.17130  Biso   1.000  C
  H1388    1.0000 0.50000  0.06200  0.15040  Biso   1.000  H
  C759     1.0000 0.00000  0.39510  0.25140  Biso   1.000  C
  C760     1.0000 0.00000  0.38840  0.30100  Biso   1.000  C
  C761     1.0000 0.00000  0.43500  0.31850  Biso   1.000  C
  H1389    1.0000 0.00000  0.43440  0.34960  Biso   1.000  H
  C762     1.0000 0.00000  0.43430  0.28270  Biso   1.000  C
  C763     1.0000 0.00000  0.41500  0.32870  Biso   1.000  C
  H1390    1.0000 0.00000  0.43800  0.34960  Biso   1.000  H
  C764     1.0000 0.50000  0.89510  0.75140  Biso   1.000  C
  C765     1.0000 0.50000  0.88840  0.80100  Biso   1.000  C
  C766     1.0000 0.50000  0.93500  0.81850  Biso   1.000  C
  H1391    1.0000 0.50000  0.93440  0.84960  Biso   1.000  H
  C767     1.0000 0.50000  0.93430  0.78270  Biso   1.000  C
  C768     1.0000 0.50000  0.91500  0.82870  Biso   1.000  C
  H1392    1.0000 0.50000  0.93800  0.84960  Biso   1.000  H
