data_image0
_cell_length_a       18.7069
_cell_length_b       18.7069
_cell_length_c       41.0149
_cell_angle_alpha    90
_cell_angle_beta     90
_cell_angle_gamma    120

_symmetry_space_group_name_H-M    "P 1"
_symmetry_int_tables_number       1

loop_
  _symmetry_equiv_pos_as_xyz
  'x, y, z'

loop_
  _atom_site_label
  _atom_site_occupancy
  _atom_site_fract_x
  _atom_site_fract_y
  _atom_site_fract_z
  _atom_site_thermal_displace_type
  _atom_site_B_iso_or_equiv
  _atom_site_type_symbol
  O1       1.0000 0.44300  0.14760  0.16522  Biso   1.000  O
  O2       1.0000 0.36300  0.10730  0.20912  Biso   1.000  O
  O3       1.0000 0.36730  0.97470  0.29800  Biso   1.000  O
  H1       1.0000 0.54570  0.00750  0.29830  Biso   1.000  H
  C1       1.0000 0.42610  0.11830  0.19373  Biso   1.000  C
  C2       1.0000 0.48470  0.09680  0.20991  Biso   1.000  C
  C3       1.0000 0.46850  0.06810  0.24120  Biso   1.000  C
  H2       1.0000 0.42030  0.06040  0.25200  Biso   1.000  H
  C4       1.0000 0.43880  0.99600  0.30750  Biso   1.000  C
  C5       1.0000 0.44610  0.97280  0.34210  Biso   1.000  C
  C6       1.0000 0.37240  0.92370  0.35850  Biso   1.000  C
  H3       1.0000 0.32140  0.91100  0.34860  Biso   1.000  H
  C7       1.0000 0.37320  0.89330  0.38930  Biso   1.000  C
  H4       1.0000 0.32280  0.85970  0.40050  Biso   1.000  H
  N1       1.0000 0.44780  0.91190  0.40374  Biso   1.000  N
  C8       1.0000 0.52160  0.96100  0.38730  Biso   1.000  C
  H5       1.0000 0.57250  0.97370  0.39720  Biso   1.000  H
  C9       1.0000 0.52070  0.99140  0.35650  Biso   1.000  C
  H6       1.0000 0.57110  0.02500  0.34530  Biso   1.000  H
  O4       1.0000 0.10967  0.48093  0.49855  Biso   1.000  O
  O5       1.0000 0.02967  0.44063  0.54245  Biso   1.000  O
  O6       1.0000 0.03397  0.30803  0.63133  Biso   1.000  O
  H7       1.0000 0.21237  0.34083  0.63163  Biso   1.000  H
  C10      1.0000 0.09277  0.45163  0.52706  Biso   1.000  C
  C11      1.0000 0.15137  0.43013  0.54324  Biso   1.000  C
  C12      1.0000 0.13517  0.40143  0.57453  Biso   1.000  C
  H8       1.0000 0.08697  0.39373  0.58533  Biso   1.000  H
  C13      1.0000 0.10547  0.32933  0.64083  Biso   1.000  C
  C14      1.0000 0.11277  0.30613  0.67543  Biso   1.000  C
  C15      1.0000 0.03907  0.25703  0.69183  Biso   1.000  C
  H9       1.0000 0.98807  0.24433  0.68193  Biso   1.000  H
  C16      1.0000 0.03987  0.22663  0.72263  Biso   1.000  C
  H10      1.0000 0.98947  0.19303  0.73383  Biso   1.000  H
  N2       1.0000 0.11447  0.24523  0.73707  Biso   1.000  N
  C17      1.0000 0.18827  0.29433  0.72063  Biso   1.000  C
  H11      1.0000 0.23917  0.30703  0.73053  Biso   1.000  H
  C18      1.0000 0.18737  0.32473  0.68983  Biso   1.000  C
  H12      1.0000 0.23777  0.35833  0.67863  Biso   1.000  H
  O7       1.0000 0.77633  0.81427  0.83189  Biso   1.000  O
  O8       1.0000 0.69633  0.77397  0.87579  Biso   1.000  O
  O9       1.0000 0.70063  0.64137  0.96467  Biso   1.000  O
  H13      1.0000 0.87903  0.67417  0.96497  Biso   1.000  H
  C19      1.0000 0.75943  0.78497  0.86040  Biso   1.000  C
  C20      1.0000 0.81803  0.76347  0.87658  Biso   1.000  C
  C21      1.0000 0.80183  0.73477  0.90787  Biso   1.000  C
  H14      1.0000 0.75363  0.72707  0.91867  Biso   1.000  H
  C22      1.0000 0.77213  0.66267  0.97417  Biso   1.000  C
  C23      1.0000 0.77943  0.63947  0.00877  Biso   1.000  C
  C24      1.0000 0.70573  0.59037  0.02517  Biso   1.000  C
  H15      1.0000 0.65473  0.57767  0.01527  Biso   1.000  H
  C25      1.0000 0.70653  0.55997  0.05597  Biso   1.000  C
  H16      1.0000 0.65613  0.52637  0.06717  Biso   1.000  H
  N3       1.0000 0.78113  0.57857  0.07041  Biso   1.000  N
  C26      1.0000 0.85493  0.62767  0.05397  Biso   1.000  C
  H17      1.0000 0.90583  0.64037  0.06387  Biso   1.000  H
  C27      1.0000 0.85403  0.65807  0.02317  Biso   1.000  C
  H18      1.0000 0.90443  0.69167  0.01197  Biso   1.000  H
  O10      1.0000 0.85240  0.29540  0.16522  Biso   1.000  O
  O11      1.0000 0.89270  0.25570  0.20912  Biso   1.000  O
  O12      1.0000 0.02530  0.39260  0.29800  Biso   1.000  O
  H19      1.0000 0.99250  0.53820  0.29830  Biso   1.000  H
  C28      1.0000 0.88170  0.30780  0.19373  Biso   1.000  C
  C29      1.0000 0.90320  0.38790  0.20991  Biso   1.000  C
  C30      1.0000 0.93190  0.40040  0.24120  Biso   1.000  C
  H20      1.0000 0.93960  0.35990  0.25200  Biso   1.000  H
  C31      1.0000 0.00400  0.44280  0.30750  Biso   1.000  C
  C32      1.0000 0.02720  0.47330  0.34210  Biso   1.000  C
  C33      1.0000 0.07630  0.44870  0.35850  Biso   1.000  C
  H21      1.0000 0.08900  0.41040  0.34860  Biso   1.000  H
  C34      1.0000 0.10670  0.47990  0.38930  Biso   1.000  C
  H22      1.0000 0.14030  0.46310  0.40050  Biso   1.000  H
  N4       1.0000 0.08810  0.53590  0.40374  Biso   1.000  N
  C35      1.0000 0.03900  0.56060  0.38730  Biso   1.000  C
  H23      1.0000 0.02630  0.59880  0.39720  Biso   1.000  H
  C36      1.0000 0.00860  0.52930  0.35650  Biso   1.000  C
  H24      1.0000 0.97500  0.54610  0.34530  Biso   1.000  H
  O13      1.0000 0.51907  0.62873  0.49855  Biso   1.000  O
  O14      1.0000 0.55937  0.58903  0.54245  Biso   1.000  O
  O15      1.0000 0.69197  0.72593  0.63133  Biso   1.000  O
  H25      1.0000 0.65917  0.87153  0.63163  Biso   1.000  H
  C37      1.0000 0.54837  0.64113  0.52706  Biso   1.000  C
  C38      1.0000 0.56987  0.72123  0.54324  Biso   1.000  C
  C39      1.0000 0.59857  0.73373  0.57453  Biso   1.000  C
  H26      1.0000 0.60627  0.69323  0.58533  Biso   1.000  H
  C40      1.0000 0.67067  0.77613  0.64083  Biso   1.000  C
  C41      1.0000 0.69387  0.80663  0.67543  Biso   1.000  C
  C42      1.0000 0.74297  0.78203  0.69183  Biso   1.000  C
  H27      1.0000 0.75567  0.74373  0.68193  Biso   1.000  H
  C43      1.0000 0.77337  0.81323  0.72263  Biso   1.000  C
  H28      1.0000 0.80697  0.79643  0.73383  Biso   1.000  H
  N5       1.0000 0.75477  0.86923  0.73707  Biso   1.000  N
  C44      1.0000 0.70567  0.89393  0.72063  Biso   1.000  C
  H29      1.0000 0.69297  0.93213  0.73053  Biso   1.000  H
  C45      1.0000 0.67527  0.86263  0.68983  Biso   1.000  C
  H30      1.0000 0.64167  0.87943  0.67863  Biso   1.000  H
  O16      1.0000 0.18573  0.96207  0.83189  Biso   1.000  O
  O17      1.0000 0.22603  0.92237  0.87579  Biso   1.000  O
  O18      1.0000 0.35863  0.05927  0.96467  Biso   1.000  O
  H31      1.0000 0.32583  0.20487  0.96497  Biso   1.000  H
  C46      1.0000 0.21503  0.97447  0.86040  Biso   1.000  C
  C47      1.0000 0.23653  0.05457  0.87658  Biso   1.000  C
  C48      1.0000 0.26523  0.06707  0.90787  Biso   1.000  C
  H32      1.0000 0.27293  0.02657  0.91867  Biso   1.000  H
  C49      1.0000 0.33733  0.10947  0.97417  Biso   1.000  C
  C50      1.0000 0.36053  0.13997  0.00877  Biso   1.000  C
  C51      1.0000 0.40963  0.11537  0.02517  Biso   1.000  C
  H33      1.0000 0.42233  0.07707  0.01527  Biso   1.000  H
  C52      1.0000 0.44003  0.14657  0.05597  Biso   1.000  C
  H34      1.0000 0.47363  0.12977  0.06717  Biso   1.000  H
  N6       1.0000 0.42143  0.20257  0.07041  Biso   1.000  N
  C53      1.0000 0.37233  0.22727  0.05397  Biso   1.000  C
  H35      1.0000 0.35963  0.26547  0.06387  Biso   1.000  H
  C54      1.0000 0.34193  0.19597  0.02317  Biso   1.000  C
  H36      1.0000 0.30833  0.21277  0.01197  Biso   1.000  H
  O19      1.0000 0.70460  0.55700  0.16522  Biso   1.000  O
  O20      1.0000 0.74430  0.63700  0.20912  Biso   1.000  O
  O21      1.0000 0.60740  0.63270  0.29800  Biso   1.000  O
  H37      1.0000 0.46180  0.45430  0.29830  Biso   1.000  H
  C55      1.0000 0.69220  0.57390  0.19373  Biso   1.000  C
  C56      1.0000 0.61210  0.51530  0.20991  Biso   1.000  C
  C57      1.0000 0.59960  0.53150  0.24120  Biso   1.000  C
  H38      1.0000 0.64010  0.57970  0.25200  Biso   1.000  H
  C58      1.0000 0.55720  0.56120  0.30750  Biso   1.000  C
  C59      1.0000 0.52670  0.55390  0.34210  Biso   1.000  C
  C60      1.0000 0.55130  0.62760  0.35850  Biso   1.000  C
  H39      1.0000 0.58960  0.67860  0.34860  Biso   1.000  H
  C61      1.0000 0.52010  0.62680  0.38930  Biso   1.000  C
  H40      1.0000 0.53690  0.67720  0.40050  Biso   1.000  H
  N7       1.0000 0.46410  0.55220  0.40374  Biso   1.000  N
  C62      1.0000 0.43940  0.47840  0.38730  Biso   1.000  C
  H41      1.0000 0.40120  0.42750  0.39720  Biso   1.000  H
  C63      1.0000 0.47070  0.47930  0.35650  Biso   1.000  C
  H42      1.0000 0.45390  0.42890  0.34530  Biso   1.000  H
  O22      1.0000 0.37127  0.89033  0.49855  Biso   1.000  O
  O23      1.0000 0.41097  0.97033  0.54245  Biso   1.000  O
  O24      1.0000 0.27407  0.96603  0.63133  Biso   1.000  O
  H43      1.0000 0.12847  0.78763  0.63163  Biso   1.000  H
  C64      1.0000 0.35887  0.90723  0.52706  Biso   1.000  C
  C65      1.0000 0.27877  0.84863  0.54324  Biso   1.000  C
  C66      1.0000 0.26627  0.86483  0.57453  Biso   1.000  C
  H44      1.0000 0.30677  0.91303  0.58533  Biso   1.000  H
  C67      1.0000 0.22387  0.89453  0.64083  Biso   1.000  C
  C68      1.0000 0.19337  0.88723  0.67543  Biso   1.000  C
  C69      1.0000 0.21797  0.96093  0.69183  Biso   1.000  C
  H45      1.0000 0.25627  0.01193  0.68193  Biso   1.000  H
  C70      1.0000 0.18677  0.96013  0.72263  Biso   1.000  C
  H46      1.0000 0.20357  0.01053  0.73383  Biso   1.000  H
  N8       1.0000 0.13077  0.88553  0.73707  Biso   1.000  N
  C71      1.0000 0.10607  0.81173  0.72063  Biso   1.000  C
  H47      1.0000 0.06787  0.76083  0.73053  Biso   1.000  H
  C72      1.0000 0.13737  0.81263  0.68983  Biso   1.000  C
  H48      1.0000 0.12057  0.76223  0.67863  Biso   1.000  H
  O25      1.0000 0.03793  0.22367  0.83189  Biso   1.000  O
  O26      1.0000 0.07763  0.30367  0.87579  Biso   1.000  O
  O27      1.0000 0.94073  0.29937  0.96467  Biso   1.000  O
  H49      1.0000 0.79513  0.12097  0.96497  Biso   1.000  H
  C73      1.0000 0.02553  0.24057  0.86040  Biso   1.000  C
  C74      1.0000 0.94543  0.18197  0.87658  Biso   1.000  C
  C75      1.0000 0.93293  0.19817  0.90787  Biso   1.000  C
  H50      1.0000 0.97343  0.24637  0.91867  Biso   1.000  H
  C76      1.0000 0.89053  0.22787  0.97417  Biso   1.000  C
  C77      1.0000 0.86003  0.22057  0.00877  Biso   1.000  C
  C78      1.0000 0.88463  0.29427  0.02517  Biso   1.000  C
  H51      1.0000 0.92293  0.34527  0.01527  Biso   1.000  H
  C79      1.0000 0.85343  0.29347  0.05597  Biso   1.000  C
  H52      1.0000 0.87023  0.34387  0.06717  Biso   1.000  H
  N9       1.0000 0.79743  0.21887  0.07041  Biso   1.000  N
  C80      1.0000 0.77273  0.14507  0.05397  Biso   1.000  C
  H53      1.0000 0.73453  0.09417  0.06387  Biso   1.000  H
  C81      1.0000 0.80403  0.14597  0.02317  Biso   1.000  C
  H54      1.0000 0.78723  0.09557  0.01197  Biso   1.000  H
  O28      1.0000 0.14760  0.44300  0.83478  Biso   1.000  O
  O29      1.0000 0.10730  0.36300  0.79088  Biso   1.000  O
  O30      1.0000 0.97470  0.36730  0.70200  Biso   1.000  O
  H55      1.0000 0.00750  0.54570  0.70170  Biso   1.000  H
  C82      1.0000 0.11830  0.42610  0.80627  Biso   1.000  C
  C83      1.0000 0.09680  0.48470  0.79009  Biso   1.000  C
  C84      1.0000 0.06810  0.46850  0.75880  Biso   1.000  C
  H56      1.0000 0.06040  0.42030  0.74800  Biso   1.000  H
  C85      1.0000 0.99600  0.43880  0.69250  Biso   1.000  C
  C86      1.0000 0.97280  0.44610  0.65790  Biso   1.000  C
  C87      1.0000 0.92370  0.37240  0.64150  Biso   1.000  C
  H57      1.0000 0.91100  0.32140  0.65140  Biso   1.000  H
  C88      1.0000 0.89330  0.37320  0.61070  Biso   1.000  C
  H58      1.0000 0.85970  0.32280  0.59950  Biso   1.000  H
  N10      1.0000 0.91190  0.44780  0.59626  Biso   1.000  N
  C89      1.0000 0.96100  0.52160  0.61270  Biso   1.000  C
  H59      1.0000 0.97370  0.57250  0.60280  Biso   1.000  H
  C90      1.0000 0.99140  0.52070  0.64350  Biso   1.000  C
  H60      1.0000 0.02500  0.57110  0.65470  Biso   1.000  H
  O31      1.0000 0.81427  0.77633  0.16811  Biso   1.000  O
  O32      1.0000 0.77397  0.69633  0.12421  Biso   1.000  O
  O33      1.0000 0.64137  0.70063  0.03533  Biso   1.000  O
  H61      1.0000 0.67417  0.87903  0.03503  Biso   1.000  H
  C91      1.0000 0.78497  0.75943  0.13960  Biso   1.000  C
  C92      1.0000 0.76347  0.81803  0.12342  Biso   1.000  C
  C93      1.0000 0.73477  0.80183  0.09213  Biso   1.000  C
  H62      1.0000 0.72707  0.75363  0.08133  Biso   1.000  H
  C94      1.0000 0.66267  0.77213  0.02583  Biso   1.000  C
  C95      1.0000 0.63947  0.77943  0.99123  Biso   1.000  C
  C96      1.0000 0.59037  0.70573  0.97483  Biso   1.000  C
  H63      1.0000 0.57767  0.65473  0.98473  Biso   1.000  H
  C97      1.0000 0.55997  0.70653  0.94403  Biso   1.000  C
  H64      1.0000 0.52637  0.65613  0.93283  Biso   1.000  H
  N11      1.0000 0.57857  0.78113  0.92959  Biso   1.000  N
  C98      1.0000 0.62767  0.85493  0.94603  Biso   1.000  C
  H65      1.0000 0.64037  0.90583  0.93613  Biso   1.000  H
  C99      1.0000 0.65807  0.85403  0.97683  Biso   1.000  C
  H66      1.0000 0.69167  0.90443  0.98803  Biso   1.000  H
  O34      1.0000 0.48093  0.10967  0.50145  Biso   1.000  O
  O35      1.0000 0.44063  0.02967  0.45755  Biso   1.000  O
  O36      1.0000 0.30803  0.03397  0.36867  Biso   1.000  O
  H67      1.0000 0.34083  0.21237  0.36837  Biso   1.000  H
  C100     1.0000 0.45163  0.09277  0.47294  Biso   1.000  C
  C101     1.0000 0.43013  0.15137  0.45676  Biso   1.000  C
  C102     1.0000 0.40143  0.13517  0.42547  Biso   1.000  C
  H68      1.0000 0.39373  0.08697  0.41467  Biso   1.000  H
  C103     1.0000 0.32933  0.10547  0.35917  Biso   1.000  C
  C104     1.0000 0.30613  0.11277  0.32457  Biso   1.000  C
  C105     1.0000 0.25703  0.03907  0.30817  Biso   1.000  C
  H69      1.0000 0.24433  0.98807  0.31807  Biso   1.000  H
  C106     1.0000 0.22663  0.03987  0.27737  Biso   1.000  C
  H70      1.0000 0.19303  0.98947  0.26617  Biso   1.000  H
  N12      1.0000 0.24523  0.11447  0.26293  Biso   1.000  N
  C107     1.0000 0.29433  0.18827  0.27937  Biso   1.000  C
  H71      1.0000 0.30703  0.23917  0.26947  Biso   1.000  H
  C108     1.0000 0.32473  0.18737  0.31017  Biso   1.000  C
  H72      1.0000 0.35833  0.23777  0.32137  Biso   1.000  H
  O37      1.0000 0.29540  0.85240  0.83478  Biso   1.000  O
  O38      1.0000 0.25570  0.89270  0.79088  Biso   1.000  O
  O39      1.0000 0.39260  0.02530  0.70200  Biso   1.000  O
  H73      1.0000 0.53820  0.99250  0.70170  Biso   1.000  H
  C109     1.0000 0.30780  0.88170  0.80627  Biso   1.000  C
  C110     1.0000 0.38790  0.90320  0.79009  Biso   1.000  C
  C111     1.0000 0.40040  0.93190  0.75880  Biso   1.000  C
  H74      1.0000 0.35990  0.93960  0.74800  Biso   1.000  H
  C112     1.0000 0.44280  0.00400  0.69250  Biso   1.000  C
  C113     1.0000 0.47330  0.02720  0.65790  Biso   1.000  C
  C114     1.0000 0.44870  0.07630  0.64150  Biso   1.000  C
  H75      1.0000 0.41040  0.08900  0.65140  Biso   1.000  H
  C115     1.0000 0.47990  0.10670  0.61070  Biso   1.000  C
  H76      1.0000 0.46310  0.14030  0.59950  Biso   1.000  H
  N13      1.0000 0.53590  0.08810  0.59626  Biso   1.000  N
  C116     1.0000 0.56060  0.03900  0.61270  Biso   1.000  C
  H77      1.0000 0.59880  0.02630  0.60280  Biso   1.000  H
  C117     1.0000 0.52930  0.00860  0.64350  Biso   1.000  C
  H78      1.0000 0.54610  0.97500  0.65470  Biso   1.000  H
  O40      1.0000 0.96207  0.18573  0.16811  Biso   1.000  O
  O41      1.0000 0.92237  0.22603  0.12421  Biso   1.000  O
  O42      1.0000 0.05927  0.35863  0.03533  Biso   1.000  O
  H79      1.0000 0.20487  0.32583  0.03503  Biso   1.000  H
  C118     1.0000 0.97447  0.21503  0.13960  Biso   1.000  C
  C119     1.0000 0.05457  0.23653  0.12342  Biso   1.000  C
  C120     1.0000 0.06707  0.26523  0.09213  Biso   1.000  C
  H80      1.0000 0.02657  0.27293  0.08133  Biso   1.000  H
  C121     1.0000 0.10947  0.33733  0.02583  Biso   1.000  C
  C122     1.0000 0.13997  0.36053  0.99123  Biso   1.000  C
  C123     1.0000 0.11537  0.40963  0.97483  Biso   1.000  C
  H81      1.0000 0.07707  0.42233  0.98473  Biso   1.000  H
  C124     1.0000 0.14657  0.44003  0.94403  Biso   1.000  C
  H82      1.0000 0.12977  0.47363  0.93283  Biso   1.000  H
  N14      1.0000 0.20257  0.42143  0.92959  Biso   1.000  N
  C125     1.0000 0.22727  0.37233  0.94603  Biso   1.000  C
  H83      1.0000 0.26547  0.35963  0.93613  Biso   1.000  H
  C126     1.0000 0.19597  0.34193  0.97683  Biso   1.000  C
  H84      1.0000 0.21277  0.30833  0.98803  Biso   1.000  H
  O43      1.0000 0.62873  0.51907  0.50145  Biso   1.000  O
  O44      1.0000 0.58903  0.55937  0.45755  Biso   1.000  O
  O45      1.0000 0.72593  0.69197  0.36867  Biso   1.000  O
  H85      1.0000 0.87153  0.65917  0.36837  Biso   1.000  H
  C127     1.0000 0.64113  0.54837  0.47294  Biso   1.000  C
  C128     1.0000 0.72123  0.56987  0.45676  Biso   1.000  C
  C129     1.0000 0.73373  0.59857  0.42547  Biso   1.000  C
  H86      1.0000 0.69323  0.60627  0.41467  Biso   1.000  H
  C130     1.0000 0.77613  0.67067  0.35917  Biso   1.000  C
  C131     1.0000 0.80663  0.69387  0.32457  Biso   1.000  C
  C132     1.0000 0.78203  0.74297  0.30817  Biso   1.000  C
  H87      1.0000 0.74373  0.75567  0.31807  Biso   1.000  H
  C133     1.0000 0.81323  0.77337  0.27737  Biso   1.000  C
  H88      1.0000 0.79643  0.80697  0.26617  Biso   1.000  H
  N15      1.0000 0.86923  0.75477  0.26293  Biso   1.000  N
  C134     1.0000 0.89393  0.70567  0.27937  Biso   1.000  C
  H89      1.0000 0.93213  0.69297  0.26947  Biso   1.000  H
  C135     1.0000 0.86263  0.67527  0.31017  Biso   1.000  C
  H90      1.0000 0.87943  0.64167  0.32137  Biso   1.000  H
  O46      1.0000 0.55700  0.70460  0.83478  Biso   1.000  O
  O47      1.0000 0.63700  0.74430  0.79088  Biso   1.000  O
  O48      1.0000 0.63270  0.60740  0.70200  Biso   1.000  O
  H91      1.0000 0.45430  0.46180  0.70170  Biso   1.000  H
  C136     1.0000 0.57390  0.69220  0.80627  Biso   1.000  C
  C137     1.0000 0.51530  0.61210  0.79009  Biso   1.000  C
  C138     1.0000 0.53150  0.59960  0.75880  Biso   1.000  C
  H92      1.0000 0.57970  0.64010  0.74800  Biso   1.000  H
  C139     1.0000 0.56120  0.55720  0.69250  Biso   1.000  C
  C140     1.0000 0.55390  0.52670  0.65790  Biso   1.000  C
  C141     1.0000 0.62760  0.55130  0.64150  Biso   1.000  C
  H93      1.0000 0.67860  0.58960  0.65140  Biso   1.000  H
  C142     1.0000 0.62680  0.52010  0.61070  Biso   1.000  C
  H94      1.0000 0.67720  0.53690  0.59950  Biso   1.000  H
  N16      1.0000 0.55220  0.46410  0.59626  Biso   1.000  N
  C143     1.0000 0.47840  0.43940  0.61270  Biso   1.000  C
  H95      1.0000 0.42750  0.40120  0.60280  Biso   1.000  H
  C144     1.0000 0.47930  0.47070  0.64350  Biso   1.000  C
  H96      1.0000 0.42890  0.45390  0.65470  Biso   1.000  H
  O49      1.0000 0.22367  0.03793  0.16811  Biso   1.000  O
  O50      1.0000 0.30367  0.07763  0.12421  Biso   1.000  O
  O51      1.0000 0.29937  0.94073  0.03533  Biso   1.000  O
  H97      1.0000 0.12097  0.79513  0.03503  Biso   1.000  H
  C145     1.0000 0.24057  0.02553  0.13960  Biso   1.000  C
  C146     1.0000 0.18197  0.94543  0.12342  Biso   1.000  C
  C147     1.0000 0.19817  0.93293  0.09213  Biso   1.000  C
  H98      1.0000 0.24637  0.97343  0.08133  Biso   1.000  H
  C148     1.0000 0.22787  0.89053  0.02583  Biso   1.000  C
  C149     1.0000 0.22057  0.86003  0.99123  Biso   1.000  C
  C150     1.0000 0.29427  0.88463  0.97483  Biso   1.000  C
  H99      1.0000 0.34527  0.92293  0.98473  Biso   1.000  H
  C151     1.0000 0.29347  0.85343  0.94403  Biso   1.000  C
  H100     1.0000 0.34387  0.87023  0.93283  Biso   1.000  H
  N17      1.0000 0.21887  0.79743  0.92959  Biso   1.000  N
  C152     1.0000 0.14507  0.77273  0.94603  Biso   1.000  C
  H101     1.0000 0.09417  0.73453  0.93613  Biso   1.000  H
  C153     1.0000 0.14597  0.80403  0.97683  Biso   1.000  C
  H102     1.0000 0.09557  0.78723  0.98803  Biso   1.000  H
  O52      1.0000 0.89033  0.37127  0.50145  Biso   1.000  O
  O53      1.0000 0.97033  0.41097  0.45755  Biso   1.000  O
  O54      1.0000 0.96603  0.27407  0.36867  Biso   1.000  O
  H103     1.0000 0.78763  0.12847  0.36837  Biso   1.000  H
  C154     1.0000 0.90723  0.35887  0.47294  Biso   1.000  C
  C155     1.0000 0.84863  0.27877  0.45676  Biso   1.000  C
  C156     1.0000 0.86483  0.26627  0.42547  Biso   1.000  C
  H104     1.0000 0.91303  0.30677  0.41467  Biso   1.000  H
  C157     1.0000 0.89453  0.22387  0.35917  Biso   1.000  C
  C158     1.0000 0.88723  0.19337  0.32457  Biso   1.000  C
  C159     1.0000 0.96093  0.21797  0.30817  Biso   1.000  C
  H105     1.0000 0.01193  0.25627  0.31807  Biso   1.000  H
  C160     1.0000 0.96013  0.18677  0.27737  Biso   1.000  C
  H106     1.0000 0.01053  0.20357  0.26617  Biso   1.000  H
  N18      1.0000 0.88553  0.13077  0.26293  Biso   1.000  N
  C161     1.0000 0.81173  0.10607  0.27937  Biso   1.000  C
  H107     1.0000 0.76083  0.06787  0.26947  Biso   1.000  H
  C162     1.0000 0.81263  0.13737  0.31017  Biso   1.000  C
  H108     1.0000 0.76223  0.12057  0.32137  Biso   1.000  H
  O55      1.0000 0.55700  0.85240  0.83478  Biso   1.000  O
  O56      1.0000 0.63700  0.89270  0.79088  Biso   1.000  O
  O57      1.0000 0.63270  0.02530  0.70200  Biso   1.000  O
  H109     1.0000 0.45430  0.99250  0.70170  Biso   1.000  H
  C163     1.0000 0.57390  0.88170  0.80627  Biso   1.000  C
  C164     1.0000 0.51530  0.90320  0.79009  Biso   1.000  C
  C165     1.0000 0.53150  0.93190  0.75880  Biso   1.000  C
  H110     1.0000 0.57970  0.93960  0.74800  Biso   1.000  H
  C166     1.0000 0.56120  0.00400  0.69250  Biso   1.000  C
  C167     1.0000 0.55390  0.02720  0.65790  Biso   1.000  C
  C168     1.0000 0.62760  0.07630  0.64150  Biso   1.000  C
  H111     1.0000 0.67860  0.08900  0.65140  Biso   1.000  H
  C169     1.0000 0.62680  0.10670  0.61070  Biso   1.000  C
  H112     1.0000 0.67720  0.14030  0.59950  Biso   1.000  H
  N19      1.0000 0.55220  0.08810  0.59626  Biso   1.000  N
  C170     1.0000 0.47840  0.03900  0.61270  Biso   1.000  C
  H113     1.0000 0.42750  0.02630  0.60280  Biso   1.000  H
  C171     1.0000 0.47930  0.00860  0.64350  Biso   1.000  C
  H114     1.0000 0.42890  0.97500  0.65470  Biso   1.000  H
  O58      1.0000 0.22367  0.18573  0.16811  Biso   1.000  O
  O59      1.0000 0.30367  0.22603  0.12421  Biso   1.000  O
  O60      1.0000 0.29937  0.35863  0.03533  Biso   1.000  O
  H115     1.0000 0.12097  0.32583  0.03503  Biso   1.000  H
  C172     1.0000 0.24057  0.21503  0.13960  Biso   1.000  C
  C173     1.0000 0.18197  0.23653  0.12342  Biso   1.000  C
  C174     1.0000 0.19817  0.26523  0.09213  Biso   1.000  C
  H116     1.0000 0.24637  0.27293  0.08133  Biso   1.000  H
  C175     1.0000 0.22787  0.33733  0.02583  Biso   1.000  C
  C176     1.0000 0.22057  0.36053  0.99123  Biso   1.000  C
  C177     1.0000 0.29427  0.40963  0.97483  Biso   1.000  C
  H117     1.0000 0.34527  0.42233  0.98473  Biso   1.000  H
  C178     1.0000 0.29347  0.44003  0.94403  Biso   1.000  C
  H118     1.0000 0.34387  0.47363  0.93283  Biso   1.000  H
  N20      1.0000 0.21887  0.42143  0.92959  Biso   1.000  N
  C179     1.0000 0.14507  0.37233  0.94603  Biso   1.000  C
  H119     1.0000 0.09417  0.35963  0.93613  Biso   1.000  H
  C180     1.0000 0.14597  0.34193  0.97683  Biso   1.000  C
  H120     1.0000 0.09557  0.30833  0.98803  Biso   1.000  H
  O61      1.0000 0.89033  0.51907  0.50145  Biso   1.000  O
  O62      1.0000 0.97033  0.55937  0.45755  Biso   1.000  O
  O63      1.0000 0.96603  0.69197  0.36867  Biso   1.000  O
  H121     1.0000 0.78763  0.65917  0.36837  Biso   1.000  H
  C181     1.0000 0.90723  0.54837  0.47294  Biso   1.000  C
  C182     1.0000 0.84863  0.56987  0.45676  Biso   1.000  C
  C183     1.0000 0.86483  0.59857  0.42547  Biso   1.000  C
  H122     1.0000 0.91303  0.60627  0.41467  Biso   1.000  H
  C184     1.0000 0.89453  0.67067  0.35917  Biso   1.000  C
  C185     1.0000 0.88723  0.69387  0.32457  Biso   1.000  C
  C186     1.0000 0.96093  0.74297  0.30817  Biso   1.000  C
  H123     1.0000 0.01193  0.75567  0.31807  Biso   1.000  H
  C187     1.0000 0.96013  0.77337  0.27737  Biso   1.000  C
  H124     1.0000 0.01053  0.80697  0.26617  Biso   1.000  H
  N21      1.0000 0.88553  0.75477  0.26293  Biso   1.000  N
  C188     1.0000 0.81173  0.70567  0.27937  Biso   1.000  C
  H125     1.0000 0.76083  0.69297  0.26947  Biso   1.000  H
  C189     1.0000 0.81263  0.67527  0.31017  Biso   1.000  C
  H126     1.0000 0.76223  0.64167  0.32137  Biso   1.000  H
  O64      1.0000 0.14760  0.70460  0.83478  Biso   1.000  O
  O65      1.0000 0.10730  0.74430  0.79088  Biso   1.000  O
  O66      1.0000 0.97470  0.60740  0.70200  Biso   1.000  O
  H127     1.0000 0.00750  0.46180  0.70170  Biso   1.000  H
  C190     1.0000 0.11830  0.69220  0.80627  Biso   1.000  C
  C191     1.0000 0.09680  0.61210  0.79009  Biso   1.000  C
  C192     1.0000 0.06810  0.59960  0.75880  Biso   1.000  C
  H128     1.0000 0.06040  0.64010  0.74800  Biso   1.000  H
  C193     1.0000 0.99600  0.55720  0.69250  Biso   1.000  C
  C194     1.0000 0.97280  0.52670  0.65790  Biso   1.000  C
  C195     1.0000 0.92370  0.55130  0.64150  Biso   1.000  C
  H129     1.0000 0.91100  0.58960  0.65140  Biso   1.000  H
  C196     1.0000 0.89330  0.52010  0.61070  Biso   1.000  C
  H130     1.0000 0.85970  0.53690  0.59950  Biso   1.000  H
  N22      1.0000 0.91190  0.46410  0.59626  Biso   1.000  N
  C197     1.0000 0.96100  0.43940  0.61270  Biso   1.000  C
  H131     1.0000 0.97370  0.40120  0.60280  Biso   1.000  H
  C198     1.0000 0.99140  0.47070  0.64350  Biso   1.000  C
  H132     1.0000 0.02500  0.45390  0.65470  Biso   1.000  H
  O67      1.0000 0.81427  0.03793  0.16811  Biso   1.000  O
  O68      1.0000 0.77397  0.07763  0.12421  Biso   1.000  O
  O69      1.0000 0.64137  0.94073  0.03533  Biso   1.000  O
  H133     1.0000 0.67417  0.79513  0.03503  Biso   1.000  H
  C199     1.0000 0.78497  0.02553  0.13960  Biso   1.000  C
  C200     1.0000 0.76347  0.94543  0.12342  Biso   1.000  C
  C201     1.0000 0.73477  0.93293  0.09213  Biso   1.000  C
  H134     1.0000 0.72707  0.97343  0.08133  Biso   1.000  H
  C202     1.0000 0.66267  0.89053  0.02583  Biso   1.000  C
  C203     1.0000 0.63947  0.86003  0.99123  Biso   1.000  C
  C204     1.0000 0.59037  0.88463  0.97483  Biso   1.000  C
  H135     1.0000 0.57767  0.92293  0.98473  Biso   1.000  H
  C205     1.0000 0.55997  0.85343  0.94403  Biso   1.000  C
  H136     1.0000 0.52637  0.87023  0.93283  Biso   1.000  H
  N23      1.0000 0.57857  0.79743  0.92959  Biso   1.000  N
  C206     1.0000 0.62767  0.77273  0.94603  Biso   1.000  C
  H137     1.0000 0.64037  0.73453  0.93613  Biso   1.000  H
  C207     1.0000 0.65807  0.80403  0.97683  Biso   1.000  C
  H138     1.0000 0.69167  0.78723  0.98803  Biso   1.000  H
  O70      1.0000 0.48093  0.37127  0.50145  Biso   1.000  O
  O71      1.0000 0.44063  0.41097  0.45755  Biso   1.000  O
  O72      1.0000 0.30803  0.27407  0.36867  Biso   1.000  O
  H139     1.0000 0.34083  0.12847  0.36837  Biso   1.000  H
  C208     1.0000 0.45163  0.35887  0.47294  Biso   1.000  C
  C209     1.0000 0.43013  0.27877  0.45676  Biso   1.000  C
  C210     1.0000 0.40143  0.26627  0.42547  Biso   1.000  C
  H140     1.0000 0.39373  0.30677  0.41467  Biso   1.000  H
  C211     1.0000 0.32933  0.22387  0.35917  Biso   1.000  C
  C212     1.0000 0.30613  0.19337  0.32457  Biso   1.000  C
  C213     1.0000 0.25703  0.21797  0.30817  Biso   1.000  C
  H141     1.0000 0.24433  0.25627  0.31807  Biso   1.000  H
  C214     1.0000 0.22663  0.18677  0.27737  Biso   1.000  C
  H142     1.0000 0.19303  0.20357  0.26617  Biso   1.000  H
  N24      1.0000 0.24523  0.13077  0.26293  Biso   1.000  N
  C215     1.0000 0.29433  0.10607  0.27937  Biso   1.000  C
  H143     1.0000 0.30703  0.06787  0.26947  Biso   1.000  H
  C216     1.0000 0.32473  0.13737  0.31017  Biso   1.000  C
  H144     1.0000 0.35833  0.12057  0.32137  Biso   1.000  H
  O73      1.0000 0.29540  0.44300  0.83478  Biso   1.000  O
  O74      1.0000 0.25570  0.36300  0.79088  Biso   1.000  O
  O75      1.0000 0.39260  0.36730  0.70200  Biso   1.000  O
  H145     1.0000 0.53820  0.54570  0.70170  Biso   1.000  H
  C217     1.0000 0.30780  0.42610  0.80627  Biso   1.000  C
  C218     1.0000 0.38790  0.48470  0.79009  Biso   1.000  C
  C219     1.0000 0.40040  0.46850  0.75880  Biso   1.000  C
  H146     1.0000 0.35990  0.42030  0.74800  Biso   1.000  H
  C220     1.0000 0.44280  0.43880  0.69250  Biso   1.000  C
  C221     1.0000 0.47330  0.44610  0.65790  Biso   1.000  C
  C222     1.0000 0.44870  0.37240  0.64150  Biso   1.000  C
  H147     1.0000 0.41040  0.32140  0.65140  Biso   1.000  H
  C223     1.0000 0.47990  0.37320  0.61070  Biso   1.000  C
  H148     1.0000 0.46310  0.32280  0.59950  Biso   1.000  H
  N25      1.0000 0.53590  0.44780  0.59626  Biso   1.000  N
  C224     1.0000 0.56060  0.52160  0.61270  Biso   1.000  C
  H149     1.0000 0.59880  0.57250  0.60280  Biso   1.000  H
  C225     1.0000 0.52930  0.52070  0.64350  Biso   1.000  C
  H150     1.0000 0.54610  0.57110  0.65470  Biso   1.000  H
  O76      1.0000 0.96207  0.77633  0.16811  Biso   1.000  O
  O77      1.0000 0.92237  0.69633  0.12421  Biso   1.000  O
  O78      1.0000 0.05927  0.70063  0.03533  Biso   1.000  O
  H151     1.0000 0.20487  0.87903  0.03503  Biso   1.000  H
  C226     1.0000 0.97447  0.75943  0.13960  Biso   1.000  C
  C227     1.0000 0.05457  0.81803  0.12342  Biso   1.000  C
  C228     1.0000 0.06707  0.80183  0.09213  Biso   1.000  C
  H152     1.0000 0.02657  0.75363  0.08133  Biso   1.000  H
  C229     1.0000 0.10947  0.77213  0.02583  Biso   1.000  C
  C230     1.0000 0.13997  0.77943  0.99123  Biso   1.000  C
  C231     1.0000 0.11537  0.70573  0.97483  Biso   1.000  C
  H153     1.0000 0.07707  0.65473  0.98473  Biso   1.000  H
  C232     1.0000 0.14657  0.70653  0.94403  Biso   1.000  C
  H154     1.0000 0.12977  0.65613  0.93283  Biso   1.000  H
  N26      1.0000 0.20257  0.78113  0.92959  Biso   1.000  N
  C233     1.0000 0.22727  0.85493  0.94603  Biso   1.000  C
  H155     1.0000 0.26547  0.90583  0.93613  Biso   1.000  H
  C234     1.0000 0.19597  0.85403  0.97683  Biso   1.000  C
  H156     1.0000 0.21277  0.90443  0.98803  Biso   1.000  H
  O79      1.0000 0.62873  0.10967  0.50145  Biso   1.000  O
  O80      1.0000 0.58903  0.02967  0.45755  Biso   1.000  O
  O81      1.0000 0.72593  0.03397  0.36867  Biso   1.000  O
  H157     1.0000 0.87153  0.21237  0.36837  Biso   1.000  H
  C235     1.0000 0.64113  0.09277  0.47294  Biso   1.000  C
  C236     1.0000 0.72123  0.15137  0.45676  Biso   1.000  C
  C237     1.0000 0.73373  0.13517  0.42547  Biso   1.000  C
  H158     1.0000 0.69323  0.08697  0.41467  Biso   1.000  H
  C238     1.0000 0.77613  0.10547  0.35917  Biso   1.000  C
  C239     1.0000 0.80663  0.11277  0.32457  Biso   1.000  C
  C240     1.0000 0.78203  0.03907  0.30817  Biso   1.000  C
  H159     1.0000 0.74373  0.98807  0.31807  Biso   1.000  H
  C241     1.0000 0.81323  0.03987  0.27737  Biso   1.000  C
  H160     1.0000 0.79643  0.98947  0.26617  Biso   1.000  H
  N27      1.0000 0.86923  0.11447  0.26293  Biso   1.000  N
  C242     1.0000 0.89393  0.18827  0.27937  Biso   1.000  C
  H161     1.0000 0.93213  0.23917  0.26947  Biso   1.000  H
  C243     1.0000 0.86263  0.18737  0.31017  Biso   1.000  C
  H162     1.0000 0.87943  0.23777  0.32137  Biso   1.000  H
  O82      1.0000 0.85240  0.55700  0.16522  Biso   1.000  O
  O83      1.0000 0.89270  0.63700  0.20912  Biso   1.000  O
  O84      1.0000 0.02530  0.63270  0.29800  Biso   1.000  O
  H163     1.0000 0.99250  0.45430  0.29830  Biso   1.000  H
  C244     1.0000 0.88170  0.57390  0.19373  Biso   1.000  C
  C245     1.0000 0.90320  0.51530  0.20991  Biso   1.000  C
  C246     1.0000 0.93190  0.53150  0.24120  Biso   1.000  C
  H164     1.0000 0.93960  0.57970  0.25200  Biso   1.000  H
  C247     1.0000 0.00400  0.56120  0.30750  Biso   1.000  C
  C248     1.0000 0.02720  0.55390  0.34210  Biso   1.000  C
  C249     1.0000 0.07630  0.62760  0.35850  Biso   1.000  C
  H165     1.0000 0.08900  0.67860  0.34860  Biso   1.000  H
  C250     1.0000 0.10670  0.62680  0.38930  Biso   1.000  C
  H166     1.0000 0.14030  0.67720  0.40050  Biso   1.000  H
  N28      1.0000 0.08810  0.55220  0.40374  Biso   1.000  N
  C251     1.0000 0.03900  0.47840  0.38730  Biso   1.000  C
  H167     1.0000 0.02630  0.42750  0.39720  Biso   1.000  H
  C252     1.0000 0.00860  0.47930  0.35650  Biso   1.000  C
  H168     1.0000 0.97500  0.42890  0.34530  Biso   1.000  H
  O85      1.0000 0.51907  0.89033  0.49855  Biso   1.000  O
  O86      1.0000 0.55937  0.97033  0.54245  Biso   1.000  O
  O87      1.0000 0.69197  0.96603  0.63133  Biso   1.000  O
  H169     1.0000 0.65917  0.78763  0.63163  Biso   1.000  H
  C253     1.0000 0.54837  0.90723  0.52706  Biso   1.000  C
  C254     1.0000 0.56987  0.84863  0.54324  Biso   1.000  C
  C255     1.0000 0.59857  0.86483  0.57453  Biso   1.000  C
  H170     1.0000 0.60627  0.91303  0.58533  Biso   1.000  H
  C256     1.0000 0.67067  0.89453  0.64083  Biso   1.000  C
  C257     1.0000 0.69387  0.88723  0.67543  Biso   1.000  C
  C258     1.0000 0.74297  0.96093  0.69183  Biso   1.000  C
  H171     1.0000 0.75567  0.01193  0.68193  Biso   1.000  H
  C259     1.0000 0.77337  0.96013  0.72263  Biso   1.000  C
  H172     1.0000 0.80697  0.01053  0.73383  Biso   1.000  H
  N29      1.0000 0.75477  0.88553  0.73707  Biso   1.000  N
  C260     1.0000 0.70567  0.81173  0.72063  Biso   1.000  C
  H173     1.0000 0.69297  0.76083  0.73053  Biso   1.000  H
  C261     1.0000 0.67527  0.81263  0.68983  Biso   1.000  C
  H174     1.0000 0.64167  0.76223  0.67863  Biso   1.000  H
  O88      1.0000 0.18573  0.22367  0.83189  Biso   1.000  O
  O89      1.0000 0.22603  0.30367  0.87579  Biso   1.000  O
  O90      1.0000 0.35863  0.29937  0.96467  Biso   1.000  O
  H175     1.0000 0.32583  0.12097  0.96497  Biso   1.000  H
  C262     1.0000 0.21503  0.24057  0.86040  Biso   1.000  C
  C263     1.0000 0.23653  0.18197  0.87658  Biso   1.000  C
  C264     1.0000 0.26523  0.19817  0.90787  Biso   1.000  C
  H176     1.0000 0.27293  0.24637  0.91867  Biso   1.000  H
  C265     1.0000 0.33733  0.22787  0.97417  Biso   1.000  C
  C266     1.0000 0.36053  0.22057  0.00877  Biso   1.000  C
  C267     1.0000 0.40963  0.29427  0.02517  Biso   1.000  C
  H177     1.0000 0.42233  0.34527  0.01527  Biso   1.000  H
  C268     1.0000 0.44003  0.29347  0.05597  Biso   1.000  C
  H178     1.0000 0.47363  0.34387  0.06717  Biso   1.000  H
  N30      1.0000 0.42143  0.21887  0.07041  Biso   1.000  N
  C269     1.0000 0.37233  0.14507  0.05397  Biso   1.000  C
  H179     1.0000 0.35963  0.09417  0.06387  Biso   1.000  H
  C270     1.0000 0.34193  0.14597  0.02317  Biso   1.000  C
  H180     1.0000 0.30833  0.09557  0.01197  Biso   1.000  H
  O91      1.0000 0.70460  0.14760  0.16522  Biso   1.000  O
  O92      1.0000 0.74430  0.10730  0.20912  Biso   1.000  O
  O93      1.0000 0.60740  0.97470  0.29800  Biso   1.000  O
  H181     1.0000 0.46180  0.00750  0.29830  Biso   1.000  H
  C271     1.0000 0.69220  0.11830  0.19373  Biso   1.000  C
  C272     1.0000 0.61210  0.09680  0.20991  Biso   1.000  C
  C273     1.0000 0.59960  0.06810  0.24120  Biso   1.000  C
  H182     1.0000 0.64010  0.06040  0.25200  Biso   1.000  H
  C274     1.0000 0.55720  0.99600  0.30750  Biso   1.000  C
  C275     1.0000 0.52670  0.97280  0.34210  Biso   1.000  C
  C276     1.0000 0.55130  0.92370  0.35850  Biso   1.000  C
  H183     1.0000 0.58960  0.91100  0.34860  Biso   1.000  H
  C277     1.0000 0.52010  0.89330  0.38930  Biso   1.000  C
  H184     1.0000 0.53690  0.85970  0.40050  Biso   1.000  H
  N31      1.0000 0.46410  0.91190  0.40374  Biso   1.000  N
  C278     1.0000 0.43940  0.96100  0.38730  Biso   1.000  C
  H185     1.0000 0.40120  0.97370  0.39720  Biso   1.000  H
  C279     1.0000 0.47070  0.99140  0.35650  Biso   1.000  C
  H186     1.0000 0.45390  0.02500  0.34530  Biso   1.000  H
  O94      1.0000 0.37127  0.48093  0.49855  Biso   1.000  O
  O95      1.0000 0.41097  0.44063  0.54245  Biso   1.000  O
  O96      1.0000 0.27407  0.30803  0.63133  Biso   1.000  O
  H187     1.0000 0.12847  0.34083  0.63163  Biso   1.000  H
  C280     1.0000 0.35887  0.45163  0.52706  Biso   1.000  C
  C281     1.0000 0.27877  0.43013  0.54324  Biso   1.000  C
  C282     1.0000 0.26627  0.40143  0.57453  Biso   1.000  C
  H188     1.0000 0.30677  0.39373  0.58533  Biso   1.000  H
  C283     1.0000 0.22387  0.32933  0.64083  Biso   1.000  C
  C284     1.0000 0.19337  0.30613  0.67543  Biso   1.000  C
  C285     1.0000 0.21797  0.25703  0.69183  Biso   1.000  C
  H189     1.0000 0.25627  0.24433  0.68193  Biso   1.000  H
  C286     1.0000 0.18677  0.22663  0.72263  Biso   1.000  C
  H190     1.0000 0.20357  0.19303  0.73383  Biso   1.000  H
  N32      1.0000 0.13077  0.24523  0.73707  Biso   1.000  N
  C287     1.0000 0.10607  0.29433  0.72063  Biso   1.000  C
  H191     1.0000 0.06787  0.30703  0.73053  Biso   1.000  H
  C288     1.0000 0.13737  0.32473  0.68983  Biso   1.000  C
  H192     1.0000 0.12057  0.35833  0.67863  Biso   1.000  H
  O97      1.0000 0.03793  0.81427  0.83189  Biso   1.000  O
  O98      1.0000 0.07763  0.77397  0.87579  Biso   1.000  O
  O99      1.0000 0.94073  0.64137  0.96467  Biso   1.000  O
  H193     1.0000 0.79513  0.67417  0.96497  Biso   1.000  H
  C289     1.0000 0.02553  0.78497  0.86040  Biso   1.000  C
  C290     1.0000 0.94543  0.76347  0.87658  Biso   1.000  C
  C291     1.0000 0.93293  0.73477  0.90787  Biso   1.000  C
  H194     1.0000 0.97343  0.72707  0.91867  Biso   1.000  H
  C292     1.0000 0.89053  0.66267  0.97417  Biso   1.000  C
  C293     1.0000 0.86003  0.63947  0.00877  Biso   1.000  C
  C294     1.0000 0.88463  0.59037  0.02517  Biso   1.000  C
  H195     1.0000 0.92293  0.57767  0.01527  Biso   1.000  H
  C295     1.0000 0.85343  0.55997  0.05597  Biso   1.000  C
  H196     1.0000 0.87023  0.52637  0.06717  Biso   1.000  H
  N33      1.0000 0.79743  0.57857  0.07041  Biso   1.000  N
  C296     1.0000 0.77273  0.62767  0.05397  Biso   1.000  C
  H197     1.0000 0.73453  0.64037  0.06387  Biso   1.000  H
  C297     1.0000 0.80403  0.65807  0.02317  Biso   1.000  C
  H198     1.0000 0.78723  0.69167  0.01197  Biso   1.000  H
  O100     1.0000 0.44300  0.29540  0.16522  Biso   1.000  O
  O101     1.0000 0.36300  0.25570  0.20912  Biso   1.000  O
  O102     1.0000 0.36730  0.39260  0.29800  Biso   1.000  O
  H199     1.0000 0.54570  0.53820  0.29830  Biso   1.000  H
  C298     1.0000 0.42610  0.30780  0.19373  Biso   1.000  C
  C299     1.0000 0.48470  0.38790  0.20991  Biso   1.000  C
  C300     1.0000 0.46850  0.40040  0.24120  Biso   1.000  C
  H200     1.0000 0.42030  0.35990  0.25200  Biso   1.000  H
  C301     1.0000 0.43880  0.44280  0.30750  Biso   1.000  C
  C302     1.0000 0.44610  0.47330  0.34210  Biso   1.000  C
  C303     1.0000 0.37240  0.44870  0.35850  Biso   1.000  C
  H201     1.0000 0.32140  0.41040  0.34860  Biso   1.000  H
  C304     1.0000 0.37320  0.47990  0.38930  Biso   1.000  C
  H202     1.0000 0.32280  0.46310  0.40050  Biso   1.000  H
  N34      1.0000 0.44780  0.53590  0.40374  Biso   1.000  N
  C305     1.0000 0.52160  0.56060  0.38730  Biso   1.000  C
  H203     1.0000 0.57250  0.59880  0.39720  Biso   1.000  H
  C306     1.0000 0.52070  0.52930  0.35650  Biso   1.000  C
  H204     1.0000 0.57110  0.54610  0.34530  Biso   1.000  H
  O103     1.0000 0.10967  0.62873  0.49855  Biso   1.000  O
  O104     1.0000 0.02967  0.58903  0.54245  Biso   1.000  O
  O105     1.0000 0.03397  0.72593  0.63133  Biso   1.000  O
  H205     1.0000 0.21237  0.87153  0.63163  Biso   1.000  H
  C307     1.0000 0.09277  0.64113  0.52706  Biso   1.000  C
  C308     1.0000 0.15137  0.72123  0.54324  Biso   1.000  C
  C309     1.0000 0.13517  0.73373  0.57453  Biso   1.000  C
  H206     1.0000 0.08697  0.69323  0.58533  Biso   1.000  H
  C310     1.0000 0.10547  0.77613  0.64083  Biso   1.000  C
  C311     1.0000 0.11277  0.80663  0.67543  Biso   1.000  C
  C312     1.0000 0.03907  0.78203  0.69183  Biso   1.000  C
  H207     1.0000 0.98807  0.74373  0.68193  Biso   1.000  H
  C313     1.0000 0.03987  0.81323  0.72263  Biso   1.000  C
  H208     1.0000 0.98947  0.79643  0.73383  Biso   1.000  H
  N35      1.0000 0.11447  0.86923  0.73707  Biso   1.000  N
  C314     1.0000 0.18827  0.89393  0.72063  Biso   1.000  C
  H209     1.0000 0.23917  0.93213  0.73053  Biso   1.000  H
  C315     1.0000 0.18737  0.86263  0.68983  Biso   1.000  C
  H210     1.0000 0.23777  0.87943  0.67863  Biso   1.000  H
  O106     1.0000 0.77633  0.96207  0.83189  Biso   1.000  O
  O107     1.0000 0.69633  0.92237  0.87579  Biso   1.000  O
  O108     1.0000 0.70063  0.05927  0.96467  Biso   1.000  O
  H211     1.0000 0.87903  0.20487  0.96497  Biso   1.000  H
  C316     1.0000 0.75943  0.97447  0.86040  Biso   1.000  C
  C317     1.0000 0.81803  0.05457  0.87658  Biso   1.000  C
  C318     1.0000 0.80183  0.06707  0.90787  Biso   1.000  C
  H212     1.0000 0.75363  0.02657  0.91867  Biso   1.000  H
  C319     1.0000 0.77213  0.10947  0.97417  Biso   1.000  C
  C320     1.0000 0.77943  0.13997  0.00877  Biso   1.000  C
  C321     1.0000 0.70573  0.11537  0.02517  Biso   1.000  C
  H213     1.0000 0.65473  0.07707  0.01527  Biso   1.000  H
  C322     1.0000 0.70653  0.14657  0.05597  Biso   1.000  C
  H214     1.0000 0.65613  0.12977  0.06717  Biso   1.000  H
  N36      1.0000 0.78113  0.20257  0.07041  Biso   1.000  N
  C323     1.0000 0.85493  0.22727  0.05397  Biso   1.000  C
  H215     1.0000 0.90583  0.26547  0.06387  Biso   1.000  H
  C324     1.0000 0.85403  0.19597  0.02317  Biso   1.000  C
  H216     1.0000 0.90443  0.21277  0.01197  Biso   1.000  H
  Co1      1.0000 0.38660  0.19330  0.13821  Biso   1.000  Co
  Co2      1.0000 0.05327  0.52663  0.47154  Biso   1.000  Co
  Co3      1.0000 0.71993  0.85997  0.80488  Biso   1.000  Co
  Co4      1.0000 0.80670  0.19330  0.13821  Biso   1.000  Co
  Co5      1.0000 0.47337  0.52663  0.47154  Biso   1.000  Co
  Co6      1.0000 0.14003  0.85997  0.80488  Biso   1.000  Co
  Co7      1.0000 0.80670  0.61340  0.13821  Biso   1.000  Co
  Co8      1.0000 0.47337  0.94673  0.47154  Biso   1.000  Co
  Co9      1.0000 0.14003  0.28007  0.80488  Biso   1.000  Co
  Co10     1.0000 0.19330  0.38660  0.86179  Biso   1.000  Co
  Co11     1.0000 0.85997  0.71993  0.19512  Biso   1.000  Co
  Co12     1.0000 0.52663  0.05327  0.52846  Biso   1.000  Co
  Co13     1.0000 0.19330  0.80670  0.86179  Biso   1.000  Co
  Co14     1.0000 0.85997  0.14003  0.19512  Biso   1.000  Co
  Co15     1.0000 0.52663  0.47337  0.52846  Biso   1.000  Co
  Co16     1.0000 0.61340  0.80670  0.86179  Biso   1.000  Co
  Co17     1.0000 0.28007  0.14003  0.19512  Biso   1.000  Co
  Co18     1.0000 0.94673  0.47337  0.52846  Biso   1.000  Co
  O109     1.0000 0.43935  0.87870  0.43154  Biso   1.000  O
  N37      1.0000 0.50815  0.01630  0.28930  Biso   1.000  N
  C325     1.0000 0.55640  0.11280  0.19460  Biso   1.000  C
  H217     1.0000 0.56765  0.13530  0.17320  Biso   1.000  H
  C326     1.0000 0.52480  0.04960  0.25750  Biso   1.000  C
  O110     1.0000 0.10602  0.21203  0.76487  Biso   1.000  O
  N38      1.0000 0.17482  0.34963  0.62263  Biso   1.000  N
  C327     1.0000 0.22307  0.44613  0.52793  Biso   1.000  C
  H218     1.0000 0.23432  0.46863  0.50653  Biso   1.000  H
  C328     1.0000 0.19147  0.38293  0.59083  Biso   1.000  C
  O111     1.0000 0.77268  0.54537  0.09821  Biso   1.000  O
  N39      1.0000 0.84148  0.68297  0.95597  Biso   1.000  N
  C329     1.0000 0.88973  0.77947  0.86127  Biso   1.000  C
  H219     1.0000 0.90098  0.80197  0.83987  Biso   1.000  H
  C330     1.0000 0.85813  0.71627  0.92417  Biso   1.000  C
  O112     1.0000 0.12130  0.56065  0.43154  Biso   1.000  O
  N40      1.0000 0.98370  0.49185  0.28930  Biso   1.000  N
  C331     1.0000 0.88720  0.44360  0.19460  Biso   1.000  C
  H220     1.0000 0.86470  0.43235  0.17320  Biso   1.000  H
  C332     1.0000 0.95040  0.47520  0.25750  Biso   1.000  C
  O113     1.0000 0.78797  0.89398  0.76487  Biso   1.000  O
  N41      1.0000 0.65037  0.82518  0.62263  Biso   1.000  N
  C333     1.0000 0.55387  0.77693  0.52793  Biso   1.000  C
  H221     1.0000 0.53137  0.76568  0.50653  Biso   1.000  H
  C334     1.0000 0.61707  0.80853  0.59083  Biso   1.000  C
  O114     1.0000 0.45463  0.22732  0.09821  Biso   1.000  O
  N42      1.0000 0.31703  0.15852  0.95597  Biso   1.000  N
  C335     1.0000 0.22053  0.11027  0.86127  Biso   1.000  C
  H222     1.0000 0.19803  0.09902  0.83987  Biso   1.000  H
  C336     1.0000 0.28373  0.14187  0.92417  Biso   1.000  C
  O115     1.0000 0.43935  0.56065  0.43154  Biso   1.000  O
  N43      1.0000 0.50815  0.49185  0.28930  Biso   1.000  N
  C337     1.0000 0.55640  0.44360  0.19460  Biso   1.000  C
  H223     1.0000 0.56765  0.43235  0.17320  Biso   1.000  H
  C338     1.0000 0.52480  0.47520  0.25750  Biso   1.000  C
  O116     1.0000 0.10602  0.89398  0.76487  Biso   1.000  O
  N44      1.0000 0.17482  0.82518  0.62263  Biso   1.000  N
  C339     1.0000 0.22307  0.77693  0.52793  Biso   1.000  C
  H224     1.0000 0.23432  0.76568  0.50653  Biso   1.000  H
  C340     1.0000 0.19147  0.80853  0.59083  Biso   1.000  C
  O117     1.0000 0.77268  0.22732  0.09821  Biso   1.000  O
  N45      1.0000 0.84148  0.15852  0.95597  Biso   1.000  N
  C341     1.0000 0.88973  0.11027  0.86127  Biso   1.000  C
  H225     1.0000 0.90098  0.09902  0.83987  Biso   1.000  H
  C342     1.0000 0.85813  0.14187  0.92417  Biso   1.000  C
  O118     1.0000 0.87870  0.43935  0.56846  Biso   1.000  O
  N46      1.0000 0.01630  0.50815  0.71070  Biso   1.000  N
  C343     1.0000 0.11280  0.55640  0.80540  Biso   1.000  C
  H226     1.0000 0.13530  0.56765  0.82680  Biso   1.000  H
  C344     1.0000 0.04960  0.52480  0.74250  Biso   1.000  C
  O119     1.0000 0.54537  0.77268  0.90179  Biso   1.000  O
  N47      1.0000 0.68297  0.84148  0.04403  Biso   1.000  N
  C345     1.0000 0.77947  0.88973  0.13873  Biso   1.000  C
  H227     1.0000 0.80197  0.90098  0.16013  Biso   1.000  H
  C346     1.0000 0.71627  0.85813  0.07583  Biso   1.000  C
  O120     1.0000 0.21203  0.10602  0.23513  Biso   1.000  O
  N48      1.0000 0.34963  0.17482  0.37737  Biso   1.000  N
  C347     1.0000 0.44613  0.22307  0.47207  Biso   1.000  C
  H228     1.0000 0.46863  0.23432  0.49347  Biso   1.000  H
  C348     1.0000 0.38293  0.19147  0.40917  Biso   1.000  C
  O121     1.0000 0.56065  0.12130  0.56846  Biso   1.000  O
  N49      1.0000 0.49185  0.98370  0.71070  Biso   1.000  N
  C349     1.0000 0.44360  0.88720  0.80540  Biso   1.000  C
  H229     1.0000 0.43235  0.86470  0.82680  Biso   1.000  H
  C350     1.0000 0.47520  0.95040  0.74250  Biso   1.000  C
  O122     1.0000 0.22732  0.45463  0.90179  Biso   1.000  O
  N50      1.0000 0.15852  0.31703  0.04403  Biso   1.000  N
  C351     1.0000 0.11027  0.22053  0.13873  Biso   1.000  C
  H230     1.0000 0.09902  0.19803  0.16013  Biso   1.000  H
  C352     1.0000 0.14187  0.28373  0.07583  Biso   1.000  C
  O123     1.0000 0.89398  0.78797  0.23513  Biso   1.000  O
  N51      1.0000 0.82518  0.65037  0.37737  Biso   1.000  N
  C353     1.0000 0.77693  0.55387  0.47207  Biso   1.000  C
  H231     1.0000 0.76568  0.53137  0.49347  Biso   1.000  H
  C354     1.0000 0.80853  0.61707  0.40917  Biso   1.000  C
  O124     1.0000 0.56065  0.43935  0.56846  Biso   1.000  O
  N52      1.0000 0.49185  0.50815  0.71070  Biso   1.000  N
  C355     1.0000 0.44360  0.55640  0.80540  Biso   1.000  C
  H232     1.0000 0.43235  0.56765  0.82680  Biso   1.000  H
  C356     1.0000 0.47520  0.52480  0.74250  Biso   1.000  C
  O125     1.0000 0.22732  0.77268  0.90179  Biso   1.000  O
  N53      1.0000 0.15852  0.84148  0.04403  Biso   1.000  N
  C357     1.0000 0.11027  0.88973  0.13873  Biso   1.000  C
  H233     1.0000 0.09902  0.90098  0.16013  Biso   1.000  H
  C358     1.0000 0.14187  0.85813  0.07583  Biso   1.000  C
  O126     1.0000 0.89398  0.10602  0.23513  Biso   1.000  O
  N54      1.0000 0.82518  0.17482  0.37737  Biso   1.000  N
  C359     1.0000 0.77693  0.22307  0.47207  Biso   1.000  C
  H234     1.0000 0.76568  0.23432  0.49347  Biso   1.000  H
  C360     1.0000 0.80853  0.19147  0.40917  Biso   1.000  C
