data_image0
_cell_length_a       18.7376
_cell_length_b       18.7376
_cell_length_c       40.9892
_cell_angle_alpha    90
_cell_angle_beta     90
_cell_angle_gamma    120

_symmetry_space_group_name_H-M    "P 1"
_symmetry_int_tables_number       1

loop_
  _symmetry_equiv_pos_as_xyz
  'x, y, z'

loop_
  _atom_site_label
  _atom_site_occupancy
  _atom_site_fract_x
  _atom_site_fract_y
  _atom_site_fract_z
  _atom_site_thermal_displace_type
  _atom_site_B_iso_or_equiv
  _atom_site_type_symbol
  O1       1.0000 0.70380  0.14800  0.16483  Biso   1.000  O
  O2       1.0000 0.74360  0.10750  0.20896  Biso   1.000  O
  H1       1.0000 0.45960  0.00340  0.29680  Biso   1.000  H
  C1       1.0000 0.69270  0.11900  0.19328  Biso   1.000  C
  C2       1.0000 0.61380  0.09820  0.20940  Biso   1.000  C
  C3       1.0000 0.60010  0.06750  0.24067  Biso   1.000  C
  H2       1.0000 0.63980  0.05850  0.25150  Biso   1.000  H
  O3       1.0000 0.63010  0.02700  0.30420  Biso   1.000  O
  C4       1.0000 0.55470  0.99360  0.30710  Biso   1.000  C
  C5       1.0000 0.53090  0.97790  0.34260  Biso   1.000  C
  C6       1.0000 0.56200  0.93590  0.36020  Biso   1.000  C
  H3       1.0000 0.60580  0.93010  0.35150  Biso   1.000  H
  C7       1.0000 0.52890  0.90250  0.39050  Biso   1.000  C
  H4       1.0000 0.55010  0.87390  0.40250  Biso   1.000  H
  N1       1.0000 0.46490  0.91110  0.40325  Biso   1.000  N
  C8       1.0000 0.43380  0.95310  0.38570  Biso   1.000  C
  H5       1.0000 0.39010  0.95890  0.39440  Biso   1.000  H
  C9       1.0000 0.46690  0.98650  0.35540  Biso   1.000  C
  H6       1.0000 0.44570  0.01510  0.34330  Biso   1.000  H
  O4       1.0000 0.57800  0.94900  0.29430  Biso   1.000  O
  O5       1.0000 0.37047  0.48133  0.49816  Biso   1.000  O
  O6       1.0000 0.41027  0.44083  0.54229  Biso   1.000  O
  H7       1.0000 0.12627  0.33673  0.63013  Biso   1.000  H
  C10      1.0000 0.35937  0.45233  0.52661  Biso   1.000  C
  C11      1.0000 0.28047  0.43153  0.54273  Biso   1.000  C
  C12      1.0000 0.26677  0.40083  0.57400  Biso   1.000  C
  H8       1.0000 0.30647  0.39183  0.58483  Biso   1.000  H
  O7       1.0000 0.29677  0.36033  0.63753  Biso   1.000  O
  C13      1.0000 0.22137  0.32693  0.64043  Biso   1.000  C
  C14      1.0000 0.19757  0.31123  0.67593  Biso   1.000  C
  C15      1.0000 0.22867  0.26923  0.69353  Biso   1.000  C
  H9       1.0000 0.27247  0.26343  0.68483  Biso   1.000  H
  C16      1.0000 0.19557  0.23583  0.72383  Biso   1.000  C
  H10      1.0000 0.21677  0.20723  0.73583  Biso   1.000  H
  N2       1.0000 0.13157  0.24443  0.73658  Biso   1.000  N
  C17      1.0000 0.10047  0.28643  0.71903  Biso   1.000  C
  H11      1.0000 0.05677  0.29223  0.72773  Biso   1.000  H
  C18      1.0000 0.13357  0.31983  0.68873  Biso   1.000  C
  H12      1.0000 0.11237  0.34843  0.67663  Biso   1.000  H
  O8       1.0000 0.24467  0.28233  0.62763  Biso   1.000  O
  O9       1.0000 0.03713  0.81467  0.83150  Biso   1.000  O
  O10      1.0000 0.07693  0.77417  0.87563  Biso   1.000  O
  H13      1.0000 0.79293  0.67007  0.96347  Biso   1.000  H
  C19      1.0000 0.02603  0.78567  0.85995  Biso   1.000  C
  C20      1.0000 0.94713  0.76487  0.87607  Biso   1.000  C
  C21      1.0000 0.93343  0.73417  0.90734  Biso   1.000  C
  H14      1.0000 0.97313  0.72517  0.91817  Biso   1.000  H
  O11      1.0000 0.96343  0.69367  0.97087  Biso   1.000  O
  C22      1.0000 0.88803  0.66027  0.97377  Biso   1.000  C
  C23      1.0000 0.86423  0.64457  0.00927  Biso   1.000  C
  C24      1.0000 0.89533  0.60257  0.02687  Biso   1.000  C
  H15      1.0000 0.93913  0.59677  0.01817  Biso   1.000  H
  C25      1.0000 0.86223  0.56917  0.05717  Biso   1.000  C
  H16      1.0000 0.88343  0.54057  0.06917  Biso   1.000  H
  N3       1.0000 0.79823  0.57777  0.06992  Biso   1.000  N
  C26      1.0000 0.76713  0.61977  0.05237  Biso   1.000  C
  H17      1.0000 0.72343  0.62557  0.06107  Biso   1.000  H
  C27      1.0000 0.80023  0.65317  0.02207  Biso   1.000  C
  H18      1.0000 0.77903  0.68177  0.00997  Biso   1.000  H
  O12      1.0000 0.91133  0.61567  0.96097  Biso   1.000  O
  O13      1.0000 0.85200  0.55580  0.16483  Biso   1.000  O
  O14      1.0000 0.89250  0.63610  0.20896  Biso   1.000  O
  H19      1.0000 0.99660  0.45620  0.29680  Biso   1.000  H
  C28      1.0000 0.88100  0.57370  0.19328  Biso   1.000  C
  C29      1.0000 0.90180  0.51560  0.20940  Biso   1.000  C
  C30      1.0000 0.93250  0.53260  0.24067  Biso   1.000  C
  H20      1.0000 0.94150  0.58130  0.25150  Biso   1.000  H
  O15      1.0000 0.97300  0.60310  0.30420  Biso   1.000  O
  C31      1.0000 0.00640  0.56110  0.30710  Biso   1.000  C
  C32      1.0000 0.02210  0.55300  0.34260  Biso   1.000  C
  C33      1.0000 0.06410  0.62610  0.36020  Biso   1.000  C
  H21      1.0000 0.06990  0.67570  0.35150  Biso   1.000  H
  C34      1.0000 0.09750  0.62640  0.39050  Biso   1.000  C
  H22      1.0000 0.12610  0.67620  0.40250  Biso   1.000  H
  N4       1.0000 0.08890  0.55380  0.40325  Biso   1.000  N
  C35      1.0000 0.04690  0.48070  0.38570  Biso   1.000  C
  H23      1.0000 0.04110  0.43120  0.39440  Biso   1.000  H
  C36      1.0000 0.01350  0.48040  0.35540  Biso   1.000  C
  H24      1.0000 0.98490  0.43060  0.34330  Biso   1.000  H
  O16      1.0000 0.05100  0.62900  0.29430  Biso   1.000  O
  O17      1.0000 0.51867  0.88913  0.49816  Biso   1.000  O
  O18      1.0000 0.55917  0.96943  0.54229  Biso   1.000  O
  H25      1.0000 0.66327  0.78953  0.63013  Biso   1.000  H
  C37      1.0000 0.54767  0.90703  0.52661  Biso   1.000  C
  C38      1.0000 0.56847  0.84893  0.54273  Biso   1.000  C
  C39      1.0000 0.59917  0.86593  0.57400  Biso   1.000  C
  H26      1.0000 0.60817  0.91463  0.58483  Biso   1.000  H
  O19      1.0000 0.63967  0.93643  0.63753  Biso   1.000  O
  C40      1.0000 0.67307  0.89443  0.64043  Biso   1.000  C
  C41      1.0000 0.68877  0.88633  0.67593  Biso   1.000  C
  C42      1.0000 0.73077  0.95943  0.69353  Biso   1.000  C
  H27      1.0000 0.73657  0.00903  0.68483  Biso   1.000  H
  C43      1.0000 0.76417  0.95973  0.72383  Biso   1.000  C
  H28      1.0000 0.79277  0.00953  0.73583  Biso   1.000  H
  N5       1.0000 0.75557  0.88713  0.73658  Biso   1.000  N
  C44      1.0000 0.71357  0.81403  0.71903  Biso   1.000  C
  H29      1.0000 0.70777  0.76453  0.72773  Biso   1.000  H
  C45      1.0000 0.68017  0.81373  0.68873  Biso   1.000  C
  H30      1.0000 0.65157  0.76393  0.67663  Biso   1.000  H
  O20      1.0000 0.71767  0.96233  0.62763  Biso   1.000  O
  O21      1.0000 0.18533  0.22247  0.83150  Biso   1.000  O
  O22      1.0000 0.22583  0.30277  0.87563  Biso   1.000  O
  H31      1.0000 0.32993  0.12287  0.96347  Biso   1.000  H
  C46      1.0000 0.21433  0.24037  0.85995  Biso   1.000  C
  C47      1.0000 0.23513  0.18227  0.87607  Biso   1.000  C
  C48      1.0000 0.26583  0.19927  0.90734  Biso   1.000  C
  H32      1.0000 0.27483  0.24797  0.91817  Biso   1.000  H
  O23      1.0000 0.30633  0.26977  0.97087  Biso   1.000  O
  C49      1.0000 0.33973  0.22777  0.97377  Biso   1.000  C
  C50      1.0000 0.35543  0.21967  0.00927  Biso   1.000  C
  C51      1.0000 0.39743  0.29277  0.02687  Biso   1.000  C
  H33      1.0000 0.40323  0.34237  0.01817  Biso   1.000  H
  C52      1.0000 0.43083  0.29307  0.05717  Biso   1.000  C
  H34      1.0000 0.45943  0.34287  0.06917  Biso   1.000  H
  N6       1.0000 0.42223  0.22047  0.06992  Biso   1.000  N
  C53      1.0000 0.38023  0.14737  0.05237  Biso   1.000  C
  H35      1.0000 0.37443  0.09787  0.06107  Biso   1.000  H
  C54      1.0000 0.34683  0.14707  0.02207  Biso   1.000  C
  H36      1.0000 0.31823  0.09727  0.00997  Biso   1.000  H
  O24      1.0000 0.38433  0.29567  0.96097  Biso   1.000  O
  O25      1.0000 0.44420  0.29620  0.16483  Biso   1.000  O
  O26      1.0000 0.36390  0.25640  0.20896  Biso   1.000  O
  H37      1.0000 0.54380  0.54040  0.29680  Biso   1.000  H
  C55      1.0000 0.42630  0.30730  0.19328  Biso   1.000  C
  C56      1.0000 0.48440  0.38620  0.20940  Biso   1.000  C
  C57      1.0000 0.46740  0.39990  0.24067  Biso   1.000  C
  H38      1.0000 0.41870  0.36020  0.25150  Biso   1.000  H
  O27      1.0000 0.39690  0.36990  0.30420  Biso   1.000  O
  C58      1.0000 0.43890  0.44530  0.30710  Biso   1.000  C
  C59      1.0000 0.44700  0.46910  0.34260  Biso   1.000  C
  C60      1.0000 0.37390  0.43800  0.36020  Biso   1.000  C
  H39      1.0000 0.32430  0.39420  0.35150  Biso   1.000  H
  C61      1.0000 0.37360  0.47110  0.39050  Biso   1.000  C
  H40      1.0000 0.32380  0.44990  0.40250  Biso   1.000  H
  N7       1.0000 0.44620  0.53510  0.40325  Biso   1.000  N
  C62      1.0000 0.51930  0.56620  0.38570  Biso   1.000  C
  H41      1.0000 0.56880  0.60990  0.39440  Biso   1.000  H
  C63      1.0000 0.51960  0.53310  0.35540  Biso   1.000  C
  H42      1.0000 0.56940  0.55430  0.34330  Biso   1.000  H
  O28      1.0000 0.37100  0.42200  0.29430  Biso   1.000  O
  O29      1.0000 0.11087  0.62953  0.49816  Biso   1.000  O
  O30      1.0000 0.03057  0.58973  0.54229  Biso   1.000  O
  H43      1.0000 0.21047  0.87373  0.63013  Biso   1.000  H
  C64      1.0000 0.09297  0.64063  0.52661  Biso   1.000  C
  C65      1.0000 0.15107  0.71953  0.54273  Biso   1.000  C
  C66      1.0000 0.13407  0.73323  0.57400  Biso   1.000  C
  H44      1.0000 0.08537  0.69353  0.58483  Biso   1.000  H
  O31      1.0000 0.06357  0.70323  0.63753  Biso   1.000  O
  C67      1.0000 0.10557  0.77863  0.64043  Biso   1.000  C
  C68      1.0000 0.11367  0.80243  0.67593  Biso   1.000  C
  C69      1.0000 0.04057  0.77133  0.69353  Biso   1.000  C
  H45      1.0000 0.99097  0.72753  0.68483  Biso   1.000  H
  C70      1.0000 0.04027  0.80443  0.72383  Biso   1.000  C
  H46      1.0000 0.99047  0.78323  0.73583  Biso   1.000  H
  N8       1.0000 0.11287  0.86843  0.73658  Biso   1.000  N
  C71      1.0000 0.18597  0.89953  0.71903  Biso   1.000  C
  H47      1.0000 0.23547  0.94323  0.72773  Biso   1.000  H
  C72      1.0000 0.18627  0.86643  0.68873  Biso   1.000  C
  H48      1.0000 0.23607  0.88763  0.67663  Biso   1.000  H
  O32      1.0000 0.03767  0.75533  0.62763  Biso   1.000  O
  O33      1.0000 0.77753  0.96287  0.83150  Biso   1.000  O
  O34      1.0000 0.69723  0.92307  0.87563  Biso   1.000  O
  H49      1.0000 0.87713  0.20707  0.96347  Biso   1.000  H
  C73      1.0000 0.75963  0.97397  0.85995  Biso   1.000  C
  C74      1.0000 0.81773  0.05287  0.87607  Biso   1.000  C
  C75      1.0000 0.80073  0.06657  0.90734  Biso   1.000  C
  H50      1.0000 0.75203  0.02687  0.91817  Biso   1.000  H
  O35      1.0000 0.73023  0.03657  0.97087  Biso   1.000  O
  C76      1.0000 0.77223  0.11197  0.97377  Biso   1.000  C
  C77      1.0000 0.78033  0.13577  0.00927  Biso   1.000  C
  C78      1.0000 0.70723  0.10467  0.02687  Biso   1.000  C
  H51      1.0000 0.65763  0.06087  0.01817  Biso   1.000  H
  C79      1.0000 0.70693  0.13777  0.05717  Biso   1.000  C
  H52      1.0000 0.65713  0.11657  0.06917  Biso   1.000  H
  N9       1.0000 0.77953  0.20177  0.06992  Biso   1.000  N
  C80      1.0000 0.85263  0.23287  0.05237  Biso   1.000  C
  H53      1.0000 0.90213  0.27657  0.06107  Biso   1.000  H
  C81      1.0000 0.85293  0.19977  0.02207  Biso   1.000  C
  H54      1.0000 0.90273  0.22097  0.00997  Biso   1.000  H
  O36      1.0000 0.70433  0.08867  0.96097  Biso   1.000  O
  O37      1.0000 0.14800  0.70380  0.83517  Biso   1.000  O
  O38      1.0000 0.10750  0.74360  0.79104  Biso   1.000  O
  H55      1.0000 0.00340  0.45960  0.70320  Biso   1.000  H
  C82      1.0000 0.11900  0.69270  0.80672  Biso   1.000  C
  C83      1.0000 0.09820  0.61380  0.79060  Biso   1.000  C
  C84      1.0000 0.06750  0.60010  0.75933  Biso   1.000  C
  H56      1.0000 0.05850  0.63980  0.74850  Biso   1.000  H
  O39      1.0000 0.02700  0.63010  0.69580  Biso   1.000  O
  C85      1.0000 0.99360  0.55470  0.69290  Biso   1.000  C
  C86      1.0000 0.97790  0.53090  0.65740  Biso   1.000  C
  C87      1.0000 0.93590  0.56200  0.63980  Biso   1.000  C
  H57      1.0000 0.93010  0.60580  0.64850  Biso   1.000  H
  C88      1.0000 0.90250  0.52890  0.60950  Biso   1.000  C
  H58      1.0000 0.87390  0.55010  0.59750  Biso   1.000  H
  N10      1.0000 0.91110  0.46490  0.59675  Biso   1.000  N
  C89      1.0000 0.95310  0.43380  0.61430  Biso   1.000  C
  H59      1.0000 0.95890  0.39010  0.60560  Biso   1.000  H
  C90      1.0000 0.98650  0.46690  0.64460  Biso   1.000  C
  H60      1.0000 0.01510  0.44570  0.65670  Biso   1.000  H
  O40      1.0000 0.94900  0.57800  0.70570  Biso   1.000  O
  O41      1.0000 0.81467  0.03713  0.16850  Biso   1.000  O
  O42      1.0000 0.77417  0.07693  0.12437  Biso   1.000  O
  H61      1.0000 0.67007  0.79293  0.03653  Biso   1.000  H
  C91      1.0000 0.78567  0.02603  0.14005  Biso   1.000  C
  C92      1.0000 0.76487  0.94713  0.12393  Biso   1.000  C
  C93      1.0000 0.73417  0.93343  0.09266  Biso   1.000  C
  H62      1.0000 0.72517  0.97313  0.08183  Biso   1.000  H
  O43      1.0000 0.69367  0.96343  0.02913  Biso   1.000  O
  C94      1.0000 0.66027  0.88803  0.02623  Biso   1.000  C
  C95      1.0000 0.64457  0.86423  0.99073  Biso   1.000  C
  C96      1.0000 0.60257  0.89533  0.97313  Biso   1.000  C
  H63      1.0000 0.59677  0.93913  0.98183  Biso   1.000  H
  C97      1.0000 0.56917  0.86223  0.94283  Biso   1.000  C
  H64      1.0000 0.54057  0.88343  0.93083  Biso   1.000  H
  N11      1.0000 0.57777  0.79823  0.93008  Biso   1.000  N
  C98      1.0000 0.61977  0.76713  0.94763  Biso   1.000  C
  H65      1.0000 0.62557  0.72343  0.93893  Biso   1.000  H
  C99      1.0000 0.65317  0.80023  0.97793  Biso   1.000  C
  H66      1.0000 0.68177  0.77903  0.99003  Biso   1.000  H
  O44      1.0000 0.61567  0.91133  0.03903  Biso   1.000  O
  O45      1.0000 0.48133  0.37047  0.50184  Biso   1.000  O
  O46      1.0000 0.44083  0.41027  0.45771  Biso   1.000  O
  H67      1.0000 0.33673  0.12627  0.36987  Biso   1.000  H
  C100     1.0000 0.45233  0.35937  0.47339  Biso   1.000  C
  C101     1.0000 0.43153  0.28047  0.45727  Biso   1.000  C
  C102     1.0000 0.40083  0.26677  0.42600  Biso   1.000  C
  H68      1.0000 0.39183  0.30647  0.41517  Biso   1.000  H
  O47      1.0000 0.36033  0.29677  0.36247  Biso   1.000  O
  C103     1.0000 0.32693  0.22137  0.35957  Biso   1.000  C
  C104     1.0000 0.31123  0.19757  0.32407  Biso   1.000  C
  C105     1.0000 0.26923  0.22867  0.30647  Biso   1.000  C
  H69      1.0000 0.26343  0.27247  0.31517  Biso   1.000  H
  C106     1.0000 0.23583  0.19557  0.27617  Biso   1.000  C
  H70      1.0000 0.20723  0.21677  0.26417  Biso   1.000  H
  N12      1.0000 0.24443  0.13157  0.26342  Biso   1.000  N
  C107     1.0000 0.28643  0.10047  0.28097  Biso   1.000  C
  H71      1.0000 0.29223  0.05677  0.27227  Biso   1.000  H
  C108     1.0000 0.31983  0.13357  0.31127  Biso   1.000  C
  H72      1.0000 0.34843  0.11237  0.32337  Biso   1.000  H
  O48      1.0000 0.28233  0.24467  0.37237  Biso   1.000  O
  O49      1.0000 0.55580  0.85200  0.83517  Biso   1.000  O
  O50      1.0000 0.63610  0.89250  0.79104  Biso   1.000  O
  H73      1.0000 0.45620  0.99660  0.70320  Biso   1.000  H
  C109     1.0000 0.57370  0.88100  0.80672  Biso   1.000  C
  C110     1.0000 0.51560  0.90180  0.79060  Biso   1.000  C
  C111     1.0000 0.53260  0.93250  0.75933  Biso   1.000  C
  H74      1.0000 0.58130  0.94150  0.74850  Biso   1.000  H
  O51      1.0000 0.60310  0.97300  0.69580  Biso   1.000  O
  C112     1.0000 0.56110  0.00640  0.69290  Biso   1.000  C
  C113     1.0000 0.55300  0.02210  0.65740  Biso   1.000  C
  C114     1.0000 0.62610  0.06410  0.63980  Biso   1.000  C
  H75      1.0000 0.67570  0.06990  0.64850  Biso   1.000  H
  C115     1.0000 0.62640  0.09750  0.60950  Biso   1.000  C
  H76      1.0000 0.67620  0.12610  0.59750  Biso   1.000  H
  N13      1.0000 0.55380  0.08890  0.59675  Biso   1.000  N
  C116     1.0000 0.48070  0.04690  0.61430  Biso   1.000  C
  H77      1.0000 0.43120  0.04110  0.60560  Biso   1.000  H
  C117     1.0000 0.48040  0.01350  0.64460  Biso   1.000  C
  H78      1.0000 0.43060  0.98490  0.65670  Biso   1.000  H
  O52      1.0000 0.62900  0.05100  0.70570  Biso   1.000  O
  O53      1.0000 0.22247  0.18533  0.16850  Biso   1.000  O
  O54      1.0000 0.30277  0.22583  0.12437  Biso   1.000  O
  H79      1.0000 0.12287  0.32993  0.03653  Biso   1.000  H
  C118     1.0000 0.24037  0.21433  0.14005  Biso   1.000  C
  C119     1.0000 0.18227  0.23513  0.12393  Biso   1.000  C
  C120     1.0000 0.19927  0.26583  0.09266  Biso   1.000  C
  H80      1.0000 0.24797  0.27483  0.08183  Biso   1.000  H
  O55      1.0000 0.26977  0.30633  0.02913  Biso   1.000  O
  C121     1.0000 0.22777  0.33973  0.02623  Biso   1.000  C
  C122     1.0000 0.21967  0.35543  0.99073  Biso   1.000  C
  C123     1.0000 0.29277  0.39743  0.97313  Biso   1.000  C
  H81      1.0000 0.34237  0.40323  0.98183  Biso   1.000  H
  C124     1.0000 0.29307  0.43083  0.94283  Biso   1.000  C
  H82      1.0000 0.34287  0.45943  0.93083  Biso   1.000  H
  N14      1.0000 0.22047  0.42223  0.93008  Biso   1.000  N
  C125     1.0000 0.14737  0.38023  0.94763  Biso   1.000  C
  H83      1.0000 0.09787  0.37443  0.93893  Biso   1.000  H
  C126     1.0000 0.14707  0.34683  0.97793  Biso   1.000  C
  H84      1.0000 0.09727  0.31823  0.99003  Biso   1.000  H
  O56      1.0000 0.29567  0.38433  0.03903  Biso   1.000  O
  O57      1.0000 0.88913  0.51867  0.50184  Biso   1.000  O
  O58      1.0000 0.96943  0.55917  0.45771  Biso   1.000  O
  H85      1.0000 0.78953  0.66327  0.36987  Biso   1.000  H
  C127     1.0000 0.90703  0.54767  0.47339  Biso   1.000  C
  C128     1.0000 0.84893  0.56847  0.45727  Biso   1.000  C
  C129     1.0000 0.86593  0.59917  0.42600  Biso   1.000  C
  H86      1.0000 0.91463  0.60817  0.41517  Biso   1.000  H
  O59      1.0000 0.93643  0.63967  0.36247  Biso   1.000  O
  C130     1.0000 0.89443  0.67307  0.35957  Biso   1.000  C
  C131     1.0000 0.88633  0.68877  0.32407  Biso   1.000  C
  C132     1.0000 0.95943  0.73077  0.30647  Biso   1.000  C
  H87      1.0000 0.00903  0.73657  0.31517  Biso   1.000  H
  C133     1.0000 0.95973  0.76417  0.27617  Biso   1.000  C
  H88      1.0000 0.00953  0.79277  0.26417  Biso   1.000  H
  N15      1.0000 0.88713  0.75557  0.26342  Biso   1.000  N
  C134     1.0000 0.81403  0.71357  0.28097  Biso   1.000  C
  H89      1.0000 0.76453  0.70777  0.27227  Biso   1.000  H
  C135     1.0000 0.81373  0.68017  0.31127  Biso   1.000  C
  H90      1.0000 0.76393  0.65157  0.32337  Biso   1.000  H
  O60      1.0000 0.96233  0.71767  0.37237  Biso   1.000  O
  O61      1.0000 0.29620  0.44420  0.83517  Biso   1.000  O
  O62      1.0000 0.25640  0.36390  0.79104  Biso   1.000  O
  H91      1.0000 0.54040  0.54380  0.70320  Biso   1.000  H
  C136     1.0000 0.30730  0.42630  0.80672  Biso   1.000  C
  C137     1.0000 0.38620  0.48440  0.79060  Biso   1.000  C
  C138     1.0000 0.39990  0.46740  0.75933  Biso   1.000  C
  H92      1.0000 0.36020  0.41870  0.74850  Biso   1.000  H
  O63      1.0000 0.36990  0.39690  0.69580  Biso   1.000  O
  C139     1.0000 0.44530  0.43890  0.69290  Biso   1.000  C
  C140     1.0000 0.46910  0.44700  0.65740  Biso   1.000  C
  C141     1.0000 0.43800  0.37390  0.63980  Biso   1.000  C
  H93      1.0000 0.39420  0.32430  0.64850  Biso   1.000  H
  C142     1.0000 0.47110  0.37360  0.60950  Biso   1.000  C
  H94      1.0000 0.44990  0.32380  0.59750  Biso   1.000  H
  N16      1.0000 0.53510  0.44620  0.59675  Biso   1.000  N
  C143     1.0000 0.56620  0.51930  0.61430  Biso   1.000  C
  H95      1.0000 0.60990  0.56880  0.60560  Biso   1.000  H
  C144     1.0000 0.53310  0.51960  0.64460  Biso   1.000  C
  H96      1.0000 0.55430  0.56940  0.65670  Biso   1.000  H
  O64      1.0000 0.42200  0.37100  0.70570  Biso   1.000  O
  O65      1.0000 0.96287  0.77753  0.16850  Biso   1.000  O
  O66      1.0000 0.92307  0.69723  0.12437  Biso   1.000  O
  H97      1.0000 0.20707  0.87713  0.03653  Biso   1.000  H
  C145     1.0000 0.97397  0.75963  0.14005  Biso   1.000  C
  C146     1.0000 0.05287  0.81773  0.12393  Biso   1.000  C
  C147     1.0000 0.06657  0.80073  0.09266  Biso   1.000  C
  H98      1.0000 0.02687  0.75203  0.08183  Biso   1.000  H
  O67      1.0000 0.03657  0.73023  0.02913  Biso   1.000  O
  C148     1.0000 0.11197  0.77223  0.02623  Biso   1.000  C
  C149     1.0000 0.13577  0.78033  0.99073  Biso   1.000  C
  C150     1.0000 0.10467  0.70723  0.97313  Biso   1.000  C
  H99      1.0000 0.06087  0.65763  0.98183  Biso   1.000  H
  C151     1.0000 0.13777  0.70693  0.94283  Biso   1.000  C
  H100     1.0000 0.11657  0.65713  0.93083  Biso   1.000  H
  N17      1.0000 0.20177  0.77953  0.93008  Biso   1.000  N
  C152     1.0000 0.23287  0.85263  0.94763  Biso   1.000  C
  H101     1.0000 0.27657  0.90213  0.93893  Biso   1.000  H
  C153     1.0000 0.19977  0.85293  0.97793  Biso   1.000  C
  H102     1.0000 0.22097  0.90273  0.99003  Biso   1.000  H
  O68      1.0000 0.08867  0.70433  0.03903  Biso   1.000  O
  O69      1.0000 0.62953  0.11087  0.50184  Biso   1.000  O
  O70      1.0000 0.58973  0.03057  0.45771  Biso   1.000  O
  H103     1.0000 0.87373  0.21047  0.36987  Biso   1.000  H
  C154     1.0000 0.64063  0.09297  0.47339  Biso   1.000  C
  C155     1.0000 0.71953  0.15107  0.45727  Biso   1.000  C
  C156     1.0000 0.73323  0.13407  0.42600  Biso   1.000  C
  H104     1.0000 0.69353  0.08537  0.41517  Biso   1.000  H
  O71      1.0000 0.70323  0.06357  0.36247  Biso   1.000  O
  C157     1.0000 0.77863  0.10557  0.35957  Biso   1.000  C
  C158     1.0000 0.80243  0.11367  0.32407  Biso   1.000  C
  C159     1.0000 0.77133  0.04057  0.30647  Biso   1.000  C
  H105     1.0000 0.72753  0.99097  0.31517  Biso   1.000  H
  C160     1.0000 0.80443  0.04027  0.27617  Biso   1.000  C
  H106     1.0000 0.78323  0.99047  0.26417  Biso   1.000  H
  N18      1.0000 0.86843  0.11287  0.26342  Biso   1.000  N
  C161     1.0000 0.89953  0.18597  0.28097  Biso   1.000  C
  H107     1.0000 0.94323  0.23547  0.27227  Biso   1.000  H
  C162     1.0000 0.86643  0.18627  0.31127  Biso   1.000  C
  H108     1.0000 0.88763  0.23607  0.32337  Biso   1.000  H
  O72      1.0000 0.75533  0.03767  0.37237  Biso   1.000  O
  O73      1.0000 0.29620  0.85200  0.83517  Biso   1.000  O
  O74      1.0000 0.25640  0.89250  0.79104  Biso   1.000  O
  H109     1.0000 0.54040  0.99660  0.70320  Biso   1.000  H
  C163     1.0000 0.30730  0.88100  0.80672  Biso   1.000  C
  C164     1.0000 0.38620  0.90180  0.79060  Biso   1.000  C
  C165     1.0000 0.39990  0.93250  0.75933  Biso   1.000  C
  H110     1.0000 0.36020  0.94150  0.74850  Biso   1.000  H
  O75      1.0000 0.36990  0.97300  0.69580  Biso   1.000  O
  C166     1.0000 0.44530  0.00640  0.69290  Biso   1.000  C
  C167     1.0000 0.46910  0.02210  0.65740  Biso   1.000  C
  C168     1.0000 0.43800  0.06410  0.63980  Biso   1.000  C
  H111     1.0000 0.39420  0.06990  0.64850  Biso   1.000  H
  C169     1.0000 0.47110  0.09750  0.60950  Biso   1.000  C
  H112     1.0000 0.44990  0.12610  0.59750  Biso   1.000  H
  N19      1.0000 0.53510  0.08890  0.59675  Biso   1.000  N
  C170     1.0000 0.56620  0.04690  0.61430  Biso   1.000  C
  H113     1.0000 0.60990  0.04110  0.60560  Biso   1.000  H
  C171     1.0000 0.53310  0.01350  0.64460  Biso   1.000  C
  H114     1.0000 0.55430  0.98490  0.65670  Biso   1.000  H
  O76      1.0000 0.42200  0.05100  0.70570  Biso   1.000  O
  O77      1.0000 0.96287  0.18533  0.16850  Biso   1.000  O
  O78      1.0000 0.92307  0.22583  0.12437  Biso   1.000  O
  H115     1.0000 0.20707  0.32993  0.03653  Biso   1.000  H
  C172     1.0000 0.97397  0.21433  0.14005  Biso   1.000  C
  C173     1.0000 0.05287  0.23513  0.12393  Biso   1.000  C
  C174     1.0000 0.06657  0.26583  0.09266  Biso   1.000  C
  H116     1.0000 0.02687  0.27483  0.08183  Biso   1.000  H
  O79      1.0000 0.03657  0.30633  0.02913  Biso   1.000  O
  C175     1.0000 0.11197  0.33973  0.02623  Biso   1.000  C
  C176     1.0000 0.13577  0.35543  0.99073  Biso   1.000  C
  C177     1.0000 0.10467  0.39743  0.97313  Biso   1.000  C
  H117     1.0000 0.06087  0.40323  0.98183  Biso   1.000  H
  C178     1.0000 0.13777  0.43083  0.94283  Biso   1.000  C
  H118     1.0000 0.11657  0.45943  0.93083  Biso   1.000  H
  N20      1.0000 0.20177  0.42223  0.93008  Biso   1.000  N
  C179     1.0000 0.23287  0.38023  0.94763  Biso   1.000  C
  H119     1.0000 0.27657  0.37443  0.93893  Biso   1.000  H
  C180     1.0000 0.19977  0.34683  0.97793  Biso   1.000  C
  H120     1.0000 0.22097  0.31823  0.99003  Biso   1.000  H
  O80      1.0000 0.08867  0.38433  0.03903  Biso   1.000  O
  O81      1.0000 0.62953  0.51867  0.50184  Biso   1.000  O
  O82      1.0000 0.58973  0.55917  0.45771  Biso   1.000  O
  H121     1.0000 0.87373  0.66327  0.36987  Biso   1.000  H
  C181     1.0000 0.64063  0.54767  0.47339  Biso   1.000  C
  C182     1.0000 0.71953  0.56847  0.45727  Biso   1.000  C
  C183     1.0000 0.73323  0.59917  0.42600  Biso   1.000  C
  H122     1.0000 0.69353  0.60817  0.41517  Biso   1.000  H
  O83      1.0000 0.70323  0.63967  0.36247  Biso   1.000  O
  C184     1.0000 0.77863  0.67307  0.35957  Biso   1.000  C
  C185     1.0000 0.80243  0.68877  0.32407  Biso   1.000  C
  C186     1.0000 0.77133  0.73077  0.30647  Biso   1.000  C
  H123     1.0000 0.72753  0.73657  0.31517  Biso   1.000  H
  C187     1.0000 0.80443  0.76417  0.27617  Biso   1.000  C
  H124     1.0000 0.78323  0.79277  0.26417  Biso   1.000  H
  N21      1.0000 0.86843  0.75557  0.26342  Biso   1.000  N
  C188     1.0000 0.89953  0.71357  0.28097  Biso   1.000  C
  H125     1.0000 0.94323  0.70777  0.27227  Biso   1.000  H
  C189     1.0000 0.86643  0.68017  0.31127  Biso   1.000  C
  H126     1.0000 0.88763  0.65157  0.32337  Biso   1.000  H
  O84      1.0000 0.75533  0.71767  0.37237  Biso   1.000  O
  O85      1.0000 0.14800  0.44420  0.83517  Biso   1.000  O
  O86      1.0000 0.10750  0.36390  0.79104  Biso   1.000  O
  H127     1.0000 0.00340  0.54380  0.70320  Biso   1.000  H
  C190     1.0000 0.11900  0.42630  0.80672  Biso   1.000  C
  C191     1.0000 0.09820  0.48440  0.79060  Biso   1.000  C
  C192     1.0000 0.06750  0.46740  0.75933  Biso   1.000  C
  H128     1.0000 0.05850  0.41870  0.74850  Biso   1.000  H
  O87      1.0000 0.02700  0.39690  0.69580  Biso   1.000  O
  C193     1.0000 0.99360  0.43890  0.69290  Biso   1.000  C
  C194     1.0000 0.97790  0.44700  0.65740  Biso   1.000  C
  C195     1.0000 0.93590  0.37390  0.63980  Biso   1.000  C
  H129     1.0000 0.93010  0.32430  0.64850  Biso   1.000  H
  C196     1.0000 0.90250  0.37360  0.60950  Biso   1.000  C
  H130     1.0000 0.87390  0.32380  0.59750  Biso   1.000  H
  N22      1.0000 0.91110  0.44620  0.59675  Biso   1.000  N
  C197     1.0000 0.95310  0.51930  0.61430  Biso   1.000  C
  H131     1.0000 0.95890  0.56880  0.60560  Biso   1.000  H
  C198     1.0000 0.98650  0.51960  0.64460  Biso   1.000  C
  H132     1.0000 0.01510  0.56940  0.65670  Biso   1.000  H
  O88      1.0000 0.94900  0.37100  0.70570  Biso   1.000  O
  O89      1.0000 0.81467  0.77753  0.16850  Biso   1.000  O
  O90      1.0000 0.77417  0.69723  0.12437  Biso   1.000  O
  H133     1.0000 0.67007  0.87713  0.03653  Biso   1.000  H
  C199     1.0000 0.78567  0.75963  0.14005  Biso   1.000  C
  C200     1.0000 0.76487  0.81773  0.12393  Biso   1.000  C
  C201     1.0000 0.73417  0.80073  0.09266  Biso   1.000  C
  H134     1.0000 0.72517  0.75203  0.08183  Biso   1.000  H
  O91      1.0000 0.69367  0.73023  0.02913  Biso   1.000  O
  C202     1.0000 0.66027  0.77223  0.02623  Biso   1.000  C
  C203     1.0000 0.64457  0.78033  0.99073  Biso   1.000  C
  C204     1.0000 0.60257  0.70723  0.97313  Biso   1.000  C
  H135     1.0000 0.59677  0.65763  0.98183  Biso   1.000  H
  C205     1.0000 0.56917  0.70693  0.94283  Biso   1.000  C
  H136     1.0000 0.54057  0.65713  0.93083  Biso   1.000  H
  N23      1.0000 0.57777  0.77953  0.93008  Biso   1.000  N
  C206     1.0000 0.61977  0.85263  0.94763  Biso   1.000  C
  H137     1.0000 0.62557  0.90213  0.93893  Biso   1.000  H
  C207     1.0000 0.65317  0.85293  0.97793  Biso   1.000  C
  H138     1.0000 0.68177  0.90273  0.99003  Biso   1.000  H
  O92      1.0000 0.61567  0.70433  0.03903  Biso   1.000  O
  O93      1.0000 0.48133  0.11087  0.50184  Biso   1.000  O
  O94      1.0000 0.44083  0.03057  0.45771  Biso   1.000  O
  H139     1.0000 0.33673  0.21047  0.36987  Biso   1.000  H
  C208     1.0000 0.45233  0.09297  0.47339  Biso   1.000  C
  C209     1.0000 0.43153  0.15107  0.45727  Biso   1.000  C
  C210     1.0000 0.40083  0.13407  0.42600  Biso   1.000  C
  H140     1.0000 0.39183  0.08537  0.41517  Biso   1.000  H
  O95      1.0000 0.36033  0.06357  0.36247  Biso   1.000  O
  C211     1.0000 0.32693  0.10557  0.35957  Biso   1.000  C
  C212     1.0000 0.31123  0.11367  0.32407  Biso   1.000  C
  C213     1.0000 0.26923  0.04057  0.30647  Biso   1.000  C
  H141     1.0000 0.26343  0.99097  0.31517  Biso   1.000  H
  C214     1.0000 0.23583  0.04027  0.27617  Biso   1.000  C
  H142     1.0000 0.20723  0.99047  0.26417  Biso   1.000  H
  N24      1.0000 0.24443  0.11287  0.26342  Biso   1.000  N
  C215     1.0000 0.28643  0.18597  0.28097  Biso   1.000  C
  H143     1.0000 0.29223  0.23547  0.27227  Biso   1.000  H
  C216     1.0000 0.31983  0.18627  0.31127  Biso   1.000  C
  H144     1.0000 0.34843  0.23607  0.32337  Biso   1.000  H
  O96      1.0000 0.28233  0.03767  0.37237  Biso   1.000  O
  O97      1.0000 0.55580  0.70380  0.83517  Biso   1.000  O
  O98      1.0000 0.63610  0.74360  0.79104  Biso   1.000  O
  H145     1.0000 0.45620  0.45960  0.70320  Biso   1.000  H
  C217     1.0000 0.57370  0.69270  0.80672  Biso   1.000  C
  C218     1.0000 0.51560  0.61380  0.79060  Biso   1.000  C
  C219     1.0000 0.53260  0.60010  0.75933  Biso   1.000  C
  H146     1.0000 0.58130  0.63980  0.74850  Biso   1.000  H
  O99      1.0000 0.60310  0.63010  0.69580  Biso   1.000  O
  C220     1.0000 0.56110  0.55470  0.69290  Biso   1.000  C
  C221     1.0000 0.55300  0.53090  0.65740  Biso   1.000  C
  C222     1.0000 0.62610  0.56200  0.63980  Biso   1.000  C
  H147     1.0000 0.67570  0.60580  0.64850  Biso   1.000  H
  C223     1.0000 0.62640  0.52890  0.60950  Biso   1.000  C
  H148     1.0000 0.67620  0.55010  0.59750  Biso   1.000  H
  N25      1.0000 0.55380  0.46490  0.59675  Biso   1.000  N
  C224     1.0000 0.48070  0.43380  0.61430  Biso   1.000  C
  H149     1.0000 0.43120  0.39010  0.60560  Biso   1.000  H
  C225     1.0000 0.48040  0.46690  0.64460  Biso   1.000  C
  H150     1.0000 0.43060  0.44570  0.65670  Biso   1.000  H
  O100     1.0000 0.62900  0.57800  0.70570  Biso   1.000  O
  O101     1.0000 0.22247  0.03713  0.16850  Biso   1.000  O
  O102     1.0000 0.30277  0.07693  0.12437  Biso   1.000  O
  H151     1.0000 0.12287  0.79293  0.03653  Biso   1.000  H
  C226     1.0000 0.24037  0.02603  0.14005  Biso   1.000  C
  C227     1.0000 0.18227  0.94713  0.12393  Biso   1.000  C
  C228     1.0000 0.19927  0.93343  0.09266  Biso   1.000  C
  H152     1.0000 0.24797  0.97313  0.08183  Biso   1.000  H
  O103     1.0000 0.26977  0.96343  0.02913  Biso   1.000  O
  C229     1.0000 0.22777  0.88803  0.02623  Biso   1.000  C
  C230     1.0000 0.21967  0.86423  0.99073  Biso   1.000  C
  C231     1.0000 0.29277  0.89533  0.97313  Biso   1.000  C
  H153     1.0000 0.34237  0.93913  0.98183  Biso   1.000  H
  C232     1.0000 0.29307  0.86223  0.94283  Biso   1.000  C
  H154     1.0000 0.34287  0.88343  0.93083  Biso   1.000  H
  N26      1.0000 0.22047  0.79823  0.93008  Biso   1.000  N
  C233     1.0000 0.14737  0.76713  0.94763  Biso   1.000  C
  H155     1.0000 0.09787  0.72343  0.93893  Biso   1.000  H
  C234     1.0000 0.14707  0.80023  0.97793  Biso   1.000  C
  H156     1.0000 0.09727  0.77903  0.99003  Biso   1.000  H
  O104     1.0000 0.29567  0.91133  0.03903  Biso   1.000  O
  O105     1.0000 0.88913  0.37047  0.50184  Biso   1.000  O
  O106     1.0000 0.96943  0.41027  0.45771  Biso   1.000  O
  H157     1.0000 0.78953  0.12627  0.36987  Biso   1.000  H
  C235     1.0000 0.90703  0.35937  0.47339  Biso   1.000  C
  C236     1.0000 0.84893  0.28047  0.45727  Biso   1.000  C
  C237     1.0000 0.86593  0.26677  0.42600  Biso   1.000  C
  H158     1.0000 0.91463  0.30647  0.41517  Biso   1.000  H
  O107     1.0000 0.93643  0.29677  0.36247  Biso   1.000  O
  C238     1.0000 0.89443  0.22137  0.35957  Biso   1.000  C
  C239     1.0000 0.88633  0.19757  0.32407  Biso   1.000  C
  C240     1.0000 0.95943  0.22867  0.30647  Biso   1.000  C
  H159     1.0000 0.00903  0.27247  0.31517  Biso   1.000  H
  C241     1.0000 0.95973  0.19557  0.27617  Biso   1.000  C
  H160     1.0000 0.00953  0.21677  0.26417  Biso   1.000  H
  N27      1.0000 0.88713  0.13157  0.26342  Biso   1.000  N
  C242     1.0000 0.81403  0.10047  0.28097  Biso   1.000  C
  H161     1.0000 0.76453  0.05677  0.27227  Biso   1.000  H
  C243     1.0000 0.81373  0.13357  0.31127  Biso   1.000  C
  H162     1.0000 0.76393  0.11237  0.32337  Biso   1.000  H
  O108     1.0000 0.96233  0.24467  0.37237  Biso   1.000  O
  O109     1.0000 0.85200  0.29620  0.16483  Biso   1.000  O
  O110     1.0000 0.89250  0.25640  0.20896  Biso   1.000  O
  H163     1.0000 0.99660  0.54040  0.29680  Biso   1.000  H
  C244     1.0000 0.88100  0.30730  0.19328  Biso   1.000  C
  C245     1.0000 0.90180  0.38620  0.20940  Biso   1.000  C
  C246     1.0000 0.93250  0.39990  0.24067  Biso   1.000  C
  H164     1.0000 0.94150  0.36020  0.25150  Biso   1.000  H
  O111     1.0000 0.97300  0.36990  0.30420  Biso   1.000  O
  C247     1.0000 0.00640  0.44530  0.30710  Biso   1.000  C
  C248     1.0000 0.02210  0.46910  0.34260  Biso   1.000  C
  C249     1.0000 0.06410  0.43800  0.36020  Biso   1.000  C
  H165     1.0000 0.06990  0.39420  0.35150  Biso   1.000  H
  C250     1.0000 0.09750  0.47110  0.39050  Biso   1.000  C
  H166     1.0000 0.12610  0.44990  0.40250  Biso   1.000  H
  N28      1.0000 0.08890  0.53510  0.40325  Biso   1.000  N
  C251     1.0000 0.04690  0.56620  0.38570  Biso   1.000  C
  H167     1.0000 0.04110  0.60990  0.39440  Biso   1.000  H
  C252     1.0000 0.01350  0.53310  0.35540  Biso   1.000  C
  H168     1.0000 0.98490  0.55430  0.34330  Biso   1.000  H
  O112     1.0000 0.05100  0.42200  0.29430  Biso   1.000  O
  O113     1.0000 0.51867  0.62953  0.49816  Biso   1.000  O
  O114     1.0000 0.55917  0.58973  0.54229  Biso   1.000  O
  H169     1.0000 0.66327  0.87373  0.63013  Biso   1.000  H
  C253     1.0000 0.54767  0.64063  0.52661  Biso   1.000  C
  C254     1.0000 0.56847  0.71953  0.54273  Biso   1.000  C
  C255     1.0000 0.59917  0.73323  0.57400  Biso   1.000  C
  H170     1.0000 0.60817  0.69353  0.58483  Biso   1.000  H
  O115     1.0000 0.63967  0.70323  0.63753  Biso   1.000  O
  C256     1.0000 0.67307  0.77863  0.64043  Biso   1.000  C
  C257     1.0000 0.68877  0.80243  0.67593  Biso   1.000  C
  C258     1.0000 0.73077  0.77133  0.69353  Biso   1.000  C
  H171     1.0000 0.73657  0.72753  0.68483  Biso   1.000  H
  C259     1.0000 0.76417  0.80443  0.72383  Biso   1.000  C
  H172     1.0000 0.79277  0.78323  0.73583  Biso   1.000  H
  N29      1.0000 0.75557  0.86843  0.73658  Biso   1.000  N
  C260     1.0000 0.71357  0.89953  0.71903  Biso   1.000  C
  H173     1.0000 0.70777  0.94323  0.72773  Biso   1.000  H
  C261     1.0000 0.68017  0.86643  0.68873  Biso   1.000  C
  H174     1.0000 0.65157  0.88763  0.67663  Biso   1.000  H
  O116     1.0000 0.71767  0.75533  0.62763  Biso   1.000  O
  O117     1.0000 0.18533  0.96287  0.83150  Biso   1.000  O
  O118     1.0000 0.22583  0.92307  0.87563  Biso   1.000  O
  H175     1.0000 0.32993  0.20707  0.96347  Biso   1.000  H
  C262     1.0000 0.21433  0.97397  0.85995  Biso   1.000  C
  C263     1.0000 0.23513  0.05287  0.87607  Biso   1.000  C
  C264     1.0000 0.26583  0.06657  0.90734  Biso   1.000  C
  H176     1.0000 0.27483  0.02687  0.91817  Biso   1.000  H
  O119     1.0000 0.30633  0.03657  0.97087  Biso   1.000  O
  C265     1.0000 0.33973  0.11197  0.97377  Biso   1.000  C
  C266     1.0000 0.35543  0.13577  0.00927  Biso   1.000  C
  C267     1.0000 0.39743  0.10467  0.02687  Biso   1.000  C
  H177     1.0000 0.40323  0.06087  0.01817  Biso   1.000  H
  C268     1.0000 0.43083  0.13777  0.05717  Biso   1.000  C
  H178     1.0000 0.45943  0.11657  0.06917  Biso   1.000  H
  N30      1.0000 0.42223  0.20177  0.06992  Biso   1.000  N
  C269     1.0000 0.38023  0.23287  0.05237  Biso   1.000  C
  H179     1.0000 0.37443  0.27657  0.06107  Biso   1.000  H
  C270     1.0000 0.34683  0.19977  0.02207  Biso   1.000  C
  H180     1.0000 0.31823  0.22097  0.00997  Biso   1.000  H
  O120     1.0000 0.38433  0.08867  0.96097  Biso   1.000  O
  O121     1.0000 0.44420  0.14800  0.16483  Biso   1.000  O
  O122     1.0000 0.36390  0.10750  0.20896  Biso   1.000  O
  H181     1.0000 0.54380  0.00340  0.29680  Biso   1.000  H
  C271     1.0000 0.42630  0.11900  0.19328  Biso   1.000  C
  C272     1.0000 0.48440  0.09820  0.20940  Biso   1.000  C
  C273     1.0000 0.46740  0.06750  0.24067  Biso   1.000  C
  H182     1.0000 0.41870  0.05850  0.25150  Biso   1.000  H
  O123     1.0000 0.39690  0.02700  0.30420  Biso   1.000  O
  C274     1.0000 0.43890  0.99360  0.30710  Biso   1.000  C
  C275     1.0000 0.44700  0.97790  0.34260  Biso   1.000  C
  C276     1.0000 0.37390  0.93590  0.36020  Biso   1.000  C
  H183     1.0000 0.32430  0.93010  0.35150  Biso   1.000  H
  C277     1.0000 0.37360  0.90250  0.39050  Biso   1.000  C
  H184     1.0000 0.32380  0.87390  0.40250  Biso   1.000  H
  N31      1.0000 0.44620  0.91110  0.40325  Biso   1.000  N
  C278     1.0000 0.51930  0.95310  0.38570  Biso   1.000  C
  H185     1.0000 0.56880  0.95890  0.39440  Biso   1.000  H
  C279     1.0000 0.51960  0.98650  0.35540  Biso   1.000  C
  H186     1.0000 0.56940  0.01510  0.34330  Biso   1.000  H
  O124     1.0000 0.37100  0.94900  0.29430  Biso   1.000  O
  O125     1.0000 0.11087  0.48133  0.49816  Biso   1.000  O
  O126     1.0000 0.03057  0.44083  0.54229  Biso   1.000  O
  H187     1.0000 0.21047  0.33673  0.63013  Biso   1.000  H
  C280     1.0000 0.09297  0.45233  0.52661  Biso   1.000  C
  C281     1.0000 0.15107  0.43153  0.54273  Biso   1.000  C
  C282     1.0000 0.13407  0.40083  0.57400  Biso   1.000  C
  H188     1.0000 0.08537  0.39183  0.58483  Biso   1.000  H
  O127     1.0000 0.06357  0.36033  0.63753  Biso   1.000  O
  C283     1.0000 0.10557  0.32693  0.64043  Biso   1.000  C
  C284     1.0000 0.11367  0.31123  0.67593  Biso   1.000  C
  C285     1.0000 0.04057  0.26923  0.69353  Biso   1.000  C
  H189     1.0000 0.99097  0.26343  0.68483  Biso   1.000  H
  C286     1.0000 0.04027  0.23583  0.72383  Biso   1.000  C
  H190     1.0000 0.99047  0.20723  0.73583  Biso   1.000  H
  N32      1.0000 0.11287  0.24443  0.73658  Biso   1.000  N
  C287     1.0000 0.18597  0.28643  0.71903  Biso   1.000  C
  H191     1.0000 0.23547  0.29223  0.72773  Biso   1.000  H
  C288     1.0000 0.18627  0.31983  0.68873  Biso   1.000  C
  H192     1.0000 0.23607  0.34843  0.67663  Biso   1.000  H
  O128     1.0000 0.03767  0.28233  0.62763  Biso   1.000  O
  O129     1.0000 0.77753  0.81467  0.83150  Biso   1.000  O
  O130     1.0000 0.69723  0.77417  0.87563  Biso   1.000  O
  H193     1.0000 0.87713  0.67007  0.96347  Biso   1.000  H
  C289     1.0000 0.75963  0.78567  0.85995  Biso   1.000  C
  C290     1.0000 0.81773  0.76487  0.87607  Biso   1.000  C
  C291     1.0000 0.80073  0.73417  0.90734  Biso   1.000  C
  H194     1.0000 0.75203  0.72517  0.91817  Biso   1.000  H
  O131     1.0000 0.73023  0.69367  0.97087  Biso   1.000  O
  C292     1.0000 0.77223  0.66027  0.97377  Biso   1.000  C
  C293     1.0000 0.78033  0.64457  0.00927  Biso   1.000  C
  C294     1.0000 0.70723  0.60257  0.02687  Biso   1.000  C
  H195     1.0000 0.65763  0.59677  0.01817  Biso   1.000  H
  C295     1.0000 0.70693  0.56917  0.05717  Biso   1.000  C
  H196     1.0000 0.65713  0.54057  0.06917  Biso   1.000  H
  N33      1.0000 0.77953  0.57777  0.06992  Biso   1.000  N
  C296     1.0000 0.85263  0.61977  0.05237  Biso   1.000  C
  H197     1.0000 0.90213  0.62557  0.06107  Biso   1.000  H
  C297     1.0000 0.85293  0.65317  0.02207  Biso   1.000  C
  H198     1.0000 0.90273  0.68177  0.00997  Biso   1.000  H
  O132     1.0000 0.70433  0.61567  0.96097  Biso   1.000  O
  O133     1.0000 0.70380  0.55580  0.16483  Biso   1.000  O
  O134     1.0000 0.74360  0.63610  0.20896  Biso   1.000  O
  H199     1.0000 0.45960  0.45620  0.29680  Biso   1.000  H
  C298     1.0000 0.69270  0.57370  0.19328  Biso   1.000  C
  C299     1.0000 0.61380  0.51560  0.20940  Biso   1.000  C
  C300     1.0000 0.60010  0.53260  0.24067  Biso   1.000  C
  H200     1.0000 0.63980  0.58130  0.25150  Biso   1.000  H
  O135     1.0000 0.63010  0.60310  0.30420  Biso   1.000  O
  C301     1.0000 0.55470  0.56110  0.30710  Biso   1.000  C
  C302     1.0000 0.53090  0.55300  0.34260  Biso   1.000  C
  C303     1.0000 0.56200  0.62610  0.36020  Biso   1.000  C
  H201     1.0000 0.60580  0.67570  0.35150  Biso   1.000  H
  C304     1.0000 0.52890  0.62640  0.39050  Biso   1.000  C
  H202     1.0000 0.55010  0.67620  0.40250  Biso   1.000  H
  N34      1.0000 0.46490  0.55380  0.40325  Biso   1.000  N
  C305     1.0000 0.43380  0.48070  0.38570  Biso   1.000  C
  H203     1.0000 0.39010  0.43120  0.39440  Biso   1.000  H
  C306     1.0000 0.46690  0.48040  0.35540  Biso   1.000  C
  H204     1.0000 0.44570  0.43060  0.34330  Biso   1.000  H
  O136     1.0000 0.57800  0.62900  0.29430  Biso   1.000  O
  O137     1.0000 0.37047  0.88913  0.49816  Biso   1.000  O
  O138     1.0000 0.41027  0.96943  0.54229  Biso   1.000  O
  H205     1.0000 0.12627  0.78953  0.63013  Biso   1.000  H
  C307     1.0000 0.35937  0.90703  0.52661  Biso   1.000  C
  C308     1.0000 0.28047  0.84893  0.54273  Biso   1.000  C
  C309     1.0000 0.26677  0.86593  0.57400  Biso   1.000  C
  H206     1.0000 0.30647  0.91463  0.58483  Biso   1.000  H
  O139     1.0000 0.29677  0.93643  0.63753  Biso   1.000  O
  C310     1.0000 0.22137  0.89443  0.64043  Biso   1.000  C
  C311     1.0000 0.19757  0.88633  0.67593  Biso   1.000  C
  C312     1.0000 0.22867  0.95943  0.69353  Biso   1.000  C
  H207     1.0000 0.27247  0.00903  0.68483  Biso   1.000  H
  C313     1.0000 0.19557  0.95973  0.72383  Biso   1.000  C
  H208     1.0000 0.21677  0.00953  0.73583  Biso   1.000  H
  N35      1.0000 0.13157  0.88713  0.73658  Biso   1.000  N
  C314     1.0000 0.10047  0.81403  0.71903  Biso   1.000  C
  H209     1.0000 0.05677  0.76453  0.72773  Biso   1.000  H
  C315     1.0000 0.13357  0.81373  0.68873  Biso   1.000  C
  H210     1.0000 0.11237  0.76393  0.67663  Biso   1.000  H
  O140     1.0000 0.24467  0.96233  0.62763  Biso   1.000  O
  O141     1.0000 0.03713  0.22247  0.83150  Biso   1.000  O
  O142     1.0000 0.07693  0.30277  0.87563  Biso   1.000  O
  H211     1.0000 0.79293  0.12287  0.96347  Biso   1.000  H
  C316     1.0000 0.02603  0.24037  0.85995  Biso   1.000  C
  C317     1.0000 0.94713  0.18227  0.87607  Biso   1.000  C
  C318     1.0000 0.93343  0.19927  0.90734  Biso   1.000  C
  H212     1.0000 0.97313  0.24797  0.91817  Biso   1.000  H
  O143     1.0000 0.96343  0.26977  0.97087  Biso   1.000  O
  C319     1.0000 0.88803  0.22777  0.97377  Biso   1.000  C
  C320     1.0000 0.86423  0.21967  0.00927  Biso   1.000  C
  C321     1.0000 0.89533  0.29277  0.02687  Biso   1.000  C
  H213     1.0000 0.93913  0.34237  0.01817  Biso   1.000  H
  C322     1.0000 0.86223  0.29307  0.05717  Biso   1.000  C
  H214     1.0000 0.88343  0.34287  0.06917  Biso   1.000  H
  N36      1.0000 0.79823  0.22047  0.06992  Biso   1.000  N
  C323     1.0000 0.76713  0.14737  0.05237  Biso   1.000  C
  H215     1.0000 0.72343  0.09787  0.06107  Biso   1.000  H
  C324     1.0000 0.80023  0.14707  0.02207  Biso   1.000  C
  H216     1.0000 0.77903  0.09727  0.00997  Biso   1.000  H
  O144     1.0000 0.91133  0.29567  0.96097  Biso   1.000  O
  Zn1      1.0000 0.80677  0.19323  0.13739  Biso   1.000  Zn
  Zn2      1.0000 0.47344  0.52656  0.47072  Biso   1.000  Zn
  Zn3      1.0000 0.14010  0.85990  0.80406  Biso   1.000  Zn
  Zn4      1.0000 0.80677  0.61354  0.13739  Biso   1.000  Zn
  Zn5      1.0000 0.47344  0.94687  0.47072  Biso   1.000  Zn
  Zn6      1.0000 0.14010  0.28021  0.80406  Biso   1.000  Zn
  Zn7      1.0000 0.38646  0.19323  0.13739  Biso   1.000  Zn
  Zn8      1.0000 0.05313  0.52656  0.47072  Biso   1.000  Zn
  Zn9      1.0000 0.71979  0.85990  0.80406  Biso   1.000  Zn
  Zn10     1.0000 0.19323  0.80677  0.86261  Biso   1.000  Zn
  Zn11     1.0000 0.85990  0.14010  0.19594  Biso   1.000  Zn
  Zn12     1.0000 0.52656  0.47344  0.52928  Biso   1.000  Zn
  Zn13     1.0000 0.61354  0.80677  0.86261  Biso   1.000  Zn
  Zn14     1.0000 0.28021  0.14010  0.19594  Biso   1.000  Zn
  Zn15     1.0000 0.94687  0.47344  0.52928  Biso   1.000  Zn
  Zn16     1.0000 0.19323  0.38646  0.86261  Biso   1.000  Zn
  Zn17     1.0000 0.85990  0.71979  0.19594  Biso   1.000  Zn
  Zn18     1.0000 0.52656  0.05313  0.52928  Biso   1.000  Zn
  O145     1.0000 0.43865  0.87730  0.43101  Biso   1.000  O
  N37      1.0000 0.50685  0.01370  0.28828  Biso   1.000  N
  C325     1.0000 0.55725  0.11450  0.19394  Biso   1.000  C
  H217     1.0000 0.56855  0.13710  0.17250  Biso   1.000  H
  C326     1.0000 0.52455  0.04910  0.25680  Biso   1.000  C
  O146     1.0000 0.10532  0.21063  0.76434  Biso   1.000  O
  N38      1.0000 0.17352  0.34703  0.62161  Biso   1.000  N
  C327     1.0000 0.22392  0.44783  0.52727  Biso   1.000  C
  H218     1.0000 0.23522  0.47043  0.50583  Biso   1.000  H
  C328     1.0000 0.19122  0.38243  0.59013  Biso   1.000  C
  O147     1.0000 0.77198  0.54397  0.09768  Biso   1.000  O
  N39      1.0000 0.84018  0.68037  0.95495  Biso   1.000  N
  C329     1.0000 0.89058  0.78117  0.86061  Biso   1.000  C
  H219     1.0000 0.90188  0.80377  0.83917  Biso   1.000  H
  C330     1.0000 0.85788  0.71577  0.92347  Biso   1.000  C
  O148     1.0000 0.12270  0.56135  0.43101  Biso   1.000  O
  N40      1.0000 0.98630  0.49315  0.28828  Biso   1.000  N
  C331     1.0000 0.88550  0.44275  0.19394  Biso   1.000  C
  H220     1.0000 0.86290  0.43145  0.17250  Biso   1.000  H
  C332     1.0000 0.95090  0.47545  0.25680  Biso   1.000  C
  O149     1.0000 0.78937  0.89468  0.76434  Biso   1.000  O
  N41      1.0000 0.65297  0.82648  0.62161  Biso   1.000  N
  C333     1.0000 0.55217  0.77608  0.52727  Biso   1.000  C
  H221     1.0000 0.52957  0.76478  0.50583  Biso   1.000  H
  C334     1.0000 0.61757  0.80878  0.59013  Biso   1.000  C
  O150     1.0000 0.45603  0.22802  0.09768  Biso   1.000  O
  N42      1.0000 0.31963  0.15982  0.95495  Biso   1.000  N
  C335     1.0000 0.21883  0.10942  0.86061  Biso   1.000  C
  H222     1.0000 0.19623  0.09812  0.83917  Biso   1.000  H
  C336     1.0000 0.28423  0.14212  0.92347  Biso   1.000  C
  O151     1.0000 0.43865  0.56135  0.43101  Biso   1.000  O
  N43      1.0000 0.50685  0.49315  0.28828  Biso   1.000  N
  C337     1.0000 0.55725  0.44275  0.19394  Biso   1.000  C
  H223     1.0000 0.56855  0.43145  0.17250  Biso   1.000  H
  C338     1.0000 0.52455  0.47545  0.25680  Biso   1.000  C
  O152     1.0000 0.10532  0.89468  0.76434  Biso   1.000  O
  N44      1.0000 0.17352  0.82648  0.62161  Biso   1.000  N
  C339     1.0000 0.22392  0.77608  0.52727  Biso   1.000  C
  H224     1.0000 0.23522  0.76478  0.50583  Biso   1.000  H
  C340     1.0000 0.19122  0.80878  0.59013  Biso   1.000  C
  O153     1.0000 0.77198  0.22802  0.09768  Biso   1.000  O
  N45      1.0000 0.84018  0.15982  0.95495  Biso   1.000  N
  C341     1.0000 0.89058  0.10942  0.86061  Biso   1.000  C
  H225     1.0000 0.90188  0.09812  0.83917  Biso   1.000  H
  C342     1.0000 0.85788  0.14212  0.92347  Biso   1.000  C
  O154     1.0000 0.87730  0.43865  0.56899  Biso   1.000  O
  N46      1.0000 0.01370  0.50685  0.71172  Biso   1.000  N
  C343     1.0000 0.11450  0.55725  0.80606  Biso   1.000  C
  H226     1.0000 0.13710  0.56855  0.82750  Biso   1.000  H
  C344     1.0000 0.04910  0.52455  0.74320  Biso   1.000  C
  O155     1.0000 0.54397  0.77198  0.90232  Biso   1.000  O
  N47      1.0000 0.68037  0.84018  0.04505  Biso   1.000  N
  C345     1.0000 0.78117  0.89058  0.13939  Biso   1.000  C
  H227     1.0000 0.80377  0.90188  0.16083  Biso   1.000  H
  C346     1.0000 0.71577  0.85788  0.07653  Biso   1.000  C
  O156     1.0000 0.21063  0.10532  0.23566  Biso   1.000  O
  N48      1.0000 0.34703  0.17352  0.37839  Biso   1.000  N
  C347     1.0000 0.44783  0.22392  0.47273  Biso   1.000  C
  H228     1.0000 0.47043  0.23522  0.49417  Biso   1.000  H
  C348     1.0000 0.38243  0.19122  0.40987  Biso   1.000  C
  O157     1.0000 0.56135  0.12270  0.56899  Biso   1.000  O
  N49      1.0000 0.49315  0.98630  0.71172  Biso   1.000  N
  C349     1.0000 0.44275  0.88550  0.80606  Biso   1.000  C
  H229     1.0000 0.43145  0.86290  0.82750  Biso   1.000  H
  C350     1.0000 0.47545  0.95090  0.74320  Biso   1.000  C
  O158     1.0000 0.22802  0.45603  0.90232  Biso   1.000  O
  N50      1.0000 0.15982  0.31963  0.04505  Biso   1.000  N
  C351     1.0000 0.10942  0.21883  0.13939  Biso   1.000  C
  H230     1.0000 0.09812  0.19623  0.16083  Biso   1.000  H
  C352     1.0000 0.14212  0.28423  0.07653  Biso   1.000  C
  O159     1.0000 0.89468  0.78937  0.23566  Biso   1.000  O
  N51      1.0000 0.82648  0.65297  0.37839  Biso   1.000  N
  C353     1.0000 0.77608  0.55217  0.47273  Biso   1.000  C
  H231     1.0000 0.76478  0.52957  0.49417  Biso   1.000  H
  C354     1.0000 0.80878  0.61757  0.40987  Biso   1.000  C
  O160     1.0000 0.56135  0.43865  0.56899  Biso   1.000  O
  N52      1.0000 0.49315  0.50685  0.71172  Biso   1.000  N
  C355     1.0000 0.44275  0.55725  0.80606  Biso   1.000  C
  H232     1.0000 0.43145  0.56855  0.82750  Biso   1.000  H
  C356     1.0000 0.47545  0.52455  0.74320  Biso   1.000  C
  O161     1.0000 0.22802  0.77198  0.90232  Biso   1.000  O
  N53      1.0000 0.15982  0.84018  0.04505  Biso   1.000  N
  C357     1.0000 0.10942  0.89058  0.13939  Biso   1.000  C
  H233     1.0000 0.09812  0.90188  0.16083  Biso   1.000  H
  C358     1.0000 0.14212  0.85788  0.07653  Biso   1.000  C
  O162     1.0000 0.89468  0.10532  0.23566  Biso   1.000  O
  N54      1.0000 0.82648  0.17352  0.37839  Biso   1.000  N
  C359     1.0000 0.77608  0.22392  0.47273  Biso   1.000  C
  H234     1.0000 0.76478  0.23522  0.49417  Biso   1.000  H
  C360     1.0000 0.80878  0.19122  0.40987  Biso   1.000  C
