data_image0
_cell_length_a       19.3411
_cell_length_b       19.3411
_cell_length_c       37.8517
_cell_angle_alpha    90
_cell_angle_beta     90
_cell_angle_gamma    120

_symmetry_space_group_name_H-M    "P 1"
_symmetry_int_tables_number       1

loop_
  _symmetry_equiv_pos_as_xyz
  'x, y, z'

loop_
  _atom_site_label
  _atom_site_occupancy
  _atom_site_fract_x
  _atom_site_fract_y
  _atom_site_fract_z
  _atom_site_thermal_displace_type
  _atom_site_B_iso_or_equiv
  _atom_site_type_symbol
  O1       1.0000 0.21900  0.29170  0.87030  Biso   1.000  O
  O2       1.0000 0.18200  0.21751  0.82129  Biso   1.000  O
  H1       1.0000 0.34030  0.12980  0.95950  Biso   1.000  H
  C1       1.0000 0.27450  0.19960  0.90058  Biso   1.000  C
  H2       1.0000 0.28750  0.24770  0.91140  Biso   1.000  H
  C2       1.0000 0.23650  0.18000  0.86837  Biso   1.000  C
  C3       1.0000 0.21050  0.23420  0.85185  Biso   1.000  C
  N1       1.0000 0.39860  0.20440  0.07988  Biso   1.000  N
  C4       1.0000 0.40950  0.27550  0.06577  Biso   1.000  C
  H3       1.0000 0.42390  0.31920  0.08040  Biso   1.000  H
  C5       1.0000 0.39870  0.28110  0.02980  Biso   1.000  C
  H4       1.0000 0.40600  0.32870  0.02040  Biso   1.000  H
  C6       1.0000 0.37720  0.21570  0.00793  Biso   1.000  C
  C7       1.0000 0.36630  0.14460  0.02204  Biso   1.000  C
  H5       1.0000 0.35190  0.10080  0.00740  Biso   1.000  H
  C8       1.0000 0.37700  0.13890  0.05801  Biso   1.000  C
  H6       1.0000 0.36980  0.09140  0.06740  Biso   1.000  H
  O3       1.0000 0.38210  0.31240  0.95890  Biso   1.000  O
  C9       1.0000 0.35660  0.22760  0.96950  Biso   1.000  C
  O4       1.0000 0.88567  0.62503  0.20363  Biso   1.000  O
  O5       1.0000 0.84867  0.55084  0.15462  Biso   1.000  O
  H7       1.0000 0.00697  0.46313  0.29283  Biso   1.000  H
  C10      1.0000 0.94117  0.53293  0.23391  Biso   1.000  C
  H8       1.0000 0.95417  0.58103  0.24473  Biso   1.000  H
  C11      1.0000 0.90317  0.51333  0.20170  Biso   1.000  C
  C12      1.0000 0.87717  0.56753  0.18518  Biso   1.000  C
  N2       1.0000 0.06527  0.53773  0.41321  Biso   1.000  N
  C13      1.0000 0.07617  0.60883  0.39910  Biso   1.000  C
  H9       1.0000 0.09057  0.65253  0.41373  Biso   1.000  H
  C14      1.0000 0.06537  0.61443  0.36313  Biso   1.000  C
  H10      1.0000 0.07267  0.66203  0.35373  Biso   1.000  H
  C15      1.0000 0.04387  0.54903  0.34126  Biso   1.000  C
  C16      1.0000 0.03297  0.47793  0.35537  Biso   1.000  C
  H11      1.0000 0.01857  0.43413  0.34073  Biso   1.000  H
  C17      1.0000 0.04367  0.47223  0.39134  Biso   1.000  C
  H12      1.0000 0.03647  0.42473  0.40073  Biso   1.000  H
  O6       1.0000 0.04877  0.64573  0.29223  Biso   1.000  O
  C18      1.0000 0.02327  0.56093  0.30283  Biso   1.000  C
  O7       1.0000 0.55233  0.95837  0.53697  Biso   1.000  O
  O8       1.0000 0.51533  0.88418  0.48796  Biso   1.000  O
  H13      1.0000 0.67363  0.79647  0.62617  Biso   1.000  H
  C19      1.0000 0.60783  0.86627  0.56725  Biso   1.000  C
  H14      1.0000 0.62083  0.91437  0.57807  Biso   1.000  H
  C20      1.0000 0.56983  0.84667  0.53504  Biso   1.000  C
  C21      1.0000 0.54383  0.90087  0.51852  Biso   1.000  C
  N3       1.0000 0.73193  0.87107  0.74655  Biso   1.000  N
  C22      1.0000 0.74283  0.94217  0.73244  Biso   1.000  C
  H15      1.0000 0.75723  0.98587  0.74707  Biso   1.000  H
  C23      1.0000 0.73203  0.94777  0.69647  Biso   1.000  C
  H16      1.0000 0.73933  0.99537  0.68707  Biso   1.000  H
  C24      1.0000 0.71053  0.88237  0.67460  Biso   1.000  C
  C25      1.0000 0.69963  0.81127  0.68871  Biso   1.000  C
  H17      1.0000 0.68523  0.76747  0.67407  Biso   1.000  H
  C26      1.0000 0.71033  0.80557  0.72468  Biso   1.000  C
  H18      1.0000 0.70313  0.75807  0.73407  Biso   1.000  H
  O9       1.0000 0.71543  0.97907  0.62557  Biso   1.000  O
  C27      1.0000 0.68993  0.89427  0.63617  Biso   1.000  C
  O10      1.0000 0.70830  0.92730  0.87030  Biso   1.000  O
  O11      1.0000 0.78249  0.96449  0.82129  Biso   1.000  O
  H19      1.0000 0.87020  0.21050  0.95950  Biso   1.000  H
  C28      1.0000 0.80040  0.07490  0.90058  Biso   1.000  C
  H20      1.0000 0.75230  0.03980  0.91140  Biso   1.000  H
  C29      1.0000 0.82000  0.05650  0.86837  Biso   1.000  C
  C30      1.0000 0.76580  0.97630  0.85185  Biso   1.000  C
  N4       1.0000 0.79560  0.19420  0.07988  Biso   1.000  N
  C31      1.0000 0.72450  0.13400  0.06577  Biso   1.000  C
  H21      1.0000 0.68080  0.10470  0.08040  Biso   1.000  H
  C32      1.0000 0.71890  0.11760  0.02980  Biso   1.000  C
  H22      1.0000 0.67130  0.07730  0.02040  Biso   1.000  H
  C33      1.0000 0.78430  0.16150  0.00793  Biso   1.000  C
  C34      1.0000 0.85540  0.22170  0.02204  Biso   1.000  C
  H23      1.0000 0.89920  0.25110  0.00740  Biso   1.000  H
  C35      1.0000 0.86110  0.23810  0.05801  Biso   1.000  C
  H24      1.0000 0.90860  0.27840  0.06740  Biso   1.000  H
  O12      1.0000 0.68760  0.06970  0.95890  Biso   1.000  O
  C36      1.0000 0.77240  0.12900  0.96950  Biso   1.000  C
  O13      1.0000 0.37497  0.26063  0.20363  Biso   1.000  O
  O14      1.0000 0.44916  0.29782  0.15462  Biso   1.000  O
  H25      1.0000 0.53687  0.54383  0.29283  Biso   1.000  H
  C37      1.0000 0.46707  0.40823  0.23391  Biso   1.000  C
  H26      1.0000 0.41897  0.37313  0.24473  Biso   1.000  H
  C38      1.0000 0.48667  0.38983  0.20170  Biso   1.000  C
  C39      1.0000 0.43247  0.30963  0.18518  Biso   1.000  C
  N5       1.0000 0.46227  0.52753  0.41321  Biso   1.000  N
  C40      1.0000 0.39117  0.46733  0.39910  Biso   1.000  C
  H27      1.0000 0.34747  0.43803  0.41373  Biso   1.000  H
  C41      1.0000 0.38557  0.45093  0.36313  Biso   1.000  C
  H28      1.0000 0.33797  0.41063  0.35373  Biso   1.000  H
  C42      1.0000 0.45097  0.49483  0.34126  Biso   1.000  C
  C43      1.0000 0.52207  0.55503  0.35537  Biso   1.000  C
  H29      1.0000 0.56587  0.58443  0.34073  Biso   1.000  H
  C44      1.0000 0.52777  0.57143  0.39134  Biso   1.000  C
  H30      1.0000 0.57527  0.61173  0.40073  Biso   1.000  H
  O15      1.0000 0.35427  0.40303  0.29223  Biso   1.000  O
  C45      1.0000 0.43907  0.46233  0.30283  Biso   1.000  C
  O16      1.0000 0.04163  0.59397  0.53697  Biso   1.000  O
  O17      1.0000 0.11582  0.63116  0.48796  Biso   1.000  O
  H31      1.0000 0.20353  0.87717  0.62617  Biso   1.000  H
  C46      1.0000 0.13373  0.74157  0.56725  Biso   1.000  C
  H32      1.0000 0.08563  0.70647  0.57807  Biso   1.000  H
  C47      1.0000 0.15333  0.72317  0.53504  Biso   1.000  C
  C48      1.0000 0.09913  0.64297  0.51852  Biso   1.000  C
  N6       1.0000 0.12893  0.86087  0.74655  Biso   1.000  N
  C49      1.0000 0.05783  0.80067  0.73244  Biso   1.000  C
  H33      1.0000 0.01413  0.77137  0.74707  Biso   1.000  H
  C50      1.0000 0.05223  0.78427  0.69647  Biso   1.000  C
  H34      1.0000 0.00463  0.74397  0.68707  Biso   1.000  H
  C51      1.0000 0.11763  0.82817  0.67460  Biso   1.000  C
  C52      1.0000 0.18873  0.88837  0.68871  Biso   1.000  C
  H35      1.0000 0.23253  0.91777  0.67407  Biso   1.000  H
  C53      1.0000 0.19443  0.90477  0.72468  Biso   1.000  C
  H36      1.0000 0.24193  0.94507  0.73407  Biso   1.000  H
  O18      1.0000 0.02093  0.73637  0.62557  Biso   1.000  O
  C54      1.0000 0.10573  0.79567  0.63617  Biso   1.000  C
  O19      1.0000 0.07270  0.78100  0.87030  Biso   1.000  O
  O20      1.0000 0.03551  0.81800  0.82129  Biso   1.000  O
  H37      1.0000 0.78950  0.65970  0.95950  Biso   1.000  H
  C55      1.0000 0.92510  0.72550  0.90058  Biso   1.000  C
  H38      1.0000 0.96020  0.71250  0.91140  Biso   1.000  H
  C56      1.0000 0.94350  0.76350  0.86837  Biso   1.000  C
  C57      1.0000 0.02370  0.78950  0.85185  Biso   1.000  C
  N7       1.0000 0.80580  0.60140  0.07988  Biso   1.000  N
  C58      1.0000 0.86600  0.59050  0.06577  Biso   1.000  C
  H39      1.0000 0.89530  0.57610  0.08040  Biso   1.000  H
  C59      1.0000 0.88240  0.60130  0.02980  Biso   1.000  C
  H40      1.0000 0.92270  0.59400  0.02040  Biso   1.000  H
  C60      1.0000 0.83850  0.62280  0.00793  Biso   1.000  C
  C61      1.0000 0.77830  0.63370  0.02204  Biso   1.000  C
  H41      1.0000 0.74890  0.64810  0.00740  Biso   1.000  H
  C62      1.0000 0.76190  0.62300  0.05801  Biso   1.000  C
  H42      1.0000 0.72160  0.63020  0.06740  Biso   1.000  H
  O21      1.0000 0.93030  0.61790  0.95890  Biso   1.000  O
  C63      1.0000 0.87100  0.64340  0.96950  Biso   1.000  C
  O22      1.0000 0.73937  0.11433  0.20363  Biso   1.000  O
  O23      1.0000 0.70218  0.15133  0.15462  Biso   1.000  O
  H43      1.0000 0.45617  0.99303  0.29283  Biso   1.000  H
  C64      1.0000 0.59177  0.05883  0.23391  Biso   1.000  C
  H44      1.0000 0.62687  0.04583  0.24473  Biso   1.000  H
  C65      1.0000 0.61017  0.09683  0.20170  Biso   1.000  C
  C66      1.0000 0.69037  0.12283  0.18518  Biso   1.000  C
  N8       1.0000 0.47247  0.93473  0.41321  Biso   1.000  N
  C67      1.0000 0.53267  0.92383  0.39910  Biso   1.000  C
  H45      1.0000 0.56197  0.90943  0.41373  Biso   1.000  H
  C68      1.0000 0.54907  0.93463  0.36313  Biso   1.000  C
  H46      1.0000 0.58937  0.92733  0.35373  Biso   1.000  H
  C69      1.0000 0.50517  0.95613  0.34126  Biso   1.000  C
  C70      1.0000 0.44497  0.96703  0.35537  Biso   1.000  C
  H47      1.0000 0.41557  0.98143  0.34073  Biso   1.000  H
  C71      1.0000 0.42857  0.95633  0.39134  Biso   1.000  C
  H48      1.0000 0.38827  0.96353  0.40073  Biso   1.000  H
  O24      1.0000 0.59697  0.95123  0.29223  Biso   1.000  O
  C72      1.0000 0.53767  0.97673  0.30283  Biso   1.000  C
  O25      1.0000 0.40603  0.44767  0.53697  Biso   1.000  O
  O26      1.0000 0.36884  0.48467  0.48796  Biso   1.000  O
  H49      1.0000 0.12283  0.32637  0.62617  Biso   1.000  H
  C73      1.0000 0.25843  0.39217  0.56725  Biso   1.000  C
  H50      1.0000 0.29353  0.37917  0.57807  Biso   1.000  H
  C74      1.0000 0.27683  0.43017  0.53504  Biso   1.000  C
  C75      1.0000 0.35703  0.45617  0.51852  Biso   1.000  C
  N9       1.0000 0.13913  0.26807  0.74655  Biso   1.000  N
  C76      1.0000 0.19933  0.25717  0.73244  Biso   1.000  C
  H51      1.0000 0.22863  0.24277  0.74707  Biso   1.000  H
  C77      1.0000 0.21573  0.26797  0.69647  Biso   1.000  C
  H52      1.0000 0.25603  0.26067  0.68707  Biso   1.000  H
  C78      1.0000 0.17183  0.28947  0.67460  Biso   1.000  C
  C79      1.0000 0.11163  0.30037  0.68871  Biso   1.000  C
  H53      1.0000 0.08223  0.31477  0.67407  Biso   1.000  H
  C80      1.0000 0.09523  0.28967  0.72468  Biso   1.000  C
  H54      1.0000 0.05493  0.29687  0.73407  Biso   1.000  H
  O27      1.0000 0.26363  0.28457  0.62557  Biso   1.000  O
  C81      1.0000 0.20433  0.31007  0.63617  Biso   1.000  C
  O28      1.0000 0.29170  0.21900  0.12970  Biso   1.000  O
  O29      1.0000 0.21751  0.18200  0.17871  Biso   1.000  O
  H55      1.0000 0.12980  0.34030  0.04050  Biso   1.000  H
  C82      1.0000 0.19960  0.27450  0.09942  Biso   1.000  C
  H56      1.0000 0.24770  0.28750  0.08860  Biso   1.000  H
  C83      1.0000 0.18000  0.23650  0.13163  Biso   1.000  C
  C84      1.0000 0.23420  0.21050  0.14815  Biso   1.000  C
  N10      1.0000 0.20440  0.39860  0.92012  Biso   1.000  N
  C85      1.0000 0.27550  0.40950  0.93423  Biso   1.000  C
  H57      1.0000 0.31920  0.42390  0.91960  Biso   1.000  H
  C86      1.0000 0.28110  0.39870  0.97020  Biso   1.000  C
  H58      1.0000 0.32870  0.40600  0.97960  Biso   1.000  H
  C87      1.0000 0.21570  0.37720  0.99207  Biso   1.000  C
  C88      1.0000 0.14460  0.36630  0.97796  Biso   1.000  C
  H59      1.0000 0.10080  0.35190  0.99260  Biso   1.000  H
  C89      1.0000 0.13890  0.37700  0.94199  Biso   1.000  C
  H60      1.0000 0.09140  0.36980  0.93260  Biso   1.000  H
  O30      1.0000 0.31240  0.38210  0.04110  Biso   1.000  O
  C90      1.0000 0.22760  0.35660  0.03050  Biso   1.000  C
  O31      1.0000 0.95837  0.55233  0.46303  Biso   1.000  O
  O32      1.0000 0.88418  0.51533  0.51204  Biso   1.000  O
  H61      1.0000 0.79647  0.67363  0.37383  Biso   1.000  H
  C91      1.0000 0.86627  0.60783  0.43275  Biso   1.000  C
  H62      1.0000 0.91437  0.62083  0.42193  Biso   1.000  H
  C92      1.0000 0.84667  0.56983  0.46496  Biso   1.000  C
  C93      1.0000 0.90087  0.54383  0.48148  Biso   1.000  C
  N11      1.0000 0.87107  0.73193  0.25345  Biso   1.000  N
  C94      1.0000 0.94217  0.74283  0.26756  Biso   1.000  C
  H63      1.0000 0.98587  0.75723  0.25293  Biso   1.000  H
  C95      1.0000 0.94777  0.73203  0.30353  Biso   1.000  C
  H64      1.0000 0.99537  0.73933  0.31293  Biso   1.000  H
  C96      1.0000 0.88237  0.71053  0.32540  Biso   1.000  C
  C97      1.0000 0.81127  0.69963  0.31129  Biso   1.000  C
  H65      1.0000 0.76747  0.68523  0.32593  Biso   1.000  H
  C98      1.0000 0.80557  0.71033  0.27532  Biso   1.000  C
  H66      1.0000 0.75807  0.70313  0.26593  Biso   1.000  H
  O33      1.0000 0.97907  0.71543  0.37443  Biso   1.000  O
  C99      1.0000 0.89427  0.68993  0.36383  Biso   1.000  C
  O34      1.0000 0.62503  0.88567  0.79637  Biso   1.000  O
  O35      1.0000 0.55084  0.84867  0.84538  Biso   1.000  O
  H67      1.0000 0.46313  0.00697  0.70717  Biso   1.000  H
  C100     1.0000 0.53293  0.94117  0.76609  Biso   1.000  C
  H68      1.0000 0.58103  0.95417  0.75527  Biso   1.000  H
  C101     1.0000 0.51333  0.90317  0.79830  Biso   1.000  C
  C102     1.0000 0.56753  0.87717  0.81482  Biso   1.000  C
  N12      1.0000 0.53773  0.06527  0.58679  Biso   1.000  N
  C103     1.0000 0.60883  0.07617  0.60090  Biso   1.000  C
  H69      1.0000 0.65253  0.09057  0.58627  Biso   1.000  H
  C104     1.0000 0.61443  0.06537  0.63687  Biso   1.000  C
  H70      1.0000 0.66203  0.07267  0.64627  Biso   1.000  H
  C105     1.0000 0.54903  0.04387  0.65874  Biso   1.000  C
  C106     1.0000 0.47793  0.03297  0.64463  Biso   1.000  C
  H71      1.0000 0.43413  0.01857  0.65927  Biso   1.000  H
  C107     1.0000 0.47223  0.04367  0.60866  Biso   1.000  C
  H72      1.0000 0.42473  0.03647  0.59927  Biso   1.000  H
  O36      1.0000 0.64573  0.04877  0.70777  Biso   1.000  O
  C108     1.0000 0.56093  0.02327  0.69717  Biso   1.000  C
  O37      1.0000 0.92730  0.70830  0.12970  Biso   1.000  O
  O38      1.0000 0.96449  0.78249  0.17871  Biso   1.000  O
  H73      1.0000 0.21050  0.87020  0.04050  Biso   1.000  H
  C109     1.0000 0.07490  0.80040  0.09942  Biso   1.000  C
  H74      1.0000 0.03980  0.75230  0.08860  Biso   1.000  H
  C110     1.0000 0.05650  0.82000  0.13163  Biso   1.000  C
  C111     1.0000 0.97630  0.76580  0.14815  Biso   1.000  C
  N13      1.0000 0.19420  0.79560  0.92012  Biso   1.000  N
  C112     1.0000 0.13400  0.72450  0.93423  Biso   1.000  C
  H75      1.0000 0.10470  0.68080  0.91960  Biso   1.000  H
  C113     1.0000 0.11760  0.71890  0.97020  Biso   1.000  C
  H76      1.0000 0.07730  0.67130  0.97960  Biso   1.000  H
  C114     1.0000 0.16150  0.78430  0.99207  Biso   1.000  C
  C115     1.0000 0.22170  0.85540  0.97796  Biso   1.000  C
  H77      1.0000 0.25110  0.89920  0.99260  Biso   1.000  H
  C116     1.0000 0.23810  0.86110  0.94199  Biso   1.000  C
  H78      1.0000 0.27840  0.90860  0.93260  Biso   1.000  H
  O39      1.0000 0.06970  0.68760  0.04110  Biso   1.000  O
  C117     1.0000 0.12900  0.77240  0.03050  Biso   1.000  C
  O40      1.0000 0.59397  0.04163  0.46303  Biso   1.000  O
  O41      1.0000 0.63116  0.11582  0.51204  Biso   1.000  O
  H79      1.0000 0.87717  0.20353  0.37383  Biso   1.000  H
  C118     1.0000 0.74157  0.13373  0.43275  Biso   1.000  C
  H80      1.0000 0.70647  0.08563  0.42193  Biso   1.000  H
  C119     1.0000 0.72317  0.15333  0.46496  Biso   1.000  C
  C120     1.0000 0.64297  0.09913  0.48148  Biso   1.000  C
  N14      1.0000 0.86087  0.12893  0.25345  Biso   1.000  N
  C121     1.0000 0.80067  0.05783  0.26756  Biso   1.000  C
  H81      1.0000 0.77137  0.01413  0.25293  Biso   1.000  H
  C122     1.0000 0.78427  0.05223  0.30353  Biso   1.000  C
  H82      1.0000 0.74397  0.00463  0.31293  Biso   1.000  H
  C123     1.0000 0.82817  0.11763  0.32540  Biso   1.000  C
  C124     1.0000 0.88837  0.18873  0.31129  Biso   1.000  C
  H83      1.0000 0.91777  0.23253  0.32593  Biso   1.000  H
  C125     1.0000 0.90477  0.19443  0.27532  Biso   1.000  C
  H84      1.0000 0.94507  0.24193  0.26593  Biso   1.000  H
  O42      1.0000 0.73637  0.02093  0.37443  Biso   1.000  O
  C126     1.0000 0.79567  0.10573  0.36383  Biso   1.000  C
  O43      1.0000 0.26063  0.37497  0.79637  Biso   1.000  O
  O44      1.0000 0.29782  0.44916  0.84538  Biso   1.000  O
  H85      1.0000 0.54383  0.53687  0.70717  Biso   1.000  H
  C127     1.0000 0.40823  0.46707  0.76609  Biso   1.000  C
  H86      1.0000 0.37313  0.41897  0.75527  Biso   1.000  H
  C128     1.0000 0.38983  0.48667  0.79830  Biso   1.000  C
  C129     1.0000 0.30963  0.43247  0.81482  Biso   1.000  C
  N15      1.0000 0.52753  0.46227  0.58679  Biso   1.000  N
  C130     1.0000 0.46733  0.39117  0.60090  Biso   1.000  C
  H87      1.0000 0.43803  0.34747  0.58627  Biso   1.000  H
  C131     1.0000 0.45093  0.38557  0.63687  Biso   1.000  C
  H88      1.0000 0.41063  0.33797  0.64627  Biso   1.000  H
  C132     1.0000 0.49483  0.45097  0.65874  Biso   1.000  C
  C133     1.0000 0.55503  0.52207  0.64463  Biso   1.000  C
  H89      1.0000 0.58443  0.56587  0.65927  Biso   1.000  H
  C134     1.0000 0.57143  0.52777  0.60866  Biso   1.000  C
  H90      1.0000 0.61173  0.57527  0.59927  Biso   1.000  H
  O45      1.0000 0.40303  0.35427  0.70777  Biso   1.000  O
  C135     1.0000 0.46233  0.43907  0.69717  Biso   1.000  C
  O46      1.0000 0.78100  0.07270  0.12970  Biso   1.000  O
  O47      1.0000 0.81800  0.03551  0.17871  Biso   1.000  O
  H91      1.0000 0.65970  0.78950  0.04050  Biso   1.000  H
  C136     1.0000 0.72550  0.92510  0.09942  Biso   1.000  C
  H92      1.0000 0.71250  0.96020  0.08860  Biso   1.000  H
  C137     1.0000 0.76350  0.94350  0.13163  Biso   1.000  C
  C138     1.0000 0.78950  0.02370  0.14815  Biso   1.000  C
  N16      1.0000 0.60140  0.80580  0.92012  Biso   1.000  N
  C139     1.0000 0.59050  0.86600  0.93423  Biso   1.000  C
  H93      1.0000 0.57610  0.89530  0.91960  Biso   1.000  H
  C140     1.0000 0.60130  0.88240  0.97020  Biso   1.000  C
  H94      1.0000 0.59400  0.92270  0.97960  Biso   1.000  H
  C141     1.0000 0.62280  0.83850  0.99207  Biso   1.000  C
  C142     1.0000 0.63370  0.77830  0.97796  Biso   1.000  C
  H95      1.0000 0.64810  0.74890  0.99260  Biso   1.000  H
  C143     1.0000 0.62300  0.76190  0.94199  Biso   1.000  C
  H96      1.0000 0.63020  0.72160  0.93260  Biso   1.000  H
  O48      1.0000 0.61790  0.93030  0.04110  Biso   1.000  O
  C144     1.0000 0.64340  0.87100  0.03050  Biso   1.000  C
  O49      1.0000 0.44767  0.40603  0.46303  Biso   1.000  O
  O50      1.0000 0.48467  0.36884  0.51204  Biso   1.000  O
  H97      1.0000 0.32637  0.12283  0.37383  Biso   1.000  H
  C145     1.0000 0.39217  0.25843  0.43275  Biso   1.000  C
  H98      1.0000 0.37917  0.29353  0.42193  Biso   1.000  H
  C146     1.0000 0.43017  0.27683  0.46496  Biso   1.000  C
  C147     1.0000 0.45617  0.35703  0.48148  Biso   1.000  C
  N17      1.0000 0.26807  0.13913  0.25345  Biso   1.000  N
  C148     1.0000 0.25717  0.19933  0.26756  Biso   1.000  C
  H99      1.0000 0.24277  0.22863  0.25293  Biso   1.000  H
  C149     1.0000 0.26797  0.21573  0.30353  Biso   1.000  C
  H100     1.0000 0.26067  0.25603  0.31293  Biso   1.000  H
  C150     1.0000 0.28947  0.17183  0.32540  Biso   1.000  C
  C151     1.0000 0.30037  0.11163  0.31129  Biso   1.000  C
  H101     1.0000 0.31477  0.08223  0.32593  Biso   1.000  H
  C152     1.0000 0.28967  0.09523  0.27532  Biso   1.000  C
  H102     1.0000 0.29687  0.05493  0.26593  Biso   1.000  H
  O51      1.0000 0.28457  0.26363  0.37443  Biso   1.000  O
  C153     1.0000 0.31007  0.20433  0.36383  Biso   1.000  C
  O52      1.0000 0.11433  0.73937  0.79637  Biso   1.000  O
  O53      1.0000 0.15133  0.70218  0.84538  Biso   1.000  O
  H103     1.0000 0.99303  0.45617  0.70717  Biso   1.000  H
  C154     1.0000 0.05883  0.59177  0.76609  Biso   1.000  C
  H104     1.0000 0.04583  0.62687  0.75527  Biso   1.000  H
  C155     1.0000 0.09683  0.61017  0.79830  Biso   1.000  C
  C156     1.0000 0.12283  0.69037  0.81482  Biso   1.000  C
  N18      1.0000 0.93473  0.47247  0.58679  Biso   1.000  N
  C157     1.0000 0.92383  0.53267  0.60090  Biso   1.000  C
  H105     1.0000 0.90943  0.56197  0.58627  Biso   1.000  H
  C158     1.0000 0.93463  0.54907  0.63687  Biso   1.000  C
  H106     1.0000 0.92733  0.58937  0.64627  Biso   1.000  H
  C159     1.0000 0.95613  0.50517  0.65874  Biso   1.000  C
  C160     1.0000 0.96703  0.44497  0.64463  Biso   1.000  C
  H107     1.0000 0.98143  0.41557  0.65927  Biso   1.000  H
  C161     1.0000 0.95633  0.42857  0.60866  Biso   1.000  C
  H108     1.0000 0.96353  0.38827  0.59927  Biso   1.000  H
  O54      1.0000 0.95123  0.59697  0.70777  Biso   1.000  O
  C162     1.0000 0.97673  0.53767  0.69717  Biso   1.000  C
  O55      1.0000 0.78100  0.70830  0.12970  Biso   1.000  O
  O56      1.0000 0.81800  0.78249  0.17871  Biso   1.000  O
  H109     1.0000 0.65970  0.87020  0.04050  Biso   1.000  H
  C163     1.0000 0.72550  0.80040  0.09942  Biso   1.000  C
  H110     1.0000 0.71250  0.75230  0.08860  Biso   1.000  H
  C164     1.0000 0.76350  0.82000  0.13163  Biso   1.000  C
  C165     1.0000 0.78950  0.76580  0.14815  Biso   1.000  C
  N19      1.0000 0.60140  0.79560  0.92012  Biso   1.000  N
  C166     1.0000 0.59050  0.72450  0.93423  Biso   1.000  C
  H111     1.0000 0.57610  0.68080  0.91960  Biso   1.000  H
  C167     1.0000 0.60130  0.71890  0.97020  Biso   1.000  C
  H112     1.0000 0.59400  0.67130  0.97960  Biso   1.000  H
  C168     1.0000 0.62280  0.78430  0.99207  Biso   1.000  C
  C169     1.0000 0.63370  0.85540  0.97796  Biso   1.000  C
  H113     1.0000 0.64810  0.89920  0.99260  Biso   1.000  H
  C170     1.0000 0.62300  0.86110  0.94199  Biso   1.000  C
  H114     1.0000 0.63020  0.90860  0.93260  Biso   1.000  H
  O57      1.0000 0.61790  0.68760  0.04110  Biso   1.000  O
  C171     1.0000 0.64340  0.77240  0.03050  Biso   1.000  C
  O58      1.0000 0.44767  0.04163  0.46303  Biso   1.000  O
  O59      1.0000 0.48467  0.11582  0.51204  Biso   1.000  O
  H115     1.0000 0.32637  0.20353  0.37383  Biso   1.000  H
  C172     1.0000 0.39217  0.13373  0.43275  Biso   1.000  C
  H116     1.0000 0.37917  0.08563  0.42193  Biso   1.000  H
  C173     1.0000 0.43017  0.15333  0.46496  Biso   1.000  C
  C174     1.0000 0.45617  0.09913  0.48148  Biso   1.000  C
  N20      1.0000 0.26807  0.12893  0.25345  Biso   1.000  N
  C175     1.0000 0.25717  0.05783  0.26756  Biso   1.000  C
  H117     1.0000 0.24277  0.01413  0.25293  Biso   1.000  H
  C176     1.0000 0.26797  0.05223  0.30353  Biso   1.000  C
  H118     1.0000 0.26067  0.00463  0.31293  Biso   1.000  H
  C177     1.0000 0.28947  0.11763  0.32540  Biso   1.000  C
  C178     1.0000 0.30037  0.18873  0.31129  Biso   1.000  C
  H119     1.0000 0.31477  0.23253  0.32593  Biso   1.000  H
  C179     1.0000 0.28967  0.19443  0.27532  Biso   1.000  C
  H120     1.0000 0.29687  0.24193  0.26593  Biso   1.000  H
  O60      1.0000 0.28457  0.02093  0.37443  Biso   1.000  O
  C180     1.0000 0.31007  0.10573  0.36383  Biso   1.000  C
  O61      1.0000 0.11433  0.37497  0.79637  Biso   1.000  O
  O62      1.0000 0.15133  0.44916  0.84538  Biso   1.000  O
  H121     1.0000 0.99303  0.53687  0.70717  Biso   1.000  H
  C181     1.0000 0.05883  0.46707  0.76609  Biso   1.000  C
  H122     1.0000 0.04583  0.41897  0.75527  Biso   1.000  H
  C182     1.0000 0.09683  0.48667  0.79830  Biso   1.000  C
  C183     1.0000 0.12283  0.43247  0.81482  Biso   1.000  C
  N21      1.0000 0.93473  0.46227  0.58679  Biso   1.000  N
  C184     1.0000 0.92383  0.39117  0.60090  Biso   1.000  C
  H123     1.0000 0.90943  0.34747  0.58627  Biso   1.000  H
  C185     1.0000 0.93463  0.38557  0.63687  Biso   1.000  C
  H124     1.0000 0.92733  0.33797  0.64627  Biso   1.000  H
  C186     1.0000 0.95613  0.45097  0.65874  Biso   1.000  C
  C187     1.0000 0.96703  0.52207  0.64463  Biso   1.000  C
  H125     1.0000 0.98143  0.56587  0.65927  Biso   1.000  H
  C188     1.0000 0.95633  0.52777  0.60866  Biso   1.000  C
  H126     1.0000 0.96353  0.57527  0.59927  Biso   1.000  H
  O63      1.0000 0.95123  0.35427  0.70777  Biso   1.000  O
  C189     1.0000 0.97673  0.43907  0.69717  Biso   1.000  C
  O64      1.0000 0.29170  0.07270  0.12970  Biso   1.000  O
  O65      1.0000 0.21751  0.03551  0.17871  Biso   1.000  O
  H127     1.0000 0.12980  0.78950  0.04050  Biso   1.000  H
  C190     1.0000 0.19960  0.92510  0.09942  Biso   1.000  C
  H128     1.0000 0.24770  0.96020  0.08860  Biso   1.000  H
  C191     1.0000 0.18000  0.94350  0.13163  Biso   1.000  C
  C192     1.0000 0.23420  0.02370  0.14815  Biso   1.000  C
  N22      1.0000 0.20440  0.80580  0.92012  Biso   1.000  N
  C193     1.0000 0.27550  0.86600  0.93423  Biso   1.000  C
  H129     1.0000 0.31920  0.89530  0.91960  Biso   1.000  H
  C194     1.0000 0.28110  0.88240  0.97020  Biso   1.000  C
  H130     1.0000 0.32870  0.92270  0.97960  Biso   1.000  H
  C195     1.0000 0.21570  0.83850  0.99207  Biso   1.000  C
  C196     1.0000 0.14460  0.77830  0.97796  Biso   1.000  C
  H131     1.0000 0.10080  0.74890  0.99260  Biso   1.000  H
  C197     1.0000 0.13890  0.76190  0.94199  Biso   1.000  C
  H132     1.0000 0.09140  0.72160  0.93260  Biso   1.000  H
  O66      1.0000 0.31240  0.93030  0.04110  Biso   1.000  O
  C198     1.0000 0.22760  0.87100  0.03050  Biso   1.000  C
  O67      1.0000 0.95837  0.40603  0.46303  Biso   1.000  O
  O68      1.0000 0.88418  0.36884  0.51204  Biso   1.000  O
  H133     1.0000 0.79647  0.12283  0.37383  Biso   1.000  H
  C199     1.0000 0.86627  0.25843  0.43275  Biso   1.000  C
  H134     1.0000 0.91437  0.29353  0.42193  Biso   1.000  H
  C200     1.0000 0.84667  0.27683  0.46496  Biso   1.000  C
  C201     1.0000 0.90087  0.35703  0.48148  Biso   1.000  C
  N23      1.0000 0.87107  0.13913  0.25345  Biso   1.000  N
  C202     1.0000 0.94217  0.19933  0.26756  Biso   1.000  C
  H135     1.0000 0.98587  0.22863  0.25293  Biso   1.000  H
  C203     1.0000 0.94777  0.21573  0.30353  Biso   1.000  C
  H136     1.0000 0.99537  0.25603  0.31293  Biso   1.000  H
  C204     1.0000 0.88237  0.17183  0.32540  Biso   1.000  C
  C205     1.0000 0.81127  0.11163  0.31129  Biso   1.000  C
  H137     1.0000 0.76747  0.08223  0.32593  Biso   1.000  H
  C206     1.0000 0.80557  0.09523  0.27532  Biso   1.000  C
  H138     1.0000 0.75807  0.05493  0.26593  Biso   1.000  H
  O69      1.0000 0.97907  0.26363  0.37443  Biso   1.000  O
  C207     1.0000 0.89427  0.20433  0.36383  Biso   1.000  C
  O70      1.0000 0.62503  0.73937  0.79637  Biso   1.000  O
  O71      1.0000 0.55084  0.70218  0.84538  Biso   1.000  O
  H139     1.0000 0.46313  0.45617  0.70717  Biso   1.000  H
  C208     1.0000 0.53293  0.59177  0.76609  Biso   1.000  C
  H140     1.0000 0.58103  0.62687  0.75527  Biso   1.000  H
  C209     1.0000 0.51333  0.61017  0.79830  Biso   1.000  C
  C210     1.0000 0.56753  0.69037  0.81482  Biso   1.000  C
  N24      1.0000 0.53773  0.47247  0.58679  Biso   1.000  N
  C211     1.0000 0.60883  0.53267  0.60090  Biso   1.000  C
  H141     1.0000 0.65253  0.56197  0.58627  Biso   1.000  H
  C212     1.0000 0.61443  0.54907  0.63687  Biso   1.000  C
  H142     1.0000 0.66203  0.58937  0.64627  Biso   1.000  H
  C213     1.0000 0.54903  0.50517  0.65874  Biso   1.000  C
  C214     1.0000 0.47793  0.44497  0.64463  Biso   1.000  C
  H143     1.0000 0.43413  0.41557  0.65927  Biso   1.000  H
  C215     1.0000 0.47223  0.42857  0.60866  Biso   1.000  C
  H144     1.0000 0.42473  0.38827  0.59927  Biso   1.000  H
  O72      1.0000 0.64573  0.59697  0.70777  Biso   1.000  O
  C216     1.0000 0.56093  0.53767  0.69717  Biso   1.000  C
  O73      1.0000 0.92730  0.21900  0.12970  Biso   1.000  O
  O74      1.0000 0.96449  0.18200  0.17871  Biso   1.000  O
  H145     1.0000 0.21050  0.34030  0.04050  Biso   1.000  H
  C217     1.0000 0.07490  0.27450  0.09942  Biso   1.000  C
  H146     1.0000 0.03980  0.28750  0.08860  Biso   1.000  H
  C218     1.0000 0.05650  0.23650  0.13163  Biso   1.000  C
  C219     1.0000 0.97630  0.21050  0.14815  Biso   1.000  C
  N25      1.0000 0.19420  0.39860  0.92012  Biso   1.000  N
  C220     1.0000 0.13400  0.40950  0.93423  Biso   1.000  C
  H147     1.0000 0.10470  0.42390  0.91960  Biso   1.000  H
  C221     1.0000 0.11760  0.39870  0.97020  Biso   1.000  C
  H148     1.0000 0.07730  0.40600  0.97960  Biso   1.000  H
  C222     1.0000 0.16150  0.37720  0.99207  Biso   1.000  C
  C223     1.0000 0.22170  0.36630  0.97796  Biso   1.000  C
  H149     1.0000 0.25110  0.35190  0.99260  Biso   1.000  H
  C224     1.0000 0.23810  0.37700  0.94199  Biso   1.000  C
  H150     1.0000 0.27840  0.36980  0.93260  Biso   1.000  H
  O75      1.0000 0.06970  0.38210  0.04110  Biso   1.000  O
  C225     1.0000 0.12900  0.35660  0.03050  Biso   1.000  C
  O76      1.0000 0.59397  0.55233  0.46303  Biso   1.000  O
  O77      1.0000 0.63116  0.51533  0.51204  Biso   1.000  O
  H151     1.0000 0.87717  0.67363  0.37383  Biso   1.000  H
  C226     1.0000 0.74157  0.60783  0.43275  Biso   1.000  C
  H152     1.0000 0.70647  0.62083  0.42193  Biso   1.000  H
  C227     1.0000 0.72317  0.56983  0.46496  Biso   1.000  C
  C228     1.0000 0.64297  0.54383  0.48148  Biso   1.000  C
  N26      1.0000 0.86087  0.73193  0.25345  Biso   1.000  N
  C229     1.0000 0.80067  0.74283  0.26756  Biso   1.000  C
  H153     1.0000 0.77137  0.75723  0.25293  Biso   1.000  H
  C230     1.0000 0.78427  0.73203  0.30353  Biso   1.000  C
  H154     1.0000 0.74397  0.73933  0.31293  Biso   1.000  H
  C231     1.0000 0.82817  0.71053  0.32540  Biso   1.000  C
  C232     1.0000 0.88837  0.69963  0.31129  Biso   1.000  C
  H155     1.0000 0.91777  0.68523  0.32593  Biso   1.000  H
  C233     1.0000 0.90477  0.71033  0.27532  Biso   1.000  C
  H156     1.0000 0.94507  0.70313  0.26593  Biso   1.000  H
  O78      1.0000 0.73637  0.71543  0.37443  Biso   1.000  O
  C234     1.0000 0.79567  0.68993  0.36383  Biso   1.000  C
  O79      1.0000 0.26063  0.88567  0.79637  Biso   1.000  O
  O80      1.0000 0.29782  0.84867  0.84538  Biso   1.000  O
  H157     1.0000 0.54383  0.00697  0.70717  Biso   1.000  H
  C235     1.0000 0.40823  0.94117  0.76609  Biso   1.000  C
  H158     1.0000 0.37313  0.95417  0.75527  Biso   1.000  H
  C236     1.0000 0.38983  0.90317  0.79830  Biso   1.000  C
  C237     1.0000 0.30963  0.87717  0.81482  Biso   1.000  C
  N27      1.0000 0.52753  0.06527  0.58679  Biso   1.000  N
  C238     1.0000 0.46733  0.07617  0.60090  Biso   1.000  C
  H159     1.0000 0.43803  0.09057  0.58627  Biso   1.000  H
  C239     1.0000 0.45093  0.06537  0.63687  Biso   1.000  C
  H160     1.0000 0.41063  0.07267  0.64627  Biso   1.000  H
  C240     1.0000 0.49483  0.04387  0.65874  Biso   1.000  C
  C241     1.0000 0.55503  0.03297  0.64463  Biso   1.000  C
  H161     1.0000 0.58443  0.01857  0.65927  Biso   1.000  H
  C242     1.0000 0.57143  0.04367  0.60866  Biso   1.000  C
  H162     1.0000 0.61173  0.03647  0.59927  Biso   1.000  H
  O81      1.0000 0.40303  0.04877  0.70777  Biso   1.000  O
  C243     1.0000 0.46233  0.02327  0.69717  Biso   1.000  C
  O82      1.0000 0.70830  0.78100  0.87030  Biso   1.000  O
  O83      1.0000 0.78249  0.81800  0.82129  Biso   1.000  O
  H163     1.0000 0.87020  0.65970  0.95950  Biso   1.000  H
  C244     1.0000 0.80040  0.72550  0.90058  Biso   1.000  C
  H164     1.0000 0.75230  0.71250  0.91140  Biso   1.000  H
  C245     1.0000 0.82000  0.76350  0.86837  Biso   1.000  C
  C246     1.0000 0.76580  0.78950  0.85185  Biso   1.000  C
  N28      1.0000 0.79560  0.60140  0.07988  Biso   1.000  N
  C247     1.0000 0.72450  0.59050  0.06577  Biso   1.000  C
  H165     1.0000 0.68080  0.57610  0.08040  Biso   1.000  H
  C248     1.0000 0.71890  0.60130  0.02980  Biso   1.000  C
  H166     1.0000 0.67130  0.59400  0.02040  Biso   1.000  H
  C249     1.0000 0.78430  0.62280  0.00793  Biso   1.000  C
  C250     1.0000 0.85540  0.63370  0.02204  Biso   1.000  C
  H167     1.0000 0.89920  0.64810  0.00740  Biso   1.000  H
  C251     1.0000 0.86110  0.62300  0.05801  Biso   1.000  C
  H168     1.0000 0.90860  0.63020  0.06740  Biso   1.000  H
  O84      1.0000 0.68760  0.61790  0.95890  Biso   1.000  O
  C252     1.0000 0.77240  0.64340  0.96950  Biso   1.000  C
  O85      1.0000 0.37497  0.11433  0.20363  Biso   1.000  O
  O86      1.0000 0.44916  0.15133  0.15462  Biso   1.000  O
  H169     1.0000 0.53687  0.99303  0.29283  Biso   1.000  H
  C253     1.0000 0.46707  0.05883  0.23391  Biso   1.000  C
  H170     1.0000 0.41897  0.04583  0.24473  Biso   1.000  H
  C254     1.0000 0.48667  0.09683  0.20170  Biso   1.000  C
  C255     1.0000 0.43247  0.12283  0.18518  Biso   1.000  C
  N29      1.0000 0.46227  0.93473  0.41321  Biso   1.000  N
  C256     1.0000 0.39117  0.92383  0.39910  Biso   1.000  C
  H171     1.0000 0.34747  0.90943  0.41373  Biso   1.000  H
  C257     1.0000 0.38557  0.93463  0.36313  Biso   1.000  C
  H172     1.0000 0.33797  0.92733  0.35373  Biso   1.000  H
  C258     1.0000 0.45097  0.95613  0.34126  Biso   1.000  C
  C259     1.0000 0.52207  0.96703  0.35537  Biso   1.000  C
  H173     1.0000 0.56587  0.98143  0.34073  Biso   1.000  H
  C260     1.0000 0.52777  0.95633  0.39134  Biso   1.000  C
  H174     1.0000 0.57527  0.96353  0.40073  Biso   1.000  H
  O87      1.0000 0.35427  0.95123  0.29223  Biso   1.000  O
  C261     1.0000 0.43907  0.97673  0.30283  Biso   1.000  C
  O88      1.0000 0.04163  0.44767  0.53697  Biso   1.000  O
  O89      1.0000 0.11582  0.48467  0.48796  Biso   1.000  O
  H175     1.0000 0.20353  0.32637  0.62617  Biso   1.000  H
  C262     1.0000 0.13373  0.39217  0.56725  Biso   1.000  C
  H176     1.0000 0.08563  0.37917  0.57807  Biso   1.000  H
  C263     1.0000 0.15333  0.43017  0.53504  Biso   1.000  C
  C264     1.0000 0.09913  0.45617  0.51852  Biso   1.000  C
  N30      1.0000 0.12893  0.26807  0.74655  Biso   1.000  N
  C265     1.0000 0.05783  0.25717  0.73244  Biso   1.000  C
  H177     1.0000 0.01413  0.24277  0.74707  Biso   1.000  H
  C266     1.0000 0.05223  0.26797  0.69647  Biso   1.000  C
  H178     1.0000 0.00463  0.26067  0.68707  Biso   1.000  H
  C267     1.0000 0.11763  0.28947  0.67460  Biso   1.000  C
  C268     1.0000 0.18873  0.30037  0.68871  Biso   1.000  C
  H179     1.0000 0.23253  0.31477  0.67407  Biso   1.000  H
  C269     1.0000 0.19443  0.28967  0.72468  Biso   1.000  C
  H180     1.0000 0.24193  0.29687  0.73407  Biso   1.000  H
  O90      1.0000 0.02093  0.28457  0.62557  Biso   1.000  O
  C270     1.0000 0.10573  0.31007  0.63617  Biso   1.000  C
  O91      1.0000 0.07270  0.29170  0.87030  Biso   1.000  O
  O92      1.0000 0.03551  0.21751  0.82129  Biso   1.000  O
  H181     1.0000 0.78950  0.12980  0.95950  Biso   1.000  H
  C271     1.0000 0.92510  0.19960  0.90058  Biso   1.000  C
  H182     1.0000 0.96020  0.24770  0.91140  Biso   1.000  H
  C272     1.0000 0.94350  0.18000  0.86837  Biso   1.000  C
  C273     1.0000 0.02370  0.23420  0.85185  Biso   1.000  C
  N31      1.0000 0.80580  0.20440  0.07988  Biso   1.000  N
  C274     1.0000 0.86600  0.27550  0.06577  Biso   1.000  C
  H183     1.0000 0.89530  0.31920  0.08040  Biso   1.000  H
  C275     1.0000 0.88240  0.28110  0.02980  Biso   1.000  C
  H184     1.0000 0.92270  0.32870  0.02040  Biso   1.000  H
  C276     1.0000 0.83850  0.21570  0.00793  Biso   1.000  C
  C277     1.0000 0.77830  0.14460  0.02204  Biso   1.000  C
  H185     1.0000 0.74890  0.10080  0.00740  Biso   1.000  H
  C278     1.0000 0.76190  0.13890  0.05801  Biso   1.000  C
  H186     1.0000 0.72160  0.09140  0.06740  Biso   1.000  H
  O93      1.0000 0.93030  0.31240  0.95890  Biso   1.000  O
  C279     1.0000 0.87100  0.22760  0.96950  Biso   1.000  C
  O94      1.0000 0.73937  0.62503  0.20363  Biso   1.000  O
  O95      1.0000 0.70218  0.55084  0.15462  Biso   1.000  O
  H187     1.0000 0.45617  0.46313  0.29283  Biso   1.000  H
  C280     1.0000 0.59177  0.53293  0.23391  Biso   1.000  C
  H188     1.0000 0.62687  0.58103  0.24473  Biso   1.000  H
  C281     1.0000 0.61017  0.51333  0.20170  Biso   1.000  C
  C282     1.0000 0.69037  0.56753  0.18518  Biso   1.000  C
  N32      1.0000 0.47247  0.53773  0.41321  Biso   1.000  N
  C283     1.0000 0.53267  0.60883  0.39910  Biso   1.000  C
  H189     1.0000 0.56197  0.65253  0.41373  Biso   1.000  H
  C284     1.0000 0.54907  0.61443  0.36313  Biso   1.000  C
  H190     1.0000 0.58937  0.66203  0.35373  Biso   1.000  H
  C285     1.0000 0.50517  0.54903  0.34126  Biso   1.000  C
  C286     1.0000 0.44497  0.47793  0.35537  Biso   1.000  C
  H191     1.0000 0.41557  0.43413  0.34073  Biso   1.000  H
  C287     1.0000 0.42857  0.47223  0.39134  Biso   1.000  C
  H192     1.0000 0.38827  0.42473  0.40073  Biso   1.000  H
  O96      1.0000 0.59697  0.64573  0.29223  Biso   1.000  O
  C288     1.0000 0.53767  0.56093  0.30283  Biso   1.000  C
  O97      1.0000 0.40603  0.95837  0.53697  Biso   1.000  O
  O98      1.0000 0.36884  0.88418  0.48796  Biso   1.000  O
  H193     1.0000 0.12283  0.79647  0.62617  Biso   1.000  H
  C289     1.0000 0.25843  0.86627  0.56725  Biso   1.000  C
  H194     1.0000 0.29353  0.91437  0.57807  Biso   1.000  H
  C290     1.0000 0.27683  0.84667  0.53504  Biso   1.000  C
  C291     1.0000 0.35703  0.90087  0.51852  Biso   1.000  C
  N33      1.0000 0.13913  0.87107  0.74655  Biso   1.000  N
  C292     1.0000 0.19933  0.94217  0.73244  Biso   1.000  C
  H195     1.0000 0.22863  0.98587  0.74707  Biso   1.000  H
  C293     1.0000 0.21573  0.94777  0.69647  Biso   1.000  C
  H196     1.0000 0.25603  0.99537  0.68707  Biso   1.000  H
  C294     1.0000 0.17183  0.88237  0.67460  Biso   1.000  C
  C295     1.0000 0.11163  0.81127  0.68871  Biso   1.000  C
  H197     1.0000 0.08223  0.76747  0.67407  Biso   1.000  H
  C296     1.0000 0.09523  0.80557  0.72468  Biso   1.000  C
  H198     1.0000 0.05493  0.75807  0.73407  Biso   1.000  H
  O99      1.0000 0.26363  0.97907  0.62557  Biso   1.000  O
  C297     1.0000 0.20433  0.89427  0.63617  Biso   1.000  C
  O100     1.0000 0.21900  0.92730  0.87030  Biso   1.000  O
  O101     1.0000 0.18200  0.96449  0.82129  Biso   1.000  O
  H199     1.0000 0.34030  0.21050  0.95950  Biso   1.000  H
  C298     1.0000 0.27450  0.07490  0.90058  Biso   1.000  C
  H200     1.0000 0.28750  0.03980  0.91140  Biso   1.000  H
  C299     1.0000 0.23650  0.05650  0.86837  Biso   1.000  C
  C300     1.0000 0.21050  0.97630  0.85185  Biso   1.000  C
  N34      1.0000 0.39860  0.19420  0.07988  Biso   1.000  N
  C301     1.0000 0.40950  0.13400  0.06577  Biso   1.000  C
  H201     1.0000 0.42390  0.10470  0.08040  Biso   1.000  H
  C302     1.0000 0.39870  0.11760  0.02980  Biso   1.000  C
  H202     1.0000 0.40600  0.07730  0.02040  Biso   1.000  H
  C303     1.0000 0.37720  0.16150  0.00793  Biso   1.000  C
  C304     1.0000 0.36630  0.22170  0.02204  Biso   1.000  C
  H203     1.0000 0.35190  0.25110  0.00740  Biso   1.000  H
  C305     1.0000 0.37700  0.23810  0.05801  Biso   1.000  C
  H204     1.0000 0.36980  0.27840  0.06740  Biso   1.000  H
  O102     1.0000 0.38210  0.06970  0.95890  Biso   1.000  O
  C306     1.0000 0.35660  0.12900  0.96950  Biso   1.000  C
  O103     1.0000 0.88567  0.26063  0.20363  Biso   1.000  O
  O104     1.0000 0.84867  0.29782  0.15462  Biso   1.000  O
  H205     1.0000 0.00697  0.54383  0.29283  Biso   1.000  H
  C307     1.0000 0.94117  0.40823  0.23391  Biso   1.000  C
  H206     1.0000 0.95417  0.37313  0.24473  Biso   1.000  H
  C308     1.0000 0.90317  0.38983  0.20170  Biso   1.000  C
  C309     1.0000 0.87717  0.30963  0.18518  Biso   1.000  C
  N35      1.0000 0.06527  0.52753  0.41321  Biso   1.000  N
  C310     1.0000 0.07617  0.46733  0.39910  Biso   1.000  C
  H207     1.0000 0.09057  0.43803  0.41373  Biso   1.000  H
  C311     1.0000 0.06537  0.45093  0.36313  Biso   1.000  C
  H208     1.0000 0.07267  0.41063  0.35373  Biso   1.000  H
  C312     1.0000 0.04387  0.49483  0.34126  Biso   1.000  C
  C313     1.0000 0.03297  0.55503  0.35537  Biso   1.000  C
  H209     1.0000 0.01857  0.58443  0.34073  Biso   1.000  H
  C314     1.0000 0.04367  0.57143  0.39134  Biso   1.000  C
  H210     1.0000 0.03647  0.61173  0.40073  Biso   1.000  H
  O105     1.0000 0.04877  0.40303  0.29223  Biso   1.000  O
  C315     1.0000 0.02327  0.46233  0.30283  Biso   1.000  C
  O106     1.0000 0.55233  0.59397  0.53697  Biso   1.000  O
  O107     1.0000 0.51533  0.63116  0.48796  Biso   1.000  O
  H211     1.0000 0.67363  0.87717  0.62617  Biso   1.000  H
  C316     1.0000 0.60783  0.74157  0.56725  Biso   1.000  C
  H212     1.0000 0.62083  0.70647  0.57807  Biso   1.000  H
  C317     1.0000 0.56983  0.72317  0.53504  Biso   1.000  C
  C318     1.0000 0.54383  0.64297  0.51852  Biso   1.000  C
  N36      1.0000 0.73193  0.86087  0.74655  Biso   1.000  N
  C319     1.0000 0.74283  0.80067  0.73244  Biso   1.000  C
  H213     1.0000 0.75723  0.77137  0.74707  Biso   1.000  H
  C320     1.0000 0.73203  0.78427  0.69647  Biso   1.000  C
  H214     1.0000 0.73933  0.74397  0.68707  Biso   1.000  H
  C321     1.0000 0.71053  0.82817  0.67460  Biso   1.000  C
  C322     1.0000 0.69963  0.88837  0.68871  Biso   1.000  C
  H215     1.0000 0.68523  0.91777  0.67407  Biso   1.000  H
  C323     1.0000 0.71033  0.90477  0.72468  Biso   1.000  C
  H216     1.0000 0.70313  0.94507  0.73407  Biso   1.000  H
  O108     1.0000 0.71543  0.73637  0.62557  Biso   1.000  O
  C324     1.0000 0.68993  0.79567  0.63617  Biso   1.000  C
  Zn1      1.0000 0.37969  0.18985  0.13305  Biso   1.000  Zn
  N37      1.0000 0.33230  0.16615  0.95068  Biso   1.000  N
  C325     1.0000 0.29310  0.14655  0.91672  Biso   1.000  C
  C326     1.0000 0.21800  0.10900  0.85170  Biso   1.000  C
  H217     1.0000 0.19340  0.09670  0.82970  Biso   1.000  H
  Zn2      1.0000 0.04636  0.52318  0.46638  Biso   1.000  Zn
  N38      1.0000 0.99897  0.49948  0.28401  Biso   1.000  N
  C327     1.0000 0.95977  0.47988  0.25005  Biso   1.000  C
  C328     1.0000 0.88467  0.44233  0.18503  Biso   1.000  C
  H218     1.0000 0.86007  0.43003  0.16303  Biso   1.000  H
  Zn3      1.0000 0.71302  0.85651  0.79972  Biso   1.000  Zn
  N39      1.0000 0.66563  0.83282  0.61735  Biso   1.000  N
  C329     1.0000 0.62643  0.81322  0.58339  Biso   1.000  C
  C330     1.0000 0.55133  0.77567  0.51837  Biso   1.000  C
  H219     1.0000 0.52673  0.76337  0.49637  Biso   1.000  H
  Zn4      1.0000 0.81015  0.18985  0.13305  Biso   1.000  Zn
  N40      1.0000 0.83385  0.16615  0.95068  Biso   1.000  N
  C331     1.0000 0.85345  0.14655  0.91672  Biso   1.000  C
  C332     1.0000 0.89100  0.10900  0.85170  Biso   1.000  C
  H220     1.0000 0.90330  0.09670  0.82970  Biso   1.000  H
  Zn5      1.0000 0.47682  0.52318  0.46638  Biso   1.000  Zn
  N41      1.0000 0.50052  0.49948  0.28401  Biso   1.000  N
  C333     1.0000 0.52012  0.47988  0.25005  Biso   1.000  C
  C334     1.0000 0.55767  0.44233  0.18503  Biso   1.000  C
  H221     1.0000 0.56997  0.43003  0.16303  Biso   1.000  H
  Zn6      1.0000 0.14349  0.85651  0.79972  Biso   1.000  Zn
  N42      1.0000 0.16718  0.83282  0.61735  Biso   1.000  N
  C335     1.0000 0.18678  0.81322  0.58339  Biso   1.000  C
  C336     1.0000 0.22433  0.77567  0.51837  Biso   1.000  C
  H222     1.0000 0.23663  0.76337  0.49637  Biso   1.000  H
  Zn7      1.0000 0.81015  0.62031  0.13305  Biso   1.000  Zn
  N43      1.0000 0.83385  0.66770  0.95068  Biso   1.000  N
  C337     1.0000 0.85345  0.70690  0.91672  Biso   1.000  C
  C338     1.0000 0.89100  0.78200  0.85170  Biso   1.000  C
  H223     1.0000 0.90330  0.80660  0.82970  Biso   1.000  H
  Zn8      1.0000 0.47682  0.95364  0.46638  Biso   1.000  Zn
  N44      1.0000 0.50052  0.00103  0.28401  Biso   1.000  N
  C339     1.0000 0.52012  0.04023  0.25005  Biso   1.000  C
  C340     1.0000 0.55767  0.11533  0.18503  Biso   1.000  C
  H224     1.0000 0.56997  0.13993  0.16303  Biso   1.000  H
  Zn9      1.0000 0.14349  0.28698  0.79972  Biso   1.000  Zn
  N45      1.0000 0.16718  0.33437  0.61735  Biso   1.000  N
  C341     1.0000 0.18678  0.37357  0.58339  Biso   1.000  C
  C342     1.0000 0.22433  0.44867  0.51837  Biso   1.000  C
  H225     1.0000 0.23663  0.47327  0.49637  Biso   1.000  H
  Zn10     1.0000 0.18985  0.37969  0.86695  Biso   1.000  Zn
  N46      1.0000 0.16615  0.33230  0.04932  Biso   1.000  N
  C343     1.0000 0.14655  0.29310  0.08328  Biso   1.000  C
  C344     1.0000 0.10900  0.21800  0.14830  Biso   1.000  C
  H226     1.0000 0.09670  0.19340  0.17030  Biso   1.000  H
  Zn11     1.0000 0.85651  0.71302  0.20028  Biso   1.000  Zn
  N47      1.0000 0.83282  0.66563  0.38265  Biso   1.000  N
  C345     1.0000 0.81322  0.62643  0.41661  Biso   1.000  C
  C346     1.0000 0.77567  0.55133  0.48163  Biso   1.000  C
  H227     1.0000 0.76337  0.52673  0.50363  Biso   1.000  H
  Zn12     1.0000 0.52318  0.04636  0.53362  Biso   1.000  Zn
  N48      1.0000 0.49948  0.99897  0.71599  Biso   1.000  N
  C347     1.0000 0.47988  0.95977  0.74995  Biso   1.000  C
  C348     1.0000 0.44233  0.88467  0.81497  Biso   1.000  C
  H228     1.0000 0.43003  0.86007  0.83697  Biso   1.000  H
  Zn13     1.0000 0.18985  0.81015  0.86695  Biso   1.000  Zn
  N49      1.0000 0.16615  0.83385  0.04932  Biso   1.000  N
  C349     1.0000 0.14655  0.85345  0.08328  Biso   1.000  C
  C350     1.0000 0.10900  0.89100  0.14830  Biso   1.000  C
  H229     1.0000 0.09670  0.90330  0.17030  Biso   1.000  H
  Zn14     1.0000 0.85651  0.14349  0.20028  Biso   1.000  Zn
  N50      1.0000 0.83282  0.16718  0.38265  Biso   1.000  N
  C351     1.0000 0.81322  0.18678  0.41661  Biso   1.000  C
  C352     1.0000 0.77567  0.22433  0.48163  Biso   1.000  C
  H230     1.0000 0.76337  0.23663  0.50363  Biso   1.000  H
  Zn15     1.0000 0.52318  0.47682  0.53362  Biso   1.000  Zn
  N51      1.0000 0.49948  0.50052  0.71599  Biso   1.000  N
  C353     1.0000 0.47988  0.52012  0.74995  Biso   1.000  C
  C354     1.0000 0.44233  0.55767  0.81497  Biso   1.000  C
  H231     1.0000 0.43003  0.56997  0.83697  Biso   1.000  H
  Zn16     1.0000 0.62031  0.81015  0.86695  Biso   1.000  Zn
  N52      1.0000 0.66770  0.83385  0.04932  Biso   1.000  N
  C355     1.0000 0.70690  0.85345  0.08328  Biso   1.000  C
  C356     1.0000 0.78200  0.89100  0.14830  Biso   1.000  C
  H232     1.0000 0.80660  0.90330  0.17030  Biso   1.000  H
  Zn17     1.0000 0.28698  0.14349  0.20028  Biso   1.000  Zn
  N53      1.0000 0.33437  0.16718  0.38265  Biso   1.000  N
  C357     1.0000 0.37357  0.18678  0.41661  Biso   1.000  C
  C358     1.0000 0.44867  0.22433  0.48163  Biso   1.000  C
  H233     1.0000 0.47327  0.23663  0.50363  Biso   1.000  H
  Zn18     1.0000 0.95364  0.47682  0.53362  Biso   1.000  Zn
  N54      1.0000 0.00103  0.50052  0.71599  Biso   1.000  N
  C359     1.0000 0.04023  0.52012  0.74995  Biso   1.000  C
  C360     1.0000 0.11533  0.55767  0.81497  Biso   1.000  C
  H234     1.0000 0.13993  0.56997  0.83697  Biso   1.000  H
