data_image0
_cell_length_a       19.4724
_cell_length_b       19.4724
_cell_length_c       37.754
_cell_angle_alpha    90
_cell_angle_beta     90
_cell_angle_gamma    120

_symmetry_space_group_name_H-M    "P 1"
_symmetry_int_tables_number       1

loop_
  _symmetry_equiv_pos_as_xyz
  'x, y, z'

loop_
  _atom_site_label
  _atom_site_occupancy
  _atom_site_fract_x
  _atom_site_fract_y
  _atom_site_fract_z
  _atom_site_thermal_displace_type
  _atom_site_B_iso_or_equiv
  _atom_site_type_symbol
  N1       1.0000 0.19020  0.39320  0.91897  Biso   1.000  N
  C1       1.0000 0.12660  0.39840  0.93250  Biso   1.000  C
  H1       1.0000 0.09510  0.41000  0.91710  Biso   1.000  H
  C2       1.0000 0.10920  0.38680  0.96840  Biso   1.000  C
  H2       1.0000 0.06580  0.39050  0.97770  Biso   1.000  H
  C3       1.0000 0.15550  0.37000  0.99089  Biso   1.000  C
  C4       1.0000 0.21910  0.36470  0.97740  Biso   1.000  C
  H3       1.0000 0.25060  0.35310  0.99270  Biso   1.000  H
  C5       1.0000 0.23650  0.37630  0.94140  Biso   1.000  C
  H4       1.0000 0.27990  0.37270  0.93220  Biso   1.000  H
  C6       1.0000 0.12500  0.34660  0.02940  Biso   1.000  C
  O1       1.0000 0.07850  0.38960  0.04250  Biso   1.000  O
  C7       1.0000 0.19930  0.27400  0.10018  Biso   1.000  C
  H5       1.0000 0.24850  0.28760  0.08940  Biso   1.000  H
  C8       1.0000 0.17920  0.23570  0.13247  Biso   1.000  C
  C9       1.0000 0.23350  0.21100  0.14893  Biso   1.000  C
  O2       1.0000 0.21790  0.18370  0.17995  Biso   1.000  O
  O3       1.0000 0.28980  0.21780  0.13008  Biso   1.000  O
  N2       1.0000 0.85687  0.72653  0.25230  Biso   1.000  N
  C10      1.0000 0.79327  0.73173  0.26583  Biso   1.000  C
  H6       1.0000 0.76177  0.74333  0.25043  Biso   1.000  H
  C11      1.0000 0.77587  0.72013  0.30173  Biso   1.000  C
  H7       1.0000 0.73247  0.72383  0.31103  Biso   1.000  H
  C12      1.0000 0.82217  0.70333  0.32422  Biso   1.000  C
  C13      1.0000 0.88577  0.69803  0.31073  Biso   1.000  C
  H8       1.0000 0.91727  0.68643  0.32603  Biso   1.000  H
  C14      1.0000 0.90317  0.70963  0.27473  Biso   1.000  C
  H9       1.0000 0.94657  0.70603  0.26553  Biso   1.000  H
  C15      1.0000 0.79167  0.67993  0.36273  Biso   1.000  C
  O4       1.0000 0.74517  0.72293  0.37583  Biso   1.000  O
  C16      1.0000 0.86597  0.60733  0.43351  Biso   1.000  C
  H10      1.0000 0.91517  0.62093  0.42273  Biso   1.000  H
  C17      1.0000 0.84587  0.56903  0.46580  Biso   1.000  C
  C18      1.0000 0.90017  0.54433  0.48226  Biso   1.000  C
  O5       1.0000 0.88457  0.51703  0.51328  Biso   1.000  O
  O6       1.0000 0.95647  0.55113  0.46341  Biso   1.000  O
  N3       1.0000 0.52353  0.05987  0.58564  Biso   1.000  N
  C19      1.0000 0.45993  0.06507  0.59917  Biso   1.000  C
  H11      1.0000 0.42843  0.07667  0.58377  Biso   1.000  H
  C20      1.0000 0.44253  0.05347  0.63507  Biso   1.000  C
  H12      1.0000 0.39913  0.05717  0.64437  Biso   1.000  H
  C21      1.0000 0.48883  0.03667  0.65756  Biso   1.000  C
  C22      1.0000 0.55243  0.03137  0.64407  Biso   1.000  C
  H13      1.0000 0.58393  0.01977  0.65937  Biso   1.000  H
  C23      1.0000 0.56983  0.04297  0.60807  Biso   1.000  C
  H14      1.0000 0.61323  0.03937  0.59887  Biso   1.000  H
  C24      1.0000 0.45833  0.01327  0.69607  Biso   1.000  C
  O7       1.0000 0.41183  0.05627  0.70917  Biso   1.000  O
  C25      1.0000 0.53263  0.94067  0.76685  Biso   1.000  C
  H15      1.0000 0.58183  0.95427  0.75607  Biso   1.000  H
  C26      1.0000 0.51253  0.90237  0.79914  Biso   1.000  C
  C27      1.0000 0.56683  0.87767  0.81560  Biso   1.000  C
  O8       1.0000 0.55123  0.85037  0.84662  Biso   1.000  O
  O9       1.0000 0.62313  0.88447  0.79675  Biso   1.000  O
  N4       1.0000 0.60680  0.79700  0.91897  Biso   1.000  N
  C28      1.0000 0.60160  0.72820  0.93250  Biso   1.000  C
  H16      1.0000 0.59000  0.68510  0.91710  Biso   1.000  H
  C29      1.0000 0.61320  0.72240  0.96840  Biso   1.000  C
  H17      1.0000 0.60950  0.67530  0.97770  Biso   1.000  H
  C30      1.0000 0.63000  0.78550  0.99089  Biso   1.000  C
  C31      1.0000 0.63530  0.85440  0.97740  Biso   1.000  C
  H18      1.0000 0.64690  0.89750  0.99270  Biso   1.000  H
  C32      1.0000 0.62370  0.86020  0.94140  Biso   1.000  C
  H19      1.0000 0.62730  0.90720  0.93220  Biso   1.000  H
  C33      1.0000 0.65340  0.77840  0.02940  Biso   1.000  C
  O10      1.0000 0.61040  0.68890  0.04250  Biso   1.000  O
  C34      1.0000 0.72600  0.92530  0.10018  Biso   1.000  C
  H20      1.0000 0.71240  0.96090  0.08940  Biso   1.000  H
  C35      1.0000 0.76430  0.94350  0.13247  Biso   1.000  C
  C36      1.0000 0.78900  0.02250  0.14893  Biso   1.000  C
  O11      1.0000 0.81630  0.03420  0.17995  Biso   1.000  O
  O12      1.0000 0.78220  0.07200  0.13008  Biso   1.000  O
  N5       1.0000 0.27347  0.13033  0.25230  Biso   1.000  N
  C37      1.0000 0.26827  0.06153  0.26583  Biso   1.000  C
  H21      1.0000 0.25667  0.01843  0.25043  Biso   1.000  H
  C38      1.0000 0.27987  0.05573  0.30173  Biso   1.000  C
  H22      1.0000 0.27617  0.00863  0.31103  Biso   1.000  H
  C39      1.0000 0.29667  0.11883  0.32422  Biso   1.000  C
  C40      1.0000 0.30197  0.18773  0.31073  Biso   1.000  C
  H23      1.0000 0.31357  0.23083  0.32603  Biso   1.000  H
  C41      1.0000 0.29037  0.19353  0.27473  Biso   1.000  C
  H24      1.0000 0.29397  0.24053  0.26553  Biso   1.000  H
  C42      1.0000 0.32007  0.11173  0.36273  Biso   1.000  C
  O13      1.0000 0.27707  0.02223  0.37583  Biso   1.000  O
  C43      1.0000 0.39267  0.25863  0.43351  Biso   1.000  C
  H25      1.0000 0.37907  0.29423  0.42273  Biso   1.000  H
  C44      1.0000 0.43097  0.27683  0.46580  Biso   1.000  C
  C45      1.0000 0.45567  0.35583  0.48226  Biso   1.000  C
  O14      1.0000 0.48297  0.36753  0.51328  Biso   1.000  O
  O15      1.0000 0.44887  0.40533  0.46341  Biso   1.000  O
  N6       1.0000 0.94013  0.46367  0.58564  Biso   1.000  N
  C46      1.0000 0.93493  0.39487  0.59917  Biso   1.000  C
  H26      1.0000 0.92333  0.35177  0.58377  Biso   1.000  H
  C47      1.0000 0.94653  0.38907  0.63507  Biso   1.000  C
  H27      1.0000 0.94283  0.34197  0.64437  Biso   1.000  H
  C48      1.0000 0.96333  0.45217  0.65756  Biso   1.000  C
  C49      1.0000 0.96863  0.52107  0.64407  Biso   1.000  C
  H28      1.0000 0.98023  0.56417  0.65937  Biso   1.000  H
  C50      1.0000 0.95703  0.52687  0.60807  Biso   1.000  C
  H29      1.0000 0.96063  0.57387  0.59887  Biso   1.000  H
  C51      1.0000 0.98673  0.44507  0.69607  Biso   1.000  C
  O16      1.0000 0.94373  0.35557  0.70917  Biso   1.000  O
  C52      1.0000 0.05933  0.59197  0.76685  Biso   1.000  C
  H30      1.0000 0.04573  0.62757  0.75607  Biso   1.000  H
  C53      1.0000 0.09763  0.61017  0.79914  Biso   1.000  C
  C54      1.0000 0.12233  0.68917  0.81560  Biso   1.000  C
  O17      1.0000 0.14963  0.70087  0.84662  Biso   1.000  O
  O18      1.0000 0.11553  0.73867  0.79675  Biso   1.000  O
  N7       1.0000 0.20300  0.80980  0.91897  Biso   1.000  N
  C55      1.0000 0.27180  0.87340  0.93250  Biso   1.000  C
  H31      1.0000 0.31490  0.90490  0.91710  Biso   1.000  H
  C56      1.0000 0.27760  0.89080  0.96840  Biso   1.000  C
  H32      1.0000 0.32470  0.93420  0.97770  Biso   1.000  H
  C57      1.0000 0.21450  0.84450  0.99089  Biso   1.000  C
  C58      1.0000 0.14560  0.78090  0.97740  Biso   1.000  C
  H33      1.0000 0.10250  0.74940  0.99270  Biso   1.000  H
  C59      1.0000 0.13980  0.76350  0.94140  Biso   1.000  C
  H34      1.0000 0.09280  0.72010  0.93220  Biso   1.000  H
  C60      1.0000 0.22160  0.87500  0.02940  Biso   1.000  C
  O19      1.0000 0.31110  0.92150  0.04250  Biso   1.000  O
  C61      1.0000 0.07470  0.80070  0.10018  Biso   1.000  C
  H35      1.0000 0.03910  0.75150  0.08940  Biso   1.000  H
  C62      1.0000 0.05650  0.82080  0.13247  Biso   1.000  C
  C63      1.0000 0.97750  0.76650  0.14893  Biso   1.000  C
  O20      1.0000 0.96580  0.78210  0.17995  Biso   1.000  O
  O21      1.0000 0.92800  0.71020  0.13008  Biso   1.000  O
  N8       1.0000 0.86967  0.14313  0.25230  Biso   1.000  N
  C64      1.0000 0.93847  0.20673  0.26583  Biso   1.000  C
  H36      1.0000 0.98157  0.23823  0.25043  Biso   1.000  H
  C65      1.0000 0.94427  0.22413  0.30173  Biso   1.000  C
  H37      1.0000 0.99137  0.26753  0.31103  Biso   1.000  H
  C66      1.0000 0.88117  0.17783  0.32422  Biso   1.000  C
  C67      1.0000 0.81227  0.11423  0.31073  Biso   1.000  C
  H38      1.0000 0.76917  0.08273  0.32603  Biso   1.000  H
  C68      1.0000 0.80647  0.09683  0.27473  Biso   1.000  C
  H39      1.0000 0.75947  0.05343  0.26553  Biso   1.000  H
  C69      1.0000 0.88827  0.20833  0.36273  Biso   1.000  C
  O22      1.0000 0.97777  0.25483  0.37583  Biso   1.000  O
  C70      1.0000 0.74137  0.13403  0.43351  Biso   1.000  C
  H40      1.0000 0.70577  0.08483  0.42273  Biso   1.000  H
  C71      1.0000 0.72317  0.15413  0.46580  Biso   1.000  C
  C72      1.0000 0.64417  0.09983  0.48226  Biso   1.000  C
  O23      1.0000 0.63247  0.11543  0.51328  Biso   1.000  O
  O24      1.0000 0.59467  0.04353  0.46341  Biso   1.000  O
  N9       1.0000 0.53633  0.47647  0.58564  Biso   1.000  N
  C73      1.0000 0.60513  0.54007  0.59917  Biso   1.000  C
  H41      1.0000 0.64823  0.57157  0.58377  Biso   1.000  H
  C74      1.0000 0.61093  0.55747  0.63507  Biso   1.000  C
  H42      1.0000 0.65803  0.60087  0.64437  Biso   1.000  H
  C75      1.0000 0.54783  0.51117  0.65756  Biso   1.000  C
  C76      1.0000 0.47893  0.44757  0.64407  Biso   1.000  C
  H43      1.0000 0.43583  0.41607  0.65937  Biso   1.000  H
  C77      1.0000 0.47313  0.43017  0.60807  Biso   1.000  C
  H44      1.0000 0.42613  0.38677  0.59887  Biso   1.000  H
  C78      1.0000 0.55493  0.54167  0.69607  Biso   1.000  C
  O25      1.0000 0.64443  0.58817  0.70917  Biso   1.000  O
  C79      1.0000 0.40803  0.46737  0.76685  Biso   1.000  C
  H45      1.0000 0.37243  0.41817  0.75607  Biso   1.000  H
  C80      1.0000 0.38983  0.48747  0.79914  Biso   1.000  C
  C81      1.0000 0.31083  0.43317  0.81560  Biso   1.000  C
  O26      1.0000 0.29913  0.44877  0.84662  Biso   1.000  O
  O27      1.0000 0.26133  0.37687  0.79675  Biso   1.000  O
  N10      1.0000 0.39320  0.19020  0.08103  Biso   1.000  N
  C82      1.0000 0.39840  0.12660  0.06750  Biso   1.000  C
  H46      1.0000 0.41000  0.09510  0.08290  Biso   1.000  H
  C83      1.0000 0.38680  0.10920  0.03160  Biso   1.000  C
  H47      1.0000 0.39050  0.06580  0.02230  Biso   1.000  H
  C84      1.0000 0.37000  0.15550  0.00911  Biso   1.000  C
  C85      1.0000 0.36470  0.21910  0.02260  Biso   1.000  C
  H48      1.0000 0.35310  0.25060  0.00730  Biso   1.000  H
  C86      1.0000 0.37630  0.23650  0.05860  Biso   1.000  C
  H49      1.0000 0.37270  0.27990  0.06780  Biso   1.000  H
  C87      1.0000 0.34660  0.12500  0.97060  Biso   1.000  C
  O28      1.0000 0.38960  0.07850  0.95750  Biso   1.000  O
  C88      1.0000 0.27400  0.19930  0.89982  Biso   1.000  C
  H50      1.0000 0.28760  0.24850  0.91060  Biso   1.000  H
  C89      1.0000 0.23570  0.17920  0.86753  Biso   1.000  C
  C90      1.0000 0.21100  0.23350  0.85107  Biso   1.000  C
  O29      1.0000 0.18370  0.21790  0.82005  Biso   1.000  O
  O30      1.0000 0.21780  0.28980  0.86992  Biso   1.000  O
  N11      1.0000 0.05987  0.52353  0.41436  Biso   1.000  N
  C91      1.0000 0.06507  0.45993  0.40083  Biso   1.000  C
  H51      1.0000 0.07667  0.42843  0.41623  Biso   1.000  H
  C92      1.0000 0.05347  0.44253  0.36493  Biso   1.000  C
  H52      1.0000 0.05717  0.39913  0.35563  Biso   1.000  H
  C93      1.0000 0.03667  0.48883  0.34244  Biso   1.000  C
  C94      1.0000 0.03137  0.55243  0.35593  Biso   1.000  C
  H53      1.0000 0.01977  0.58393  0.34063  Biso   1.000  H
  C95      1.0000 0.04297  0.56983  0.39193  Biso   1.000  C
  H54      1.0000 0.03937  0.61323  0.40113  Biso   1.000  H
  C96      1.0000 0.01327  0.45833  0.30393  Biso   1.000  C
  O31      1.0000 0.05627  0.41183  0.29083  Biso   1.000  O
  C97      1.0000 0.94067  0.53263  0.23315  Biso   1.000  C
  H55      1.0000 0.95427  0.58183  0.24393  Biso   1.000  H
  C98      1.0000 0.90237  0.51253  0.20086  Biso   1.000  C
  C99      1.0000 0.87767  0.56683  0.18440  Biso   1.000  C
  O32      1.0000 0.85037  0.55123  0.15338  Biso   1.000  O
  O33      1.0000 0.88447  0.62313  0.20325  Biso   1.000  O
  N12      1.0000 0.72653  0.85687  0.74770  Biso   1.000  N
  C100     1.0000 0.73173  0.79327  0.73417  Biso   1.000  C
  H56      1.0000 0.74333  0.76177  0.74957  Biso   1.000  H
  C101     1.0000 0.72013  0.77587  0.69827  Biso   1.000  C
  H57      1.0000 0.72383  0.73247  0.68897  Biso   1.000  H
  C102     1.0000 0.70333  0.82217  0.67578  Biso   1.000  C
  C103     1.0000 0.69803  0.88577  0.68927  Biso   1.000  C
  H58      1.0000 0.68643  0.91727  0.67397  Biso   1.000  H
  C104     1.0000 0.70963  0.90317  0.72527  Biso   1.000  C
  H59      1.0000 0.70603  0.94657  0.73447  Biso   1.000  H
  C105     1.0000 0.67993  0.79167  0.63727  Biso   1.000  C
  O34      1.0000 0.72293  0.74517  0.62417  Biso   1.000  O
  C106     1.0000 0.60733  0.86597  0.56649  Biso   1.000  C
  H60      1.0000 0.62093  0.91517  0.57727  Biso   1.000  H
  C107     1.0000 0.56903  0.84587  0.53420  Biso   1.000  C
  C108     1.0000 0.54433  0.90017  0.51774  Biso   1.000  C
  O35      1.0000 0.51703  0.88457  0.48672  Biso   1.000  O
  O36      1.0000 0.55113  0.95647  0.53659  Biso   1.000  O
  N13      1.0000 0.79700  0.60680  0.08103  Biso   1.000  N
  C109     1.0000 0.72820  0.60160  0.06750  Biso   1.000  C
  H61      1.0000 0.68510  0.59000  0.08290  Biso   1.000  H
  C110     1.0000 0.72240  0.61320  0.03160  Biso   1.000  C
  H62      1.0000 0.67530  0.60950  0.02230  Biso   1.000  H
  C111     1.0000 0.78550  0.63000  0.00911  Biso   1.000  C
  C112     1.0000 0.85440  0.63530  0.02260  Biso   1.000  C
  H63      1.0000 0.89750  0.64690  0.00730  Biso   1.000  H
  C113     1.0000 0.86020  0.62370  0.05860  Biso   1.000  C
  H64      1.0000 0.90720  0.62730  0.06780  Biso   1.000  H
  C114     1.0000 0.77840  0.65340  0.97060  Biso   1.000  C
  O37      1.0000 0.68890  0.61040  0.95750  Biso   1.000  O
  C115     1.0000 0.92530  0.72600  0.89982  Biso   1.000  C
  H65      1.0000 0.96090  0.71240  0.91060  Biso   1.000  H
  C116     1.0000 0.94350  0.76430  0.86753  Biso   1.000  C
  C117     1.0000 0.02250  0.78900  0.85107  Biso   1.000  C
  O38      1.0000 0.03420  0.81630  0.82005  Biso   1.000  O
  O39      1.0000 0.07200  0.78220  0.86992  Biso   1.000  O
  N14      1.0000 0.46367  0.94013  0.41436  Biso   1.000  N
  C118     1.0000 0.39487  0.93493  0.40083  Biso   1.000  C
  H66      1.0000 0.35177  0.92333  0.41623  Biso   1.000  H
  C119     1.0000 0.38907  0.94653  0.36493  Biso   1.000  C
  H67      1.0000 0.34197  0.94283  0.35563  Biso   1.000  H
  C120     1.0000 0.45217  0.96333  0.34244  Biso   1.000  C
  C121     1.0000 0.52107  0.96863  0.35593  Biso   1.000  C
  H68      1.0000 0.56417  0.98023  0.34063  Biso   1.000  H
  C122     1.0000 0.52687  0.95703  0.39193  Biso   1.000  C
  H69      1.0000 0.57387  0.96063  0.40113  Biso   1.000  H
  C123     1.0000 0.44507  0.98673  0.30393  Biso   1.000  C
  O40      1.0000 0.35557  0.94373  0.29083  Biso   1.000  O
  C124     1.0000 0.59197  0.05933  0.23315  Biso   1.000  C
  H70      1.0000 0.62757  0.04573  0.24393  Biso   1.000  H
  C125     1.0000 0.61017  0.09763  0.20086  Biso   1.000  C
  C126     1.0000 0.68917  0.12233  0.18440  Biso   1.000  C
  O41      1.0000 0.70087  0.14963  0.15338  Biso   1.000  O
  O42      1.0000 0.73867  0.11553  0.20325  Biso   1.000  O
  N15      1.0000 0.13033  0.27347  0.74770  Biso   1.000  N
  C127     1.0000 0.06153  0.26827  0.73417  Biso   1.000  C
  H71      1.0000 0.01843  0.25667  0.74957  Biso   1.000  H
  C128     1.0000 0.05573  0.27987  0.69827  Biso   1.000  C
  H72      1.0000 0.00863  0.27617  0.68897  Biso   1.000  H
  C129     1.0000 0.11883  0.29667  0.67578  Biso   1.000  C
  C130     1.0000 0.18773  0.30197  0.68927  Biso   1.000  C
  H73      1.0000 0.23083  0.31357  0.67397  Biso   1.000  H
  C131     1.0000 0.19353  0.29037  0.72527  Biso   1.000  C
  H74      1.0000 0.24053  0.29397  0.73447  Biso   1.000  H
  C132     1.0000 0.11173  0.32007  0.63727  Biso   1.000  C
  O43      1.0000 0.02223  0.27707  0.62417  Biso   1.000  O
  C133     1.0000 0.25863  0.39267  0.56649  Biso   1.000  C
  H75      1.0000 0.29423  0.37907  0.57727  Biso   1.000  H
  C134     1.0000 0.27683  0.43097  0.53420  Biso   1.000  C
  C135     1.0000 0.35583  0.45567  0.51774  Biso   1.000  C
  O44      1.0000 0.36753  0.48297  0.48672  Biso   1.000  O
  O45      1.0000 0.40533  0.44887  0.53659  Biso   1.000  O
  N16      1.0000 0.80980  0.20300  0.08103  Biso   1.000  N
  C136     1.0000 0.87340  0.27180  0.06750  Biso   1.000  C
  H76      1.0000 0.90490  0.31490  0.08290  Biso   1.000  H
  C137     1.0000 0.89080  0.27760  0.03160  Biso   1.000  C
  H77      1.0000 0.93420  0.32470  0.02230  Biso   1.000  H
  C138     1.0000 0.84450  0.21450  0.00911  Biso   1.000  C
  C139     1.0000 0.78090  0.14560  0.02260  Biso   1.000  C
  H78      1.0000 0.74940  0.10250  0.00730  Biso   1.000  H
  C140     1.0000 0.76350  0.13980  0.05860  Biso   1.000  C
  H79      1.0000 0.72010  0.09280  0.06780  Biso   1.000  H
  C141     1.0000 0.87500  0.22160  0.97060  Biso   1.000  C
  O46      1.0000 0.92150  0.31110  0.95750  Biso   1.000  O
  C142     1.0000 0.80070  0.07470  0.89982  Biso   1.000  C
  H80      1.0000 0.75150  0.03910  0.91060  Biso   1.000  H
  C143     1.0000 0.82080  0.05650  0.86753  Biso   1.000  C
  C144     1.0000 0.76650  0.97750  0.85107  Biso   1.000  C
  O47      1.0000 0.78210  0.96580  0.82005  Biso   1.000  O
  O48      1.0000 0.71020  0.92800  0.86992  Biso   1.000  O
  N17      1.0000 0.47647  0.53633  0.41436  Biso   1.000  N
  C145     1.0000 0.54007  0.60513  0.40083  Biso   1.000  C
  H81      1.0000 0.57157  0.64823  0.41623  Biso   1.000  H
  C146     1.0000 0.55747  0.61093  0.36493  Biso   1.000  C
  H82      1.0000 0.60087  0.65803  0.35563  Biso   1.000  H
  C147     1.0000 0.51117  0.54783  0.34244  Biso   1.000  C
  C148     1.0000 0.44757  0.47893  0.35593  Biso   1.000  C
  H83      1.0000 0.41607  0.43583  0.34063  Biso   1.000  H
  C149     1.0000 0.43017  0.47313  0.39193  Biso   1.000  C
  H84      1.0000 0.38677  0.42613  0.40113  Biso   1.000  H
  C150     1.0000 0.54167  0.55493  0.30393  Biso   1.000  C
  O49      1.0000 0.58817  0.64443  0.29083  Biso   1.000  O
  C151     1.0000 0.46737  0.40803  0.23315  Biso   1.000  C
  H85      1.0000 0.41817  0.37243  0.24393  Biso   1.000  H
  C152     1.0000 0.48747  0.38983  0.20086  Biso   1.000  C
  C153     1.0000 0.43317  0.31083  0.18440  Biso   1.000  C
  O50      1.0000 0.44877  0.29913  0.15338  Biso   1.000  O
  O51      1.0000 0.37687  0.26133  0.20325  Biso   1.000  O
  N18      1.0000 0.14313  0.86967  0.74770  Biso   1.000  N
  C154     1.0000 0.20673  0.93847  0.73417  Biso   1.000  C
  H86      1.0000 0.23823  0.98157  0.74957  Biso   1.000  H
  C155     1.0000 0.22413  0.94427  0.69827  Biso   1.000  C
  H87      1.0000 0.26753  0.99137  0.68897  Biso   1.000  H
  C156     1.0000 0.17783  0.88117  0.67578  Biso   1.000  C
  C157     1.0000 0.11423  0.81227  0.68927  Biso   1.000  C
  H88      1.0000 0.08273  0.76917  0.67397  Biso   1.000  H
  C158     1.0000 0.09683  0.80647  0.72527  Biso   1.000  C
  H89      1.0000 0.05343  0.75947  0.73447  Biso   1.000  H
  C159     1.0000 0.20833  0.88827  0.63727  Biso   1.000  C
  O52      1.0000 0.25483  0.97777  0.62417  Biso   1.000  O
  C160     1.0000 0.13403  0.74137  0.56649  Biso   1.000  C
  H90      1.0000 0.08483  0.70577  0.57727  Biso   1.000  H
  C161     1.0000 0.15413  0.72317  0.53420  Biso   1.000  C
  C162     1.0000 0.09983  0.64417  0.51774  Biso   1.000  C
  O53      1.0000 0.11543  0.63247  0.48672  Biso   1.000  O
  O54      1.0000 0.04353  0.59467  0.53659  Biso   1.000  O
  N19      1.0000 0.80980  0.60680  0.08103  Biso   1.000  N
  C163     1.0000 0.87340  0.60160  0.06750  Biso   1.000  C
  H91      1.0000 0.90490  0.59000  0.08290  Biso   1.000  H
  C164     1.0000 0.89080  0.61320  0.03160  Biso   1.000  C
  H92      1.0000 0.93420  0.60950  0.02230  Biso   1.000  H
  C165     1.0000 0.84450  0.63000  0.00911  Biso   1.000  C
  C166     1.0000 0.78090  0.63530  0.02260  Biso   1.000  C
  H93      1.0000 0.74940  0.64690  0.00730  Biso   1.000  H
  C167     1.0000 0.76350  0.62370  0.05860  Biso   1.000  C
  H94      1.0000 0.72010  0.62730  0.06780  Biso   1.000  H
  C168     1.0000 0.87500  0.65340  0.97060  Biso   1.000  C
  O55      1.0000 0.92150  0.61040  0.95750  Biso   1.000  O
  C169     1.0000 0.80070  0.72600  0.89982  Biso   1.000  C
  H95      1.0000 0.75150  0.71240  0.91060  Biso   1.000  H
  C170     1.0000 0.82080  0.76430  0.86753  Biso   1.000  C
  C171     1.0000 0.76650  0.78900  0.85107  Biso   1.000  C
  O56      1.0000 0.78210  0.81630  0.82005  Biso   1.000  O
  O57      1.0000 0.71020  0.78220  0.86992  Biso   1.000  O
  N20      1.0000 0.47647  0.94013  0.41436  Biso   1.000  N
  C172     1.0000 0.54007  0.93493  0.40083  Biso   1.000  C
  H96      1.0000 0.57157  0.92333  0.41623  Biso   1.000  H
  C173     1.0000 0.55747  0.94653  0.36493  Biso   1.000  C
  H97      1.0000 0.60087  0.94283  0.35563  Biso   1.000  H
  C174     1.0000 0.51117  0.96333  0.34244  Biso   1.000  C
  C175     1.0000 0.44757  0.96863  0.35593  Biso   1.000  C
  H98      1.0000 0.41607  0.98023  0.34063  Biso   1.000  H
  C176     1.0000 0.43017  0.95703  0.39193  Biso   1.000  C
  H99      1.0000 0.38677  0.96063  0.40113  Biso   1.000  H
  C177     1.0000 0.54167  0.98673  0.30393  Biso   1.000  C
  O58      1.0000 0.58817  0.94373  0.29083  Biso   1.000  O
  C178     1.0000 0.46737  0.05933  0.23315  Biso   1.000  C
  H100     1.0000 0.41817  0.04573  0.24393  Biso   1.000  H
  C179     1.0000 0.48747  0.09763  0.20086  Biso   1.000  C
  C180     1.0000 0.43317  0.12233  0.18440  Biso   1.000  C
  O59      1.0000 0.44877  0.14963  0.15338  Biso   1.000  O
  O60      1.0000 0.37687  0.11553  0.20325  Biso   1.000  O
  N21      1.0000 0.14313  0.27347  0.74770  Biso   1.000  N
  C181     1.0000 0.20673  0.26827  0.73417  Biso   1.000  C
  H101     1.0000 0.23823  0.25667  0.74957  Biso   1.000  H
  C182     1.0000 0.22413  0.27987  0.69827  Biso   1.000  C
  H102     1.0000 0.26753  0.27617  0.68897  Biso   1.000  H
  C183     1.0000 0.17783  0.29667  0.67578  Biso   1.000  C
  C184     1.0000 0.11423  0.30197  0.68927  Biso   1.000  C
  H103     1.0000 0.08273  0.31357  0.67397  Biso   1.000  H
  C185     1.0000 0.09683  0.29037  0.72527  Biso   1.000  C
  H104     1.0000 0.05343  0.29397  0.73447  Biso   1.000  H
  C186     1.0000 0.20833  0.32007  0.63727  Biso   1.000  C
  O61      1.0000 0.25483  0.27707  0.62417  Biso   1.000  O
  C187     1.0000 0.13403  0.39267  0.56649  Biso   1.000  C
  H105     1.0000 0.08483  0.37907  0.57727  Biso   1.000  H
  C188     1.0000 0.15413  0.43097  0.53420  Biso   1.000  C
  C189     1.0000 0.09983  0.45567  0.51774  Biso   1.000  C
  O62      1.0000 0.11543  0.48297  0.48672  Biso   1.000  O
  O63      1.0000 0.04353  0.44887  0.53659  Biso   1.000  O
  N22      1.0000 0.39320  0.20300  0.08103  Biso   1.000  N
  C190     1.0000 0.39840  0.27180  0.06750  Biso   1.000  C
  H106     1.0000 0.41000  0.31490  0.08290  Biso   1.000  H
  C191     1.0000 0.38680  0.27760  0.03160  Biso   1.000  C
  H107     1.0000 0.39050  0.32470  0.02230  Biso   1.000  H
  C192     1.0000 0.37000  0.21450  0.00911  Biso   1.000  C
  C193     1.0000 0.36470  0.14560  0.02260  Biso   1.000  C
  H108     1.0000 0.35310  0.10250  0.00730  Biso   1.000  H
  C194     1.0000 0.37630  0.13980  0.05860  Biso   1.000  C
  H109     1.0000 0.37270  0.09280  0.06780  Biso   1.000  H
  C195     1.0000 0.34660  0.22160  0.97060  Biso   1.000  C
  O64      1.0000 0.38960  0.31110  0.95750  Biso   1.000  O
  C196     1.0000 0.27400  0.07470  0.89982  Biso   1.000  C
  H110     1.0000 0.28760  0.03910  0.91060  Biso   1.000  H
  C197     1.0000 0.23570  0.05650  0.86753  Biso   1.000  C
  C198     1.0000 0.21100  0.97750  0.85107  Biso   1.000  C
  O65      1.0000 0.18370  0.96580  0.82005  Biso   1.000  O
  O66      1.0000 0.21780  0.92800  0.86992  Biso   1.000  O
  N23      1.0000 0.05987  0.53633  0.41436  Biso   1.000  N
  C199     1.0000 0.06507  0.60513  0.40083  Biso   1.000  C
  H111     1.0000 0.07667  0.64823  0.41623  Biso   1.000  H
  C200     1.0000 0.05347  0.61093  0.36493  Biso   1.000  C
  H112     1.0000 0.05717  0.65803  0.35563  Biso   1.000  H
  C201     1.0000 0.03667  0.54783  0.34244  Biso   1.000  C
  C202     1.0000 0.03137  0.47893  0.35593  Biso   1.000  C
  H113     1.0000 0.01977  0.43583  0.34063  Biso   1.000  H
  C203     1.0000 0.04297  0.47313  0.39193  Biso   1.000  C
  H114     1.0000 0.03937  0.42613  0.40113  Biso   1.000  H
  C204     1.0000 0.01327  0.55493  0.30393  Biso   1.000  C
  O67      1.0000 0.05627  0.64443  0.29083  Biso   1.000  O
  C205     1.0000 0.94067  0.40803  0.23315  Biso   1.000  C
  H115     1.0000 0.95427  0.37243  0.24393  Biso   1.000  H
  C206     1.0000 0.90237  0.38983  0.20086  Biso   1.000  C
  C207     1.0000 0.87767  0.31083  0.18440  Biso   1.000  C
  O68      1.0000 0.85037  0.29913  0.15338  Biso   1.000  O
  O69      1.0000 0.88447  0.26133  0.20325  Biso   1.000  O
  N24      1.0000 0.72653  0.86967  0.74770  Biso   1.000  N
  C208     1.0000 0.73173  0.93847  0.73417  Biso   1.000  C
  H116     1.0000 0.74333  0.98157  0.74957  Biso   1.000  H
  C209     1.0000 0.72013  0.94427  0.69827  Biso   1.000  C
  H117     1.0000 0.72383  0.99137  0.68897  Biso   1.000  H
  C210     1.0000 0.70333  0.88117  0.67578  Biso   1.000  C
  C211     1.0000 0.69803  0.81227  0.68927  Biso   1.000  C
  H118     1.0000 0.68643  0.76917  0.67397  Biso   1.000  H
  C212     1.0000 0.70963  0.80647  0.72527  Biso   1.000  C
  H119     1.0000 0.70603  0.75947  0.73447  Biso   1.000  H
  C213     1.0000 0.67993  0.88827  0.63727  Biso   1.000  C
  O70      1.0000 0.72293  0.97777  0.62417  Biso   1.000  O
  C214     1.0000 0.60733  0.74137  0.56649  Biso   1.000  C
  H120     1.0000 0.62093  0.70577  0.57727  Biso   1.000  H
  C215     1.0000 0.56903  0.72317  0.53420  Biso   1.000  C
  C216     1.0000 0.54433  0.64417  0.51774  Biso   1.000  C
  O71      1.0000 0.51703  0.63247  0.48672  Biso   1.000  O
  O72      1.0000 0.55113  0.59467  0.53659  Biso   1.000  O
  N25      1.0000 0.79700  0.19020  0.08103  Biso   1.000  N
  C217     1.0000 0.72820  0.12660  0.06750  Biso   1.000  C
  H121     1.0000 0.68510  0.09510  0.08290  Biso   1.000  H
  C218     1.0000 0.72240  0.10920  0.03160  Biso   1.000  C
  H122     1.0000 0.67530  0.06580  0.02230  Biso   1.000  H
  C219     1.0000 0.78550  0.15550  0.00911  Biso   1.000  C
  C220     1.0000 0.85440  0.21910  0.02260  Biso   1.000  C
  H123     1.0000 0.89750  0.25060  0.00730  Biso   1.000  H
  C221     1.0000 0.86020  0.23650  0.05860  Biso   1.000  C
  H124     1.0000 0.90720  0.27990  0.06780  Biso   1.000  H
  C222     1.0000 0.77840  0.12500  0.97060  Biso   1.000  C
  O73      1.0000 0.68890  0.07850  0.95750  Biso   1.000  O
  C223     1.0000 0.92530  0.19930  0.89982  Biso   1.000  C
  H125     1.0000 0.96090  0.24850  0.91060  Biso   1.000  H
  C224     1.0000 0.94350  0.17920  0.86753  Biso   1.000  C
  C225     1.0000 0.02250  0.23350  0.85107  Biso   1.000  C
  O74      1.0000 0.03420  0.21790  0.82005  Biso   1.000  O
  O75      1.0000 0.07200  0.28980  0.86992  Biso   1.000  O
  N26      1.0000 0.46367  0.52353  0.41436  Biso   1.000  N
  C226     1.0000 0.39487  0.45993  0.40083  Biso   1.000  C
  H126     1.0000 0.35177  0.42843  0.41623  Biso   1.000  H
  C227     1.0000 0.38907  0.44253  0.36493  Biso   1.000  C
  H127     1.0000 0.34197  0.39913  0.35563  Biso   1.000  H
  C228     1.0000 0.45217  0.48883  0.34244  Biso   1.000  C
  C229     1.0000 0.52107  0.55243  0.35593  Biso   1.000  C
  H128     1.0000 0.56417  0.58393  0.34063  Biso   1.000  H
  C230     1.0000 0.52687  0.56983  0.39193  Biso   1.000  C
  H129     1.0000 0.57387  0.61323  0.40113  Biso   1.000  H
  C231     1.0000 0.44507  0.45833  0.30393  Biso   1.000  C
  O76      1.0000 0.35557  0.41183  0.29083  Biso   1.000  O
  C232     1.0000 0.59197  0.53263  0.23315  Biso   1.000  C
  H130     1.0000 0.62757  0.58183  0.24393  Biso   1.000  H
  C233     1.0000 0.61017  0.51253  0.20086  Biso   1.000  C
  C234     1.0000 0.68917  0.56683  0.18440  Biso   1.000  C
  O77      1.0000 0.70087  0.55123  0.15338  Biso   1.000  O
  O78      1.0000 0.73867  0.62313  0.20325  Biso   1.000  O
  N27      1.0000 0.13033  0.85687  0.74770  Biso   1.000  N
  C235     1.0000 0.06153  0.79327  0.73417  Biso   1.000  C
  H131     1.0000 0.01843  0.76177  0.74957  Biso   1.000  H
  C236     1.0000 0.05573  0.77587  0.69827  Biso   1.000  C
  H132     1.0000 0.00863  0.73247  0.68897  Biso   1.000  H
  C237     1.0000 0.11883  0.82217  0.67578  Biso   1.000  C
  C238     1.0000 0.18773  0.88577  0.68927  Biso   1.000  C
  H133     1.0000 0.23083  0.91727  0.67397  Biso   1.000  H
  C239     1.0000 0.19353  0.90317  0.72527  Biso   1.000  C
  H134     1.0000 0.24053  0.94657  0.73447  Biso   1.000  H
  C240     1.0000 0.11173  0.79167  0.63727  Biso   1.000  C
  O79      1.0000 0.02223  0.74517  0.62417  Biso   1.000  O
  C241     1.0000 0.25863  0.86597  0.56649  Biso   1.000  C
  H135     1.0000 0.29423  0.91517  0.57727  Biso   1.000  H
  C242     1.0000 0.27683  0.84587  0.53420  Biso   1.000  C
  C243     1.0000 0.35583  0.90017  0.51774  Biso   1.000  C
  O80      1.0000 0.36753  0.88457  0.48672  Biso   1.000  O
  O81      1.0000 0.40533  0.95647  0.53659  Biso   1.000  O
  N28      1.0000 0.60680  0.80980  0.91897  Biso   1.000  N
  C244     1.0000 0.60160  0.87340  0.93250  Biso   1.000  C
  H136     1.0000 0.59000  0.90490  0.91710  Biso   1.000  H
  C245     1.0000 0.61320  0.89080  0.96840  Biso   1.000  C
  H137     1.0000 0.60950  0.93420  0.97770  Biso   1.000  H
  C246     1.0000 0.63000  0.84450  0.99089  Biso   1.000  C
  C247     1.0000 0.63530  0.78090  0.97740  Biso   1.000  C
  H138     1.0000 0.64690  0.74940  0.99270  Biso   1.000  H
  C248     1.0000 0.62370  0.76350  0.94140  Biso   1.000  C
  H139     1.0000 0.62730  0.72010  0.93220  Biso   1.000  H
  C249     1.0000 0.65340  0.87500  0.02940  Biso   1.000  C
  O82      1.0000 0.61040  0.92150  0.04250  Biso   1.000  O
  C250     1.0000 0.72600  0.80070  0.10018  Biso   1.000  C
  H140     1.0000 0.71240  0.75150  0.08940  Biso   1.000  H
  C251     1.0000 0.76430  0.82080  0.13247  Biso   1.000  C
  C252     1.0000 0.78900  0.76650  0.14893  Biso   1.000  C
  O83      1.0000 0.81630  0.78210  0.17995  Biso   1.000  O
  O84      1.0000 0.78220  0.71020  0.13008  Biso   1.000  O
  N29      1.0000 0.27347  0.14313  0.25230  Biso   1.000  N
  C253     1.0000 0.26827  0.20673  0.26583  Biso   1.000  C
  H141     1.0000 0.25667  0.23823  0.25043  Biso   1.000  H
  C254     1.0000 0.27987  0.22413  0.30173  Biso   1.000  C
  H142     1.0000 0.27617  0.26753  0.31103  Biso   1.000  H
  C255     1.0000 0.29667  0.17783  0.32422  Biso   1.000  C
  C256     1.0000 0.30197  0.11423  0.31073  Biso   1.000  C
  H143     1.0000 0.31357  0.08273  0.32603  Biso   1.000  H
  C257     1.0000 0.29037  0.09683  0.27473  Biso   1.000  C
  H144     1.0000 0.29397  0.05343  0.26553  Biso   1.000  H
  C258     1.0000 0.32007  0.20833  0.36273  Biso   1.000  C
  O85      1.0000 0.27707  0.25483  0.37583  Biso   1.000  O
  C259     1.0000 0.39267  0.13403  0.43351  Biso   1.000  C
  H145     1.0000 0.37907  0.08483  0.42273  Biso   1.000  H
  C260     1.0000 0.43097  0.15413  0.46580  Biso   1.000  C
  C261     1.0000 0.45567  0.09983  0.48226  Biso   1.000  C
  O86      1.0000 0.48297  0.11543  0.51328  Biso   1.000  O
  O87      1.0000 0.44887  0.04353  0.46341  Biso   1.000  O
  N30      1.0000 0.94013  0.47647  0.58564  Biso   1.000  N
  C262     1.0000 0.93493  0.54007  0.59917  Biso   1.000  C
  H146     1.0000 0.92333  0.57157  0.58377  Biso   1.000  H
  C263     1.0000 0.94653  0.55747  0.63507  Biso   1.000  C
  H147     1.0000 0.94283  0.60087  0.64437  Biso   1.000  H
  C264     1.0000 0.96333  0.51117  0.65756  Biso   1.000  C
  C265     1.0000 0.96863  0.44757  0.64407  Biso   1.000  C
  H148     1.0000 0.98023  0.41607  0.65937  Biso   1.000  H
  C266     1.0000 0.95703  0.43017  0.60807  Biso   1.000  C
  H149     1.0000 0.96063  0.38677  0.59887  Biso   1.000  H
  C267     1.0000 0.98673  0.54167  0.69607  Biso   1.000  C
  O88      1.0000 0.94373  0.58817  0.70917  Biso   1.000  O
  C268     1.0000 0.05933  0.46737  0.76685  Biso   1.000  C
  H150     1.0000 0.04573  0.41817  0.75607  Biso   1.000  H
  C269     1.0000 0.09763  0.48747  0.79914  Biso   1.000  C
  C270     1.0000 0.12233  0.43317  0.81560  Biso   1.000  C
  O89      1.0000 0.14963  0.44877  0.84662  Biso   1.000  O
  O90      1.0000 0.11553  0.37687  0.79675  Biso   1.000  O
  N31      1.0000 0.20300  0.39320  0.91897  Biso   1.000  N
  C271     1.0000 0.27180  0.39840  0.93250  Biso   1.000  C
  H151     1.0000 0.31490  0.41000  0.91710  Biso   1.000  H
  C272     1.0000 0.27760  0.38680  0.96840  Biso   1.000  C
  H152     1.0000 0.32470  0.39050  0.97770  Biso   1.000  H
  C273     1.0000 0.21450  0.37000  0.99089  Biso   1.000  C
  C274     1.0000 0.14560  0.36470  0.97740  Biso   1.000  C
  H153     1.0000 0.10250  0.35310  0.99270  Biso   1.000  H
  C275     1.0000 0.13980  0.37630  0.94140  Biso   1.000  C
  H154     1.0000 0.09280  0.37270  0.93220  Biso   1.000  H
  C276     1.0000 0.22160  0.34660  0.02940  Biso   1.000  C
  O91      1.0000 0.31110  0.38960  0.04250  Biso   1.000  O
  C277     1.0000 0.07470  0.27400  0.10018  Biso   1.000  C
  H155     1.0000 0.03910  0.28760  0.08940  Biso   1.000  H
  C278     1.0000 0.05650  0.23570  0.13247  Biso   1.000  C
  C279     1.0000 0.97750  0.21100  0.14893  Biso   1.000  C
  O92      1.0000 0.96580  0.18370  0.17995  Biso   1.000  O
  O93      1.0000 0.92800  0.21780  0.13008  Biso   1.000  O
  N32      1.0000 0.86967  0.72653  0.25230  Biso   1.000  N
  C280     1.0000 0.93847  0.73173  0.26583  Biso   1.000  C
  H156     1.0000 0.98157  0.74333  0.25043  Biso   1.000  H
  C281     1.0000 0.94427  0.72013  0.30173  Biso   1.000  C
  H157     1.0000 0.99137  0.72383  0.31103  Biso   1.000  H
  C282     1.0000 0.88117  0.70333  0.32422  Biso   1.000  C
  C283     1.0000 0.81227  0.69803  0.31073  Biso   1.000  C
  H158     1.0000 0.76917  0.68643  0.32603  Biso   1.000  H
  C284     1.0000 0.80647  0.70963  0.27473  Biso   1.000  C
  H159     1.0000 0.75947  0.70603  0.26553  Biso   1.000  H
  C285     1.0000 0.88827  0.67993  0.36273  Biso   1.000  C
  O94      1.0000 0.97777  0.72293  0.37583  Biso   1.000  O
  C286     1.0000 0.74137  0.60733  0.43351  Biso   1.000  C
  H160     1.0000 0.70577  0.62093  0.42273  Biso   1.000  H
  C287     1.0000 0.72317  0.56903  0.46580  Biso   1.000  C
  C288     1.0000 0.64417  0.54433  0.48226  Biso   1.000  C
  O95      1.0000 0.63247  0.51703  0.51328  Biso   1.000  O
  O96      1.0000 0.59467  0.55113  0.46341  Biso   1.000  O
  N33      1.0000 0.53633  0.05987  0.58564  Biso   1.000  N
  C289     1.0000 0.60513  0.06507  0.59917  Biso   1.000  C
  H161     1.0000 0.64823  0.07667  0.58377  Biso   1.000  H
  C290     1.0000 0.61093  0.05347  0.63507  Biso   1.000  C
  H162     1.0000 0.65803  0.05717  0.64437  Biso   1.000  H
  C291     1.0000 0.54783  0.03667  0.65756  Biso   1.000  C
  C292     1.0000 0.47893  0.03137  0.64407  Biso   1.000  C
  H163     1.0000 0.43583  0.01977  0.65937  Biso   1.000  H
  C293     1.0000 0.47313  0.04297  0.60807  Biso   1.000  C
  H164     1.0000 0.42613  0.03937  0.59887  Biso   1.000  H
  C294     1.0000 0.55493  0.01327  0.69607  Biso   1.000  C
  O97      1.0000 0.64443  0.05627  0.70917  Biso   1.000  O
  C295     1.0000 0.40803  0.94067  0.76685  Biso   1.000  C
  H165     1.0000 0.37243  0.95427  0.75607  Biso   1.000  H
  C296     1.0000 0.38983  0.90237  0.79914  Biso   1.000  C
  C297     1.0000 0.31083  0.87767  0.81560  Biso   1.000  C
  O98      1.0000 0.29913  0.85037  0.84662  Biso   1.000  O
  O99      1.0000 0.26133  0.88447  0.79675  Biso   1.000  O
  N34      1.0000 0.19020  0.79700  0.91897  Biso   1.000  N
  C298     1.0000 0.12660  0.72820  0.93250  Biso   1.000  C
  H166     1.0000 0.09510  0.68510  0.91710  Biso   1.000  H
  C299     1.0000 0.10920  0.72240  0.96840  Biso   1.000  C
  H167     1.0000 0.06580  0.67530  0.97770  Biso   1.000  H
  C300     1.0000 0.15550  0.78550  0.99089  Biso   1.000  C
  C301     1.0000 0.21910  0.85440  0.97740  Biso   1.000  C
  H168     1.0000 0.25060  0.89750  0.99270  Biso   1.000  H
  C302     1.0000 0.23650  0.86020  0.94140  Biso   1.000  C
  H169     1.0000 0.27990  0.90720  0.93220  Biso   1.000  H
  C303     1.0000 0.12500  0.77840  0.02940  Biso   1.000  C
  O100     1.0000 0.07850  0.68890  0.04250  Biso   1.000  O
  C304     1.0000 0.19930  0.92530  0.10018  Biso   1.000  C
  H170     1.0000 0.24850  0.96090  0.08940  Biso   1.000  H
  C305     1.0000 0.17920  0.94350  0.13247  Biso   1.000  C
  C306     1.0000 0.23350  0.02250  0.14893  Biso   1.000  C
  O101     1.0000 0.21790  0.03420  0.17995  Biso   1.000  O
  O102     1.0000 0.28980  0.07200  0.13008  Biso   1.000  O
  N35      1.0000 0.85687  0.13033  0.25230  Biso   1.000  N
  C307     1.0000 0.79327  0.06153  0.26583  Biso   1.000  C
  H171     1.0000 0.76177  0.01843  0.25043  Biso   1.000  H
  C308     1.0000 0.77587  0.05573  0.30173  Biso   1.000  C
  H172     1.0000 0.73247  0.00863  0.31103  Biso   1.000  H
  C309     1.0000 0.82217  0.11883  0.32422  Biso   1.000  C
  C310     1.0000 0.88577  0.18773  0.31073  Biso   1.000  C
  H173     1.0000 0.91727  0.23083  0.32603  Biso   1.000  H
  C311     1.0000 0.90317  0.19353  0.27473  Biso   1.000  C
  H174     1.0000 0.94657  0.24053  0.26553  Biso   1.000  H
  C312     1.0000 0.79167  0.11173  0.36273  Biso   1.000  C
  O103     1.0000 0.74517  0.02223  0.37583  Biso   1.000  O
  C313     1.0000 0.86597  0.25863  0.43351  Biso   1.000  C
  H175     1.0000 0.91517  0.29423  0.42273  Biso   1.000  H
  C314     1.0000 0.84587  0.27683  0.46580  Biso   1.000  C
  C315     1.0000 0.90017  0.35583  0.48226  Biso   1.000  C
  O104     1.0000 0.88457  0.36753  0.51328  Biso   1.000  O
  O105     1.0000 0.95647  0.40533  0.46341  Biso   1.000  O
  N36      1.0000 0.52353  0.46367  0.58564  Biso   1.000  N
  C316     1.0000 0.45993  0.39487  0.59917  Biso   1.000  C
  H176     1.0000 0.42843  0.35177  0.58377  Biso   1.000  H
  C317     1.0000 0.44253  0.38907  0.63507  Biso   1.000  C
  H177     1.0000 0.39913  0.34197  0.64437  Biso   1.000  H
  C318     1.0000 0.48883  0.45217  0.65756  Biso   1.000  C
  C319     1.0000 0.55243  0.52107  0.64407  Biso   1.000  C
  H178     1.0000 0.58393  0.56417  0.65937  Biso   1.000  H
  C320     1.0000 0.56983  0.52687  0.60807  Biso   1.000  C
  H179     1.0000 0.61323  0.57387  0.59887  Biso   1.000  H
  C321     1.0000 0.45833  0.44507  0.69607  Biso   1.000  C
  O106     1.0000 0.41183  0.35557  0.70917  Biso   1.000  O
  C322     1.0000 0.53263  0.59197  0.76685  Biso   1.000  C
  H180     1.0000 0.58183  0.62757  0.75607  Biso   1.000  H
  C323     1.0000 0.51253  0.61017  0.79914  Biso   1.000  C
  C324     1.0000 0.56683  0.68917  0.81560  Biso   1.000  C
  O107     1.0000 0.55123  0.70087  0.84662  Biso   1.000  O
  O108     1.0000 0.62313  0.73867  0.79675  Biso   1.000  O
  Co1      1.0000 0.18883  0.37767  0.86491  Biso   1.000  Co
  C325     1.0000 0.14645  0.29290  0.08340  Biso   1.000  C
  C326     1.0000 0.10905  0.21810  0.14930  Biso   1.000  C
  H181     1.0000 0.09710  0.19420  0.17200  Biso   1.000  H
  N37      1.0000 0.16475  0.32950  0.04910  Biso   1.000  N
  Co2      1.0000 0.85550  0.71100  0.19824  Biso   1.000  Co
  C327     1.0000 0.81312  0.62623  0.41673  Biso   1.000  C
  C328     1.0000 0.77572  0.55143  0.48263  Biso   1.000  C
  H182     1.0000 0.76377  0.52753  0.50533  Biso   1.000  H
  N38      1.0000 0.83142  0.66283  0.38243  Biso   1.000  N
  Co3      1.0000 0.52217  0.04434  0.53158  Biso   1.000  Co
  C329     1.0000 0.47978  0.95957  0.75007  Biso   1.000  C
  C330     1.0000 0.44238  0.88477  0.81597  Biso   1.000  C
  H183     1.0000 0.43043  0.86087  0.83867  Biso   1.000  H
  N39      1.0000 0.49808  0.99617  0.71577  Biso   1.000  N
  Co4      1.0000 0.62233  0.81117  0.86491  Biso   1.000  Co
  C331     1.0000 0.70710  0.85355  0.08340  Biso   1.000  C
  C332     1.0000 0.78190  0.89095  0.14930  Biso   1.000  C
  H184     1.0000 0.80580  0.90290  0.17200  Biso   1.000  H
  N40      1.0000 0.67050  0.83525  0.04910  Biso   1.000  N
  Co5      1.0000 0.28900  0.14450  0.19824  Biso   1.000  Co
  C333     1.0000 0.37377  0.18688  0.41673  Biso   1.000  C
  C334     1.0000 0.44857  0.22428  0.48263  Biso   1.000  C
  H185     1.0000 0.47247  0.23623  0.50533  Biso   1.000  H
  N41      1.0000 0.33717  0.16858  0.38243  Biso   1.000  N
  Co6      1.0000 0.95566  0.47783  0.53158  Biso   1.000  Co
  C335     1.0000 0.04043  0.52022  0.75007  Biso   1.000  C
  C336     1.0000 0.11523  0.55762  0.81597  Biso   1.000  C
  H186     1.0000 0.13913  0.56957  0.83867  Biso   1.000  H
  N42      1.0000 0.00383  0.50192  0.71577  Biso   1.000  N
  Co7      1.0000 0.18883  0.81117  0.86491  Biso   1.000  Co
  C337     1.0000 0.14645  0.85355  0.08340  Biso   1.000  C
  C338     1.0000 0.10905  0.89095  0.14930  Biso   1.000  C
  H187     1.0000 0.09710  0.90290  0.17200  Biso   1.000  H
  N43      1.0000 0.16475  0.83525  0.04910  Biso   1.000  N
  Co8      1.0000 0.85550  0.14450  0.19824  Biso   1.000  Co
  C339     1.0000 0.81312  0.18688  0.41673  Biso   1.000  C
  C340     1.0000 0.77572  0.22428  0.48263  Biso   1.000  C
  H188     1.0000 0.76377  0.23623  0.50533  Biso   1.000  H
  N44      1.0000 0.83142  0.16858  0.38243  Biso   1.000  N
  Co9      1.0000 0.52217  0.47783  0.53158  Biso   1.000  Co
  C341     1.0000 0.47978  0.52022  0.75007  Biso   1.000  C
  C342     1.0000 0.44238  0.55762  0.81597  Biso   1.000  C
  H189     1.0000 0.43043  0.56957  0.83867  Biso   1.000  H
  N45      1.0000 0.49808  0.50192  0.71577  Biso   1.000  N
  Co10     1.0000 0.37767  0.18883  0.13509  Biso   1.000  Co
  C343     1.0000 0.29290  0.14645  0.91660  Biso   1.000  C
  C344     1.0000 0.21810  0.10905  0.85070  Biso   1.000  C
  H190     1.0000 0.19420  0.09710  0.82800  Biso   1.000  H
  N46      1.0000 0.32950  0.16475  0.95090  Biso   1.000  N
  Co11     1.0000 0.04434  0.52217  0.46842  Biso   1.000  Co
  C345     1.0000 0.95957  0.47978  0.24993  Biso   1.000  C
  C346     1.0000 0.88477  0.44238  0.18403  Biso   1.000  C
  H191     1.0000 0.86087  0.43043  0.16133  Biso   1.000  H
  N47      1.0000 0.99617  0.49808  0.28423  Biso   1.000  N
  Co12     1.0000 0.71100  0.85550  0.80176  Biso   1.000  Co
  C347     1.0000 0.62623  0.81312  0.58327  Biso   1.000  C
  C348     1.0000 0.55143  0.77572  0.51737  Biso   1.000  C
  H192     1.0000 0.52753  0.76377  0.49467  Biso   1.000  H
  N48      1.0000 0.66283  0.83142  0.61757  Biso   1.000  N
  Co13     1.0000 0.81117  0.62233  0.13509  Biso   1.000  Co
  C349     1.0000 0.85355  0.70710  0.91660  Biso   1.000  C
  C350     1.0000 0.89095  0.78190  0.85070  Biso   1.000  C
  H193     1.0000 0.90290  0.80580  0.82800  Biso   1.000  H
  N49      1.0000 0.83525  0.67050  0.95090  Biso   1.000  N
  Co14     1.0000 0.47783  0.95566  0.46842  Biso   1.000  Co
  C351     1.0000 0.52022  0.04043  0.24993  Biso   1.000  C
  C352     1.0000 0.55762  0.11523  0.18403  Biso   1.000  C
  H194     1.0000 0.56957  0.13913  0.16133  Biso   1.000  H
  N50      1.0000 0.50192  0.00383  0.28423  Biso   1.000  N
  Co15     1.0000 0.14450  0.28900  0.80176  Biso   1.000  Co
  C353     1.0000 0.18688  0.37377  0.58327  Biso   1.000  C
  C354     1.0000 0.22428  0.44857  0.51737  Biso   1.000  C
  H195     1.0000 0.23623  0.47247  0.49467  Biso   1.000  H
  N51      1.0000 0.16858  0.33717  0.61757  Biso   1.000  N
  Co16     1.0000 0.81117  0.18883  0.13509  Biso   1.000  Co
  C355     1.0000 0.85355  0.14645  0.91660  Biso   1.000  C
  C356     1.0000 0.89095  0.10905  0.85070  Biso   1.000  C
  H196     1.0000 0.90290  0.09710  0.82800  Biso   1.000  H
  N52      1.0000 0.83525  0.16475  0.95090  Biso   1.000  N
  Co17     1.0000 0.47783  0.52217  0.46842  Biso   1.000  Co
  C357     1.0000 0.52022  0.47978  0.24993  Biso   1.000  C
  C358     1.0000 0.55762  0.44238  0.18403  Biso   1.000  C
  H197     1.0000 0.56957  0.43043  0.16133  Biso   1.000  H
  N53      1.0000 0.50192  0.49808  0.28423  Biso   1.000  N
  Co18     1.0000 0.14450  0.85550  0.80176  Biso   1.000  Co
  C359     1.0000 0.18688  0.81312  0.58327  Biso   1.000  C
  C360     1.0000 0.22428  0.77572  0.51737  Biso   1.000  C
  H198     1.0000 0.23623  0.76377  0.49467  Biso   1.000  H
  N54      1.0000 0.16858  0.83142  0.61757  Biso   1.000  N
