data_image0
_cell_length_a       18.1391
_cell_length_b       18.1391
_cell_length_c       48.6861
_cell_angle_alpha    90
_cell_angle_beta     90
_cell_angle_gamma    120

_symmetry_space_group_name_H-M    "P 1"
_symmetry_int_tables_number       1

loop_
  _symmetry_equiv_pos_as_xyz
  'x, y, z'

loop_
  _atom_site_label
  _atom_site_occupancy
  _atom_site_fract_x
  _atom_site_fract_y
  _atom_site_fract_z
  _atom_site_thermal_displace_type
  _atom_site_B_iso_or_equiv
  _atom_site_type_symbol
  Cu1      1.0000 0.50730  0.44510  0.52000  Biso   1.000  Cu
  C1       1.0000 0.62360  0.54730  0.47370  Biso   1.000  C
  O1       1.0000 0.60650  0.51240  0.49770  Biso   1.000  O
  O2       1.0000 0.56790  0.55900  0.46100  Biso   1.000  O
  C2       1.0000 0.79980  0.63770  0.42230  Biso   1.000  C
  C3       1.0000 0.86020  0.62300  0.43490  Biso   1.000  C
  H1       1.0000 0.91080  0.63900  0.42610  Biso   1.000  H
  C4       1.0000 0.84420  0.58600  0.46070  Biso   1.000  C
  C5       1.0000 0.76780  0.56200  0.47390  Biso   1.000  C
  H2       1.0000 0.75720  0.53800  0.49100  Biso   1.000  H
  C6       1.0000 0.70740  0.57690  0.46136  Biso   1.000  C
  C7       1.0000 0.72340  0.61450  0.43550  Biso   1.000  C
  H3       1.0000 0.68340  0.62400  0.42720  Biso   1.000  H
  C8       1.0000 0.89700  0.55730  0.47690  Biso   1.000  C
  O3       1.0000 0.87540  0.53100  0.50180  Biso   1.000  O
  O4       1.0000 0.97120  0.57600  0.46780  Biso   1.000  O
  N1       1.0000 0.84020  0.67960  0.39710  Biso   1.000  N
  C9       1.0000 0.79500  0.69600  0.37930  Biso   1.000  C
  O5       1.0000 0.71900  0.67000  0.38210  Biso   1.000  O
  H4       1.0000 0.89330  0.69900  0.39260  Biso   1.000  H
  C10      1.0000 0.83250  0.72910  0.35065  Biso   1.000  C
  C11      1.0000 0.78240  0.73510  0.33010  Biso   1.000  C
  C12      1.0000 0.81670  0.76500  0.30430  Biso   1.000  C
  C13      1.0000 0.90100  0.78900  0.29890  Biso   1.000  C
  C14      1.0000 0.95110  0.78310  0.31940  Biso   1.000  C
  C15      1.0000 0.91690  0.75320  0.34530  Biso   1.000  C
  H5       1.0000 0.72660  0.71900  0.33370  Biso   1.000  H
  H6       1.0000 0.78400  0.76900  0.29070  Biso   1.000  H
  H7       1.0000 0.00690  0.79900  0.31580  Biso   1.000  H
  H8       1.0000 0.95000  0.74900  0.35880  Biso   1.000  H
  C16      1.0000 0.93680  0.82030  0.27185  Biso   1.000  C
  C17      1.0000 0.89930  0.77580  0.24630  Biso   1.000  C
  N2       1.0000 0.93360  0.80310  0.22150  Biso   1.000  N
  C18      1.0000 0.01070  0.87920  0.21840  Biso   1.000  C
  N3       1.0000 0.05080  0.92580  0.24200  Biso   1.000  N
  C19      1.0000 0.01650  0.89850  0.26680  Biso   1.000  C
  H9       1.0000 0.04370  0.92980  0.28220  Biso   1.000  H
  H10      1.0000 0.03400  0.89720  0.20110  Biso   1.000  H
  H11      1.0000 0.84850  0.72520  0.24650  Biso   1.000  H
  C20      1.0000 0.78080  0.69940  0.32750  Biso   1.000  C
  C21      1.0000 0.81510  0.72900  0.30160  Biso   1.000  C
  C22      1.0000 0.95270  0.81870  0.32200  Biso   1.000  C
  C23      1.0000 0.91850  0.78880  0.34790  Biso   1.000  C
  H12      1.0000 0.72400  0.66000  0.32940  Biso   1.000  H
  H13      1.0000 0.78100  0.71000  0.28630  Biso   1.000  H
  H14      1.0000 0.00960  0.85800  0.32020  Biso   1.000  H
  H15      1.0000 0.95270  0.80800  0.36320  Biso   1.000  H
  Cu2      1.0000 0.17397  0.77843  0.85333  Biso   1.000  Cu
  C24      1.0000 0.29027  0.88063  0.80703  Biso   1.000  C
  O6       1.0000 0.27317  0.84573  0.83103  Biso   1.000  O
  O7       1.0000 0.23457  0.89233  0.79433  Biso   1.000  O
  C25      1.0000 0.46647  0.97103  0.75563  Biso   1.000  C
  C26      1.0000 0.52687  0.95633  0.76823  Biso   1.000  C
  H16      1.0000 0.57747  0.97233  0.75943  Biso   1.000  H
  C27      1.0000 0.51087  0.91933  0.79403  Biso   1.000  C
  C28      1.0000 0.43447  0.89533  0.80723  Biso   1.000  C
  H17      1.0000 0.42387  0.87133  0.82433  Biso   1.000  H
  C29      1.0000 0.37407  0.91023  0.79469  Biso   1.000  C
  C30      1.0000 0.39007  0.94783  0.76883  Biso   1.000  C
  H18      1.0000 0.35007  0.95733  0.76053  Biso   1.000  H
  C31      1.0000 0.56367  0.89063  0.81023  Biso   1.000  C
  O8       1.0000 0.54207  0.86433  0.83513  Biso   1.000  O
  O9       1.0000 0.63787  0.90933  0.80113  Biso   1.000  O
  N4       1.0000 0.50687  0.01293  0.73043  Biso   1.000  N
  C32      1.0000 0.46167  0.02933  0.71263  Biso   1.000  C
  O10      1.0000 0.38567  0.00333  0.71543  Biso   1.000  O
  H19      1.0000 0.55997  0.03233  0.72593  Biso   1.000  H
  C33      1.0000 0.49917  0.06243  0.68398  Biso   1.000  C
  C34      1.0000 0.44907  0.06843  0.66343  Biso   1.000  C
  C35      1.0000 0.48337  0.09833  0.63763  Biso   1.000  C
  C36      1.0000 0.56767  0.12233  0.63223  Biso   1.000  C
  C37      1.0000 0.61777  0.11643  0.65273  Biso   1.000  C
  C38      1.0000 0.58357  0.08653  0.67863  Biso   1.000  C
  H20      1.0000 0.39327  0.05233  0.66703  Biso   1.000  H
  H21      1.0000 0.45067  0.10233  0.62403  Biso   1.000  H
  H22      1.0000 0.67357  0.13233  0.64913  Biso   1.000  H
  H23      1.0000 0.61667  0.08233  0.69213  Biso   1.000  H
  C39      1.0000 0.60347  0.15363  0.60518  Biso   1.000  C
  C40      1.0000 0.56597  0.10913  0.57963  Biso   1.000  C
  N5       1.0000 0.60027  0.13643  0.55483  Biso   1.000  N
  C41      1.0000 0.67737  0.21253  0.55173  Biso   1.000  C
  N6       1.0000 0.71747  0.25913  0.57533  Biso   1.000  N
  C42      1.0000 0.68317  0.23183  0.60013  Biso   1.000  C
  H24      1.0000 0.71037  0.26313  0.61553  Biso   1.000  H
  H25      1.0000 0.70067  0.23053  0.53443  Biso   1.000  H
  H26      1.0000 0.51517  0.05853  0.57983  Biso   1.000  H
  C43      1.0000 0.44747  0.03273  0.66083  Biso   1.000  C
  C44      1.0000 0.48177  0.06233  0.63493  Biso   1.000  C
  C45      1.0000 0.61937  0.15203  0.65533  Biso   1.000  C
  C46      1.0000 0.58517  0.12213  0.68123  Biso   1.000  C
  H27      1.0000 0.39067  0.99333  0.66273  Biso   1.000  H
  H28      1.0000 0.44767  0.04333  0.61963  Biso   1.000  H
  H29      1.0000 0.67627  0.19133  0.65353  Biso   1.000  H
  H30      1.0000 0.61937  0.14133  0.69653  Biso   1.000  H
  Cu3      1.0000 0.84063  0.11177  0.18667  Biso   1.000  Cu
  C47      1.0000 0.95693  0.21397  0.14037  Biso   1.000  C
  O11      1.0000 0.93983  0.17907  0.16437  Biso   1.000  O
  O12      1.0000 0.90123  0.22567  0.12767  Biso   1.000  O
  C48      1.0000 0.13313  0.30437  0.08897  Biso   1.000  C
  C49      1.0000 0.19353  0.28967  0.10157  Biso   1.000  C
  H31      1.0000 0.24413  0.30567  0.09277  Biso   1.000  H
  C50      1.0000 0.17753  0.25267  0.12737  Biso   1.000  C
  C51      1.0000 0.10113  0.22867  0.14057  Biso   1.000  C
  H32      1.0000 0.09053  0.20467  0.15767  Biso   1.000  H
  C52      1.0000 0.04073  0.24357  0.12803  Biso   1.000  C
  C53      1.0000 0.05673  0.28117  0.10217  Biso   1.000  C
  H33      1.0000 0.01673  0.29067  0.09387  Biso   1.000  H
  C54      1.0000 0.23033  0.22397  0.14357  Biso   1.000  C
  O13      1.0000 0.20873  0.19767  0.16847  Biso   1.000  O
  O14      1.0000 0.30453  0.24267  0.13447  Biso   1.000  O
  N7       1.0000 0.17353  0.34627  0.06377  Biso   1.000  N
  C55      1.0000 0.12833  0.36267  0.04597  Biso   1.000  C
  O15      1.0000 0.05233  0.33667  0.04877  Biso   1.000  O
  H34      1.0000 0.22663  0.36567  0.05927  Biso   1.000  H
  C56      1.0000 0.16583  0.39577  0.01732  Biso   1.000  C
  C57      1.0000 0.11573  0.40177  0.99677  Biso   1.000  C
  C58      1.0000 0.15003  0.43167  0.97097  Biso   1.000  C
  C59      1.0000 0.23433  0.45567  0.96557  Biso   1.000  C
  C60      1.0000 0.28443  0.44977  0.98607  Biso   1.000  C
  C61      1.0000 0.25023  0.41987  0.01197  Biso   1.000  C
  H35      1.0000 0.05993  0.38567  0.00037  Biso   1.000  H
  H36      1.0000 0.11733  0.43567  0.95737  Biso   1.000  H
  H37      1.0000 0.34023  0.46567  0.98247  Biso   1.000  H
  H38      1.0000 0.28333  0.41567  0.02547  Biso   1.000  H
  C62      1.0000 0.27013  0.48697  0.93852  Biso   1.000  C
  C63      1.0000 0.23263  0.44247  0.91297  Biso   1.000  C
  N8       1.0000 0.26693  0.46977  0.88817  Biso   1.000  N
  C64      1.0000 0.34403  0.54587  0.88507  Biso   1.000  C
  N9       1.0000 0.38413  0.59247  0.90867  Biso   1.000  N
  C65      1.0000 0.34983  0.56517  0.93347  Biso   1.000  C
  H39      1.0000 0.37703  0.59647  0.94887  Biso   1.000  H
  H40      1.0000 0.36733  0.56387  0.86777  Biso   1.000  H
  H41      1.0000 0.18183  0.39187  0.91317  Biso   1.000  H
  C66      1.0000 0.11413  0.36607  0.99417  Biso   1.000  C
  C67      1.0000 0.14843  0.39567  0.96827  Biso   1.000  C
  C68      1.0000 0.28603  0.48537  0.98867  Biso   1.000  C
  C69      1.0000 0.25183  0.45547  0.01457  Biso   1.000  C
  H42      1.0000 0.05733  0.32667  0.99607  Biso   1.000  H
  H43      1.0000 0.11433  0.37667  0.95297  Biso   1.000  H
  H44      1.0000 0.34293  0.52467  0.98687  Biso   1.000  H
  H45      1.0000 0.28603  0.47467  0.02987  Biso   1.000  H
  Cu4      1.0000 0.55490  0.06220  0.52000  Biso   1.000  Cu
  C70      1.0000 0.45270  0.07630  0.47370  Biso   1.000  C
  O16      1.0000 0.48760  0.09410  0.49770  Biso   1.000  O
  O17      1.0000 0.44100  0.00890  0.46100  Biso   1.000  O
  C71      1.0000 0.36230  0.16210  0.42230  Biso   1.000  C
  C72      1.0000 0.37700  0.23720  0.43490  Biso   1.000  C
  H46      1.0000 0.36100  0.27180  0.42610  Biso   1.000  H
  C73      1.0000 0.41400  0.25820  0.46070  Biso   1.000  C
  C74      1.0000 0.43800  0.20580  0.47390  Biso   1.000  C
  H47      1.0000 0.46200  0.21920  0.49100  Biso   1.000  H
  C75      1.0000 0.42310  0.13050  0.46136  Biso   1.000  C
  C76      1.0000 0.38550  0.10890  0.43550  Biso   1.000  C
  H48      1.0000 0.37600  0.05940  0.42720  Biso   1.000  H
  C77      1.0000 0.44270  0.33970  0.47690  Biso   1.000  C
  O18      1.0000 0.46900  0.34440  0.50180  Biso   1.000  O
  O19      1.0000 0.42400  0.39520  0.46780  Biso   1.000  O
  N10      1.0000 0.32040  0.16060  0.39710  Biso   1.000  N
  C78      1.0000 0.30400  0.09900  0.37930  Biso   1.000  C
  O20      1.0000 0.33000  0.04900  0.38210  Biso   1.000  O
  H49      1.0000 0.30100  0.19430  0.39260  Biso   1.000  H
  C79      1.0000 0.27090  0.10340  0.35065  Biso   1.000  C
  C80      1.0000 0.26490  0.04730  0.33010  Biso   1.000  C
  C81      1.0000 0.23500  0.05170  0.30430  Biso   1.000  C
  C82      1.0000 0.21100  0.11200  0.29890  Biso   1.000  C
  C83      1.0000 0.21690  0.16800  0.31940  Biso   1.000  C
  C84      1.0000 0.24680  0.16370  0.34530  Biso   1.000  C
  H50      1.0000 0.28100  0.00760  0.33370  Biso   1.000  H
  H51      1.0000 0.23100  0.01500  0.29070  Biso   1.000  H
  H52      1.0000 0.20100  0.20790  0.31580  Biso   1.000  H
  H53      1.0000 0.25100  0.20100  0.35880  Biso   1.000  H
  C85      1.0000 0.17970  0.11650  0.27185  Biso   1.000  C
  C86      1.0000 0.22420  0.12350  0.24630  Biso   1.000  C
  N11      1.0000 0.19690  0.13050  0.22150  Biso   1.000  N
  C87      1.0000 0.12080  0.13150  0.21840  Biso   1.000  C
  N12      1.0000 0.07420  0.12500  0.24200  Biso   1.000  N
  C88      1.0000 0.10150  0.11800  0.26680  Biso   1.000  C
  H54      1.0000 0.07020  0.11390  0.28220  Biso   1.000  H
  H55      1.0000 0.10280  0.13680  0.20110  Biso   1.000  H
  H56      1.0000 0.27480  0.12330  0.24650  Biso   1.000  H
  C89      1.0000 0.30060  0.08140  0.32750  Biso   1.000  C
  C90      1.0000 0.27100  0.08610  0.30160  Biso   1.000  C
  C91      1.0000 0.18130  0.13400  0.32200  Biso   1.000  C
  C92      1.0000 0.21120  0.12970  0.34790  Biso   1.000  C
  H57      1.0000 0.34000  0.06400  0.32940  Biso   1.000  H
  H58      1.0000 0.29000  0.07100  0.28630  Biso   1.000  H
  H59      1.0000 0.14200  0.15160  0.32020  Biso   1.000  H
  H60      1.0000 0.19200  0.14470  0.36320  Biso   1.000  H
  Cu5      1.0000 0.22157  0.39553  0.85333  Biso   1.000  Cu
  C93      1.0000 0.11937  0.40963  0.80703  Biso   1.000  C
  O21      1.0000 0.15427  0.42743  0.83103  Biso   1.000  O
  O22      1.0000 0.10767  0.34223  0.79433  Biso   1.000  O
  C94      1.0000 0.02897  0.49543  0.75563  Biso   1.000  C
  C95      1.0000 0.04367  0.57053  0.76823  Biso   1.000  C
  H61      1.0000 0.02767  0.60513  0.75943  Biso   1.000  H
  C96      1.0000 0.08067  0.59153  0.79403  Biso   1.000  C
  C97      1.0000 0.10467  0.53913  0.80723  Biso   1.000  C
  H62      1.0000 0.12867  0.55253  0.82433  Biso   1.000  H
  C98      1.0000 0.08977  0.46383  0.79469  Biso   1.000  C
  C99      1.0000 0.05217  0.44223  0.76883  Biso   1.000  C
  H63      1.0000 0.04267  0.39273  0.76053  Biso   1.000  H
  C100     1.0000 0.10937  0.67303  0.81023  Biso   1.000  C
  O23      1.0000 0.13567  0.67773  0.83513  Biso   1.000  O
  O24      1.0000 0.09067  0.72853  0.80113  Biso   1.000  O
  N13      1.0000 0.98707  0.49393  0.73043  Biso   1.000  N
  C101     1.0000 0.97067  0.43233  0.71263  Biso   1.000  C
  O25      1.0000 0.99667  0.38233  0.71543  Biso   1.000  O
  H64      1.0000 0.96767  0.52763  0.72593  Biso   1.000  H
  C102     1.0000 0.93757  0.43673  0.68398  Biso   1.000  C
  C103     1.0000 0.93157  0.38063  0.66343  Biso   1.000  C
  C104     1.0000 0.90167  0.38503  0.63763  Biso   1.000  C
  C105     1.0000 0.87767  0.44533  0.63223  Biso   1.000  C
  C106     1.0000 0.88357  0.50133  0.65273  Biso   1.000  C
  C107     1.0000 0.91347  0.49703  0.67863  Biso   1.000  C
  H65      1.0000 0.94767  0.34093  0.66703  Biso   1.000  H
  H66      1.0000 0.89767  0.34833  0.62403  Biso   1.000  H
  H67      1.0000 0.86767  0.54123  0.64913  Biso   1.000  H
  H68      1.0000 0.91767  0.53433  0.69213  Biso   1.000  H
  C108     1.0000 0.84637  0.44983  0.60518  Biso   1.000  C
  C109     1.0000 0.89087  0.45683  0.57963  Biso   1.000  C
  N14      1.0000 0.86357  0.46383  0.55483  Biso   1.000  N
  C110     1.0000 0.78747  0.46483  0.55173  Biso   1.000  C
  N15      1.0000 0.74087  0.45833  0.57533  Biso   1.000  N
  C111     1.0000 0.76817  0.45133  0.60013  Biso   1.000  C
  H69      1.0000 0.73687  0.44723  0.61553  Biso   1.000  H
  H70      1.0000 0.76947  0.47013  0.53443  Biso   1.000  H
  H71      1.0000 0.94147  0.45663  0.57983  Biso   1.000  H
  C112     1.0000 0.96727  0.41473  0.66083  Biso   1.000  C
  C113     1.0000 0.93767  0.41943  0.63493  Biso   1.000  C
  C114     1.0000 0.84797  0.46733  0.65533  Biso   1.000  C
  C115     1.0000 0.87787  0.46303  0.68123  Biso   1.000  C
  H72      1.0000 0.00667  0.39733  0.66273  Biso   1.000  H
  H73      1.0000 0.95667  0.40433  0.61963  Biso   1.000  H
  H74      1.0000 0.80867  0.48493  0.65353  Biso   1.000  H
  H75      1.0000 0.85867  0.47803  0.69653  Biso   1.000  H
  Cu6      1.0000 0.88823  0.72887  0.18667  Biso   1.000  Cu
  C116     1.0000 0.78603  0.74297  0.14037  Biso   1.000  C
  O26      1.0000 0.82093  0.76077  0.16437  Biso   1.000  O
  O27      1.0000 0.77433  0.67557  0.12767  Biso   1.000  O
  C117     1.0000 0.69563  0.82877  0.08897  Biso   1.000  C
  C118     1.0000 0.71033  0.90387  0.10157  Biso   1.000  C
  H76      1.0000 0.69433  0.93847  0.09277  Biso   1.000  H
  C119     1.0000 0.74733  0.92487  0.12737  Biso   1.000  C
  C120     1.0000 0.77133  0.87247  0.14057  Biso   1.000  C
  H77      1.0000 0.79533  0.88587  0.15767  Biso   1.000  H
  C121     1.0000 0.75643  0.79717  0.12803  Biso   1.000  C
  C122     1.0000 0.71883  0.77557  0.10217  Biso   1.000  C
  H78      1.0000 0.70933  0.72607  0.09387  Biso   1.000  H
  C123     1.0000 0.77603  0.00637  0.14357  Biso   1.000  C
  O28      1.0000 0.80233  0.01107  0.16847  Biso   1.000  O
  O29      1.0000 0.75733  0.06187  0.13447  Biso   1.000  O
  N16      1.0000 0.65373  0.82727  0.06377  Biso   1.000  N
  C124     1.0000 0.63733  0.76567  0.04597  Biso   1.000  C
  O30      1.0000 0.66333  0.71567  0.04877  Biso   1.000  O
  H79      1.0000 0.63433  0.86097  0.05927  Biso   1.000  H
  C125     1.0000 0.60423  0.77007  0.01732  Biso   1.000  C
  C126     1.0000 0.59823  0.71397  0.99677  Biso   1.000  C
  C127     1.0000 0.56833  0.71837  0.97097  Biso   1.000  C
  C128     1.0000 0.54433  0.77867  0.96557  Biso   1.000  C
  C129     1.0000 0.55023  0.83467  0.98607  Biso   1.000  C
  C130     1.0000 0.58013  0.83037  0.01197  Biso   1.000  C
  H80      1.0000 0.61433  0.67427  0.00037  Biso   1.000  H
  H81      1.0000 0.56433  0.68167  0.95737  Biso   1.000  H
  H82      1.0000 0.53433  0.87457  0.98247  Biso   1.000  H
  H83      1.0000 0.58433  0.86767  0.02547  Biso   1.000  H
  C131     1.0000 0.51303  0.78317  0.93852  Biso   1.000  C
  C132     1.0000 0.55753  0.79017  0.91297  Biso   1.000  C
  N17      1.0000 0.53023  0.79717  0.88817  Biso   1.000  N
  C133     1.0000 0.45413  0.79817  0.88507  Biso   1.000  C
  N18      1.0000 0.40753  0.79167  0.90867  Biso   1.000  N
  C134     1.0000 0.43483  0.78467  0.93347  Biso   1.000  C
  H84      1.0000 0.40353  0.78057  0.94887  Biso   1.000  H
  H85      1.0000 0.43613  0.80347  0.86777  Biso   1.000  H
  H86      1.0000 0.60813  0.78997  0.91317  Biso   1.000  H
  C135     1.0000 0.63393  0.74807  0.99417  Biso   1.000  C
  C136     1.0000 0.60433  0.75277  0.96827  Biso   1.000  C
  C137     1.0000 0.51463  0.80067  0.98867  Biso   1.000  C
  C138     1.0000 0.54453  0.79637  0.01457  Biso   1.000  C
  H87      1.0000 0.67333  0.73067  0.99607  Biso   1.000  H
  H88      1.0000 0.62333  0.73767  0.95297  Biso   1.000  H
  H89      1.0000 0.47533  0.81827  0.98687  Biso   1.000  H
  H90      1.0000 0.52533  0.81137  0.02987  Biso   1.000  H
  Cu7      1.0000 0.93780  0.49270  0.52000  Biso   1.000  Cu
  C139     1.0000 0.92370  0.37640  0.47370  Biso   1.000  C
  O31      1.0000 0.90590  0.39350  0.49770  Biso   1.000  O
  O32      1.0000 0.99110  0.43210  0.46100  Biso   1.000  O
  C140     1.0000 0.83790  0.20020  0.42230  Biso   1.000  C
  C141     1.0000 0.76280  0.13980  0.43490  Biso   1.000  C
  H91      1.0000 0.72820  0.08920  0.42610  Biso   1.000  H
  C142     1.0000 0.74180  0.15580  0.46070  Biso   1.000  C
  C143     1.0000 0.79420  0.23220  0.47390  Biso   1.000  C
  H92      1.0000 0.78080  0.24280  0.49100  Biso   1.000  H
  C144     1.0000 0.86950  0.29260  0.46136  Biso   1.000  C
  C145     1.0000 0.89110  0.27660  0.43550  Biso   1.000  C
  H93      1.0000 0.94060  0.31660  0.42720  Biso   1.000  H
  C146     1.0000 0.66030  0.10300  0.47690  Biso   1.000  C
  O33      1.0000 0.65560  0.12460  0.50180  Biso   1.000  O
  O34      1.0000 0.60480  0.02880  0.46780  Biso   1.000  O
  N19      1.0000 0.83940  0.15980  0.39710  Biso   1.000  N
  C147     1.0000 0.90100  0.20500  0.37930  Biso   1.000  C
  O35      1.0000 0.95100  0.28100  0.38210  Biso   1.000  O
  H94      1.0000 0.80570  0.10670  0.39260  Biso   1.000  H
  C148     1.0000 0.89660  0.16750  0.35065  Biso   1.000  C
  C149     1.0000 0.95270  0.21760  0.33010  Biso   1.000  C
  C150     1.0000 0.94830  0.18330  0.30430  Biso   1.000  C
  C151     1.0000 0.88800  0.09900  0.29890  Biso   1.000  C
  C152     1.0000 0.83200  0.04890  0.31940  Biso   1.000  C
  C153     1.0000 0.83630  0.08310  0.34530  Biso   1.000  C
  H95      1.0000 0.99240  0.27340  0.33370  Biso   1.000  H
  H96      1.0000 0.98500  0.21600  0.29070  Biso   1.000  H
  H97      1.0000 0.79210  0.99310  0.31580  Biso   1.000  H
  H98      1.0000 0.79900  0.05000  0.35880  Biso   1.000  H
  C154     1.0000 0.88350  0.06320  0.27185  Biso   1.000  C
  C155     1.0000 0.87650  0.10070  0.24630  Biso   1.000  C
  N20      1.0000 0.86950  0.06640  0.22150  Biso   1.000  N
  C156     1.0000 0.86850  0.98930  0.21840  Biso   1.000  C
  N21      1.0000 0.87500  0.94920  0.24200  Biso   1.000  N
  C157     1.0000 0.88200  0.98350  0.26680  Biso   1.000  C
  H99      1.0000 0.88610  0.95630  0.28220  Biso   1.000  H
  H100     1.0000 0.86320  0.96600  0.20110  Biso   1.000  H
  H101     1.0000 0.87670  0.15150  0.24650  Biso   1.000  H
  C158     1.0000 0.91860  0.21920  0.32750  Biso   1.000  C
  C159     1.0000 0.91390  0.18490  0.30160  Biso   1.000  C
  C160     1.0000 0.86600  0.04730  0.32200  Biso   1.000  C
  C161     1.0000 0.87030  0.08150  0.34790  Biso   1.000  C
  H102     1.0000 0.93600  0.27600  0.32940  Biso   1.000  H
  H103     1.0000 0.92900  0.21900  0.28630  Biso   1.000  H
  H104     1.0000 0.84840  0.99040  0.32020  Biso   1.000  H
  H105     1.0000 0.85530  0.04730  0.36320  Biso   1.000  H
  Cu8      1.0000 0.60447  0.82603  0.85333  Biso   1.000  Cu
  C162     1.0000 0.59037  0.70973  0.80703  Biso   1.000  C
  O36      1.0000 0.57257  0.72683  0.83103  Biso   1.000  O
  O37      1.0000 0.65777  0.76543  0.79433  Biso   1.000  O
  C163     1.0000 0.50457  0.53353  0.75563  Biso   1.000  C
  C164     1.0000 0.42947  0.47313  0.76823  Biso   1.000  C
  H106     1.0000 0.39487  0.42253  0.75943  Biso   1.000  H
  C165     1.0000 0.40847  0.48913  0.79403  Biso   1.000  C
  C166     1.0000 0.46087  0.56553  0.80723  Biso   1.000  C
  H107     1.0000 0.44747  0.57613  0.82433  Biso   1.000  H
  C167     1.0000 0.53617  0.62593  0.79469  Biso   1.000  C
  C168     1.0000 0.55777  0.60993  0.76883  Biso   1.000  C
  H108     1.0000 0.60727  0.64993  0.76053  Biso   1.000  H
  C169     1.0000 0.32697  0.43633  0.81023  Biso   1.000  C
  O38      1.0000 0.32227  0.45793  0.83513  Biso   1.000  O
  O39      1.0000 0.27147  0.36213  0.80113  Biso   1.000  O
  N22      1.0000 0.50607  0.49313  0.73043  Biso   1.000  N
  C170     1.0000 0.56767  0.53833  0.71263  Biso   1.000  C
  O40      1.0000 0.61767  0.61433  0.71543  Biso   1.000  O
  H109     1.0000 0.47237  0.44003  0.72593  Biso   1.000  H
  C171     1.0000 0.56327  0.50083  0.68398  Biso   1.000  C
  C172     1.0000 0.61937  0.55093  0.66343  Biso   1.000  C
  C173     1.0000 0.61497  0.51663  0.63763  Biso   1.000  C
  C174     1.0000 0.55467  0.43233  0.63223  Biso   1.000  C
  C175     1.0000 0.49867  0.38223  0.65273  Biso   1.000  C
  C176     1.0000 0.50297  0.41643  0.67863  Biso   1.000  C
  H110     1.0000 0.65907  0.60673  0.66703  Biso   1.000  H
  H111     1.0000 0.65167  0.54933  0.62403  Biso   1.000  H
  H112     1.0000 0.45877  0.32643  0.64913  Biso   1.000  H
  H113     1.0000 0.46567  0.38333  0.69213  Biso   1.000  H
  C177     1.0000 0.55017  0.39653  0.60518  Biso   1.000  C
  C178     1.0000 0.54317  0.43403  0.57963  Biso   1.000  C
  N23      1.0000 0.53617  0.39973  0.55483  Biso   1.000  N
  C179     1.0000 0.53517  0.32263  0.55173  Biso   1.000  C
  N24      1.0000 0.54167  0.28253  0.57533  Biso   1.000  N
  C180     1.0000 0.54867  0.31683  0.60013  Biso   1.000  C
  H114     1.0000 0.55277  0.28963  0.61553  Biso   1.000  H
  H115     1.0000 0.52987  0.29933  0.53443  Biso   1.000  H
  H116     1.0000 0.54337  0.48483  0.57983  Biso   1.000  H
  C181     1.0000 0.58527  0.55253  0.66083  Biso   1.000  C
  C182     1.0000 0.58057  0.51823  0.63493  Biso   1.000  C
  C183     1.0000 0.53267  0.38063  0.65533  Biso   1.000  C
  C184     1.0000 0.53697  0.41483  0.68123  Biso   1.000  C
  H117     1.0000 0.60267  0.60933  0.66273  Biso   1.000  H
  H118     1.0000 0.59567  0.55233  0.61963  Biso   1.000  H
  H119     1.0000 0.51507  0.32373  0.65353  Biso   1.000  H
  H120     1.0000 0.52197  0.38063  0.69653  Biso   1.000  H
  Cu9      1.0000 0.27113  0.15937  0.18667  Biso   1.000  Cu
  C185     1.0000 0.25703  0.04307  0.14037  Biso   1.000  C
  O41      1.0000 0.23923  0.06017  0.16437  Biso   1.000  O
  O42      1.0000 0.32443  0.09877  0.12767  Biso   1.000  O
  C186     1.0000 0.17123  0.86687  0.08897  Biso   1.000  C
  C187     1.0000 0.09613  0.80647  0.10157  Biso   1.000  C
  H121     1.0000 0.06153  0.75587  0.09277  Biso   1.000  H
  C188     1.0000 0.07513  0.82247  0.12737  Biso   1.000  C
  C189     1.0000 0.12753  0.89887  0.14057  Biso   1.000  C
  H122     1.0000 0.11413  0.90947  0.15767  Biso   1.000  H
  C190     1.0000 0.20283  0.95927  0.12803  Biso   1.000  C
  C191     1.0000 0.22443  0.94327  0.10217  Biso   1.000  C
  H123     1.0000 0.27393  0.98327  0.09387  Biso   1.000  H
  C192     1.0000 0.99363  0.76967  0.14357  Biso   1.000  C
  O43      1.0000 0.98893  0.79127  0.16847  Biso   1.000  O
  O44      1.0000 0.93813  0.69547  0.13447  Biso   1.000  O
  N25      1.0000 0.17273  0.82647  0.06377  Biso   1.000  N
  C193     1.0000 0.23433  0.87167  0.04597  Biso   1.000  C
  O45      1.0000 0.28433  0.94767  0.04877  Biso   1.000  O
  H124     1.0000 0.13903  0.77337  0.05927  Biso   1.000  H
  C194     1.0000 0.22993  0.83417  0.01732  Biso   1.000  C
  C195     1.0000 0.28603  0.88427  0.99677  Biso   1.000  C
  C196     1.0000 0.28163  0.84997  0.97097  Biso   1.000  C
  C197     1.0000 0.22133  0.76567  0.96557  Biso   1.000  C
  C198     1.0000 0.16533  0.71557  0.98607  Biso   1.000  C
  C199     1.0000 0.16963  0.74977  0.01197  Biso   1.000  C
  H125     1.0000 0.32573  0.94007  0.00037  Biso   1.000  H
  H126     1.0000 0.31833  0.88267  0.95737  Biso   1.000  H
  H127     1.0000 0.12543  0.65977  0.98247  Biso   1.000  H
  H128     1.0000 0.13233  0.71667  0.02547  Biso   1.000  H
  C200     1.0000 0.21683  0.72987  0.93852  Biso   1.000  C
  C201     1.0000 0.20983  0.76737  0.91297  Biso   1.000  C
  N26      1.0000 0.20283  0.73307  0.88817  Biso   1.000  N
  C202     1.0000 0.20183  0.65597  0.88507  Biso   1.000  C
  N27      1.0000 0.20833  0.61587  0.90867  Biso   1.000  N
  C203     1.0000 0.21533  0.65017  0.93347  Biso   1.000  C
  H129     1.0000 0.21943  0.62297  0.94887  Biso   1.000  H
  H130     1.0000 0.19653  0.63267  0.86777  Biso   1.000  H
  H131     1.0000 0.21003  0.81817  0.91317  Biso   1.000  H
  C204     1.0000 0.25193  0.88587  0.99417  Biso   1.000  C
  C205     1.0000 0.24723  0.85157  0.96827  Biso   1.000  C
  C206     1.0000 0.19933  0.71397  0.98867  Biso   1.000  C
  C207     1.0000 0.20363  0.74817  0.01457  Biso   1.000  C
  H132     1.0000 0.26933  0.94267  0.99607  Biso   1.000  H
  H133     1.0000 0.26233  0.88567  0.95297  Biso   1.000  H
  H134     1.0000 0.18173  0.65707  0.98687  Biso   1.000  H
  H135     1.0000 0.18863  0.71397  0.02987  Biso   1.000  H
  Cu10     1.0000 0.44510  0.50730  0.48000  Biso   1.000  Cu
  C208     1.0000 0.54730  0.62360  0.52630  Biso   1.000  C
  O46      1.0000 0.51240  0.60650  0.50230  Biso   1.000  O
  O47      1.0000 0.55900  0.56790  0.53900  Biso   1.000  O
  C209     1.0000 0.63770  0.79980  0.57770  Biso   1.000  C
  C210     1.0000 0.62300  0.86020  0.56510  Biso   1.000  C
  H136     1.0000 0.63900  0.91080  0.57390  Biso   1.000  H
  C211     1.0000 0.58600  0.84420  0.53930  Biso   1.000  C
  C212     1.0000 0.56200  0.76780  0.52610  Biso   1.000  C
  H137     1.0000 0.53800  0.75720  0.50900  Biso   1.000  H
  C213     1.0000 0.57690  0.70740  0.53864  Biso   1.000  C
  C214     1.0000 0.61450  0.72340  0.56450  Biso   1.000  C
  H138     1.0000 0.62400  0.68340  0.57280  Biso   1.000  H
  C215     1.0000 0.55730  0.89700  0.52310  Biso   1.000  C
  O48      1.0000 0.53100  0.87540  0.49820  Biso   1.000  O
  O49      1.0000 0.57600  0.97120  0.53220  Biso   1.000  O
  N28      1.0000 0.67960  0.84020  0.60290  Biso   1.000  N
  C216     1.0000 0.69600  0.79500  0.62070  Biso   1.000  C
  O50      1.0000 0.67000  0.71900  0.61790  Biso   1.000  O
  H139     1.0000 0.69900  0.89330  0.60740  Biso   1.000  H
  C217     1.0000 0.72910  0.83250  0.64935  Biso   1.000  C
  C218     1.0000 0.73510  0.78240  0.66990  Biso   1.000  C
  C219     1.0000 0.76500  0.81670  0.69570  Biso   1.000  C
  C220     1.0000 0.78900  0.90100  0.70110  Biso   1.000  C
  C221     1.0000 0.78310  0.95110  0.68060  Biso   1.000  C
  C222     1.0000 0.75320  0.91690  0.65470  Biso   1.000  C
  H140     1.0000 0.71900  0.72660  0.66630  Biso   1.000  H
  H141     1.0000 0.76900  0.78400  0.70930  Biso   1.000  H
  H142     1.0000 0.79900  0.00690  0.68420  Biso   1.000  H
  H143     1.0000 0.74900  0.95000  0.64120  Biso   1.000  H
  C223     1.0000 0.82030  0.93680  0.72815  Biso   1.000  C
  C224     1.0000 0.77580  0.89930  0.75370  Biso   1.000  C
  N29      1.0000 0.80310  0.93360  0.77850  Biso   1.000  N
  C225     1.0000 0.87920  0.01070  0.78160  Biso   1.000  C
  N30      1.0000 0.92580  0.05080  0.75800  Biso   1.000  N
  C226     1.0000 0.89850  0.01650  0.73320  Biso   1.000  C
  H144     1.0000 0.92980  0.04370  0.71780  Biso   1.000  H
  H145     1.0000 0.89720  0.03400  0.79890  Biso   1.000  H
  H146     1.0000 0.72520  0.84850  0.75350  Biso   1.000  H
  C227     1.0000 0.69940  0.78080  0.67250  Biso   1.000  C
  C228     1.0000 0.72900  0.81510  0.69840  Biso   1.000  C
  C229     1.0000 0.81870  0.95270  0.67800  Biso   1.000  C
  C230     1.0000 0.78880  0.91850  0.65210  Biso   1.000  C
  H147     1.0000 0.66000  0.72400  0.67060  Biso   1.000  H
  H148     1.0000 0.71000  0.78100  0.71370  Biso   1.000  H
  H149     1.0000 0.85800  0.00960  0.67980  Biso   1.000  H
  H150     1.0000 0.80800  0.95270  0.63680  Biso   1.000  H
  Cu11     1.0000 0.11177  0.84063  0.81333  Biso   1.000  Cu
  C231     1.0000 0.21397  0.95693  0.85963  Biso   1.000  C
  O51      1.0000 0.17907  0.93983  0.83563  Biso   1.000  O
  O52      1.0000 0.22567  0.90123  0.87233  Biso   1.000  O
  C232     1.0000 0.30437  0.13313  0.91103  Biso   1.000  C
  C233     1.0000 0.28967  0.19353  0.89843  Biso   1.000  C
  H151     1.0000 0.30567  0.24413  0.90723  Biso   1.000  H
  C234     1.0000 0.25267  0.17753  0.87263  Biso   1.000  C
  C235     1.0000 0.22867  0.10113  0.85943  Biso   1.000  C
  H152     1.0000 0.20467  0.09053  0.84233  Biso   1.000  H
  C236     1.0000 0.24357  0.04073  0.87197  Biso   1.000  C
  C237     1.0000 0.28117  0.05673  0.89783  Biso   1.000  C
  H153     1.0000 0.29067  0.01673  0.90613  Biso   1.000  H
  C238     1.0000 0.22397  0.23033  0.85643  Biso   1.000  C
  O53      1.0000 0.19767  0.20873  0.83153  Biso   1.000  O
  O54      1.0000 0.24267  0.30453  0.86553  Biso   1.000  O
  N31      1.0000 0.34627  0.17353  0.93623  Biso   1.000  N
  C239     1.0000 0.36267  0.12833  0.95403  Biso   1.000  C
  O55      1.0000 0.33667  0.05233  0.95123  Biso   1.000  O
  H154     1.0000 0.36567  0.22663  0.94073  Biso   1.000  H
  C240     1.0000 0.39577  0.16583  0.98268  Biso   1.000  C
  C241     1.0000 0.40177  0.11573  0.00323  Biso   1.000  C
  C242     1.0000 0.43167  0.15003  0.02903  Biso   1.000  C
  C243     1.0000 0.45567  0.23433  0.03443  Biso   1.000  C
  C244     1.0000 0.44977  0.28443  0.01393  Biso   1.000  C
  C245     1.0000 0.41987  0.25023  0.98803  Biso   1.000  C
  H155     1.0000 0.38567  0.05993  0.99963  Biso   1.000  H
  H156     1.0000 0.43567  0.11733  0.04263  Biso   1.000  H
  H157     1.0000 0.46567  0.34023  0.01753  Biso   1.000  H
  H158     1.0000 0.41567  0.28333  0.97453  Biso   1.000  H
  C246     1.0000 0.48697  0.27013  0.06148  Biso   1.000  C
  C247     1.0000 0.44247  0.23263  0.08703  Biso   1.000  C
  N32      1.0000 0.46977  0.26693  0.11183  Biso   1.000  N
  C248     1.0000 0.54587  0.34403  0.11493  Biso   1.000  C
  N33      1.0000 0.59247  0.38413  0.09133  Biso   1.000  N
  C249     1.0000 0.56517  0.34983  0.06653  Biso   1.000  C
  H159     1.0000 0.59647  0.37703  0.05113  Biso   1.000  H
  H160     1.0000 0.56387  0.36733  0.13223  Biso   1.000  H
  H161     1.0000 0.39187  0.18183  0.08683  Biso   1.000  H
  C250     1.0000 0.36607  0.11413  0.00583  Biso   1.000  C
  C251     1.0000 0.39567  0.14843  0.03173  Biso   1.000  C
  C252     1.0000 0.48537  0.28603  0.01133  Biso   1.000  C
  C253     1.0000 0.45547  0.25183  0.98543  Biso   1.000  C
  H162     1.0000 0.32667  0.05733  0.00393  Biso   1.000  H
  H163     1.0000 0.37667  0.11433  0.04703  Biso   1.000  H
  H164     1.0000 0.52467  0.34293  0.01313  Biso   1.000  H
  H165     1.0000 0.47467  0.28603  0.97013  Biso   1.000  H
  Cu12     1.0000 0.77843  0.17397  0.14667  Biso   1.000  Cu
  C254     1.0000 0.88063  0.29027  0.19297  Biso   1.000  C
  O56      1.0000 0.84573  0.27317  0.16897  Biso   1.000  O
  O57      1.0000 0.89233  0.23457  0.20567  Biso   1.000  O
  C255     1.0000 0.97103  0.46647  0.24437  Biso   1.000  C
  C256     1.0000 0.95633  0.52687  0.23177  Biso   1.000  C
  H166     1.0000 0.97233  0.57747  0.24057  Biso   1.000  H
  C257     1.0000 0.91933  0.51087  0.20597  Biso   1.000  C
  C258     1.0000 0.89533  0.43447  0.19277  Biso   1.000  C
  H167     1.0000 0.87133  0.42387  0.17567  Biso   1.000  H
  C259     1.0000 0.91023  0.37407  0.20531  Biso   1.000  C
  C260     1.0000 0.94783  0.39007  0.23117  Biso   1.000  C
  H168     1.0000 0.95733  0.35007  0.23947  Biso   1.000  H
  C261     1.0000 0.89063  0.56367  0.18977  Biso   1.000  C
  O58      1.0000 0.86433  0.54207  0.16487  Biso   1.000  O
  O59      1.0000 0.90933  0.63787  0.19887  Biso   1.000  O
  N34      1.0000 0.01293  0.50687  0.26957  Biso   1.000  N
  C262     1.0000 0.02933  0.46167  0.28737  Biso   1.000  C
  O60      1.0000 0.00333  0.38567  0.28457  Biso   1.000  O
  H169     1.0000 0.03233  0.55997  0.27407  Biso   1.000  H
  C263     1.0000 0.06243  0.49917  0.31602  Biso   1.000  C
  C264     1.0000 0.06843  0.44907  0.33657  Biso   1.000  C
  C265     1.0000 0.09833  0.48337  0.36237  Biso   1.000  C
  C266     1.0000 0.12233  0.56767  0.36777  Biso   1.000  C
  C267     1.0000 0.11643  0.61777  0.34727  Biso   1.000  C
  C268     1.0000 0.08653  0.58357  0.32137  Biso   1.000  C
  H170     1.0000 0.05233  0.39327  0.33297  Biso   1.000  H
  H171     1.0000 0.10233  0.45067  0.37597  Biso   1.000  H
  H172     1.0000 0.13233  0.67357  0.35087  Biso   1.000  H
  H173     1.0000 0.08233  0.61667  0.30787  Biso   1.000  H
  C269     1.0000 0.15363  0.60347  0.39482  Biso   1.000  C
  C270     1.0000 0.10913  0.56597  0.42037  Biso   1.000  C
  N35      1.0000 0.13643  0.60027  0.44517  Biso   1.000  N
  C271     1.0000 0.21253  0.67737  0.44827  Biso   1.000  C
  N36      1.0000 0.25913  0.71747  0.42467  Biso   1.000  N
  C272     1.0000 0.23183  0.68317  0.39987  Biso   1.000  C
  H174     1.0000 0.26313  0.71037  0.38447  Biso   1.000  H
  H175     1.0000 0.23053  0.70067  0.46557  Biso   1.000  H
  H176     1.0000 0.05853  0.51517  0.42017  Biso   1.000  H
  C273     1.0000 0.03273  0.44747  0.33917  Biso   1.000  C
  C274     1.0000 0.06233  0.48177  0.36507  Biso   1.000  C
  C275     1.0000 0.15203  0.61937  0.34467  Biso   1.000  C
  C276     1.0000 0.12213  0.58517  0.31877  Biso   1.000  C
  H177     1.0000 0.99333  0.39067  0.33727  Biso   1.000  H
  H178     1.0000 0.04333  0.44767  0.38037  Biso   1.000  H
  H179     1.0000 0.19133  0.67627  0.34647  Biso   1.000  H
  H180     1.0000 0.14133  0.61937  0.30347  Biso   1.000  H
  Cu13     1.0000 0.06220  0.55490  0.48000  Biso   1.000  Cu
  C277     1.0000 0.07630  0.45270  0.52630  Biso   1.000  C
  O61      1.0000 0.09410  0.48760  0.50230  Biso   1.000  O
  O62      1.0000 0.00890  0.44100  0.53900  Biso   1.000  O
  C278     1.0000 0.16210  0.36230  0.57770  Biso   1.000  C
  C279     1.0000 0.23720  0.37700  0.56510  Biso   1.000  C
  H181     1.0000 0.27180  0.36100  0.57390  Biso   1.000  H
  C280     1.0000 0.25820  0.41400  0.53930  Biso   1.000  C
  C281     1.0000 0.20580  0.43800  0.52610  Biso   1.000  C
  H182     1.0000 0.21920  0.46200  0.50900  Biso   1.000  H
  C282     1.0000 0.13050  0.42310  0.53864  Biso   1.000  C
  C283     1.0000 0.10890  0.38550  0.56450  Biso   1.000  C
  H183     1.0000 0.05940  0.37600  0.57280  Biso   1.000  H
  C284     1.0000 0.33970  0.44270  0.52310  Biso   1.000  C
  O63      1.0000 0.34440  0.46900  0.49820  Biso   1.000  O
  O64      1.0000 0.39520  0.42400  0.53220  Biso   1.000  O
  N37      1.0000 0.16060  0.32040  0.60290  Biso   1.000  N
  C285     1.0000 0.09900  0.30400  0.62070  Biso   1.000  C
  O65      1.0000 0.04900  0.33000  0.61790  Biso   1.000  O
  H184     1.0000 0.19430  0.30100  0.60740  Biso   1.000  H
  C286     1.0000 0.10340  0.27090  0.64935  Biso   1.000  C
  C287     1.0000 0.04730  0.26490  0.66990  Biso   1.000  C
  C288     1.0000 0.05170  0.23500  0.69570  Biso   1.000  C
  C289     1.0000 0.11200  0.21100  0.70110  Biso   1.000  C
  C290     1.0000 0.16800  0.21690  0.68060  Biso   1.000  C
  C291     1.0000 0.16370  0.24680  0.65470  Biso   1.000  C
  H185     1.0000 0.00760  0.28100  0.66630  Biso   1.000  H
  H186     1.0000 0.01500  0.23100  0.70930  Biso   1.000  H
  H187     1.0000 0.20790  0.20100  0.68420  Biso   1.000  H
  H188     1.0000 0.20100  0.25100  0.64120  Biso   1.000  H
  C292     1.0000 0.11650  0.17970  0.72815  Biso   1.000  C
  C293     1.0000 0.12350  0.22420  0.75370  Biso   1.000  C
  N38      1.0000 0.13050  0.19690  0.77850  Biso   1.000  N
  C294     1.0000 0.13150  0.12080  0.78160  Biso   1.000  C
  N39      1.0000 0.12500  0.07420  0.75800  Biso   1.000  N
  C295     1.0000 0.11800  0.10150  0.73320  Biso   1.000  C
  H189     1.0000 0.11390  0.07020  0.71780  Biso   1.000  H
  H190     1.0000 0.13680  0.10280  0.79890  Biso   1.000  H
  H191     1.0000 0.12330  0.27480  0.75350  Biso   1.000  H
  C296     1.0000 0.08140  0.30060  0.67250  Biso   1.000  C
  C297     1.0000 0.08610  0.27100  0.69840  Biso   1.000  C
  C298     1.0000 0.13400  0.18130  0.67800  Biso   1.000  C
  C299     1.0000 0.12970  0.21120  0.65210  Biso   1.000  C
  H192     1.0000 0.06400  0.34000  0.67060  Biso   1.000  H
  H193     1.0000 0.07100  0.29000  0.71370  Biso   1.000  H
  H194     1.0000 0.15160  0.14200  0.67980  Biso   1.000  H
  H195     1.0000 0.14470  0.19200  0.63680  Biso   1.000  H
  Cu14     1.0000 0.72887  0.88823  0.81333  Biso   1.000  Cu
  C300     1.0000 0.74297  0.78603  0.85963  Biso   1.000  C
  O66      1.0000 0.76077  0.82093  0.83563  Biso   1.000  O
  O67      1.0000 0.67557  0.77433  0.87233  Biso   1.000  O
  C301     1.0000 0.82877  0.69563  0.91103  Biso   1.000  C
  C302     1.0000 0.90387  0.71033  0.89843  Biso   1.000  C
  H196     1.0000 0.93847  0.69433  0.90723  Biso   1.000  H
  C303     1.0000 0.92487  0.74733  0.87263  Biso   1.000  C
  C304     1.0000 0.87247  0.77133  0.85943  Biso   1.000  C
  H197     1.0000 0.88587  0.79533  0.84233  Biso   1.000  H
  C305     1.0000 0.79717  0.75643  0.87197  Biso   1.000  C
  C306     1.0000 0.77557  0.71883  0.89783  Biso   1.000  C
  H198     1.0000 0.72607  0.70933  0.90613  Biso   1.000  H
  C307     1.0000 0.00637  0.77603  0.85643  Biso   1.000  C
  O68      1.0000 0.01107  0.80233  0.83153  Biso   1.000  O
  O69      1.0000 0.06187  0.75733  0.86553  Biso   1.000  O
  N40      1.0000 0.82727  0.65373  0.93623  Biso   1.000  N
  C308     1.0000 0.76567  0.63733  0.95403  Biso   1.000  C
  O70      1.0000 0.71567  0.66333  0.95123  Biso   1.000  O
  H199     1.0000 0.86097  0.63433  0.94073  Biso   1.000  H
  C309     1.0000 0.77007  0.60423  0.98268  Biso   1.000  C
  C310     1.0000 0.71397  0.59823  0.00323  Biso   1.000  C
  C311     1.0000 0.71837  0.56833  0.02903  Biso   1.000  C
  C312     1.0000 0.77867  0.54433  0.03443  Biso   1.000  C
  C313     1.0000 0.83467  0.55023  0.01393  Biso   1.000  C
  C314     1.0000 0.83037  0.58013  0.98803  Biso   1.000  C
  H200     1.0000 0.67427  0.61433  0.99963  Biso   1.000  H
  H201     1.0000 0.68167  0.56433  0.04263  Biso   1.000  H
  H202     1.0000 0.87457  0.53433  0.01753  Biso   1.000  H
  H203     1.0000 0.86767  0.58433  0.97453  Biso   1.000  H
  C315     1.0000 0.78317  0.51303  0.06148  Biso   1.000  C
  C316     1.0000 0.79017  0.55753  0.08703  Biso   1.000  C
  N41      1.0000 0.79717  0.53023  0.11183  Biso   1.000  N
  C317     1.0000 0.79817  0.45413  0.11493  Biso   1.000  C
  N42      1.0000 0.79167  0.40753  0.09133  Biso   1.000  N
  C318     1.0000 0.78467  0.43483  0.06653  Biso   1.000  C
  H204     1.0000 0.78057  0.40353  0.05113  Biso   1.000  H
  H205     1.0000 0.80347  0.43613  0.13223  Biso   1.000  H
  H206     1.0000 0.78997  0.60813  0.08683  Biso   1.000  H
  C319     1.0000 0.74807  0.63393  0.00583  Biso   1.000  C
  C320     1.0000 0.75277  0.60433  0.03173  Biso   1.000  C
  C321     1.0000 0.80067  0.51463  0.01133  Biso   1.000  C
  C322     1.0000 0.79637  0.54453  0.98543  Biso   1.000  C
  H207     1.0000 0.73067  0.67333  0.00393  Biso   1.000  H
  H208     1.0000 0.73767  0.62333  0.04703  Biso   1.000  H
  H209     1.0000 0.81827  0.47533  0.01313  Biso   1.000  H
  H210     1.0000 0.81137  0.52533  0.97013  Biso   1.000  H
  Cu15     1.0000 0.39553  0.22157  0.14667  Biso   1.000  Cu
  C323     1.0000 0.40963  0.11937  0.19297  Biso   1.000  C
  O71      1.0000 0.42743  0.15427  0.16897  Biso   1.000  O
  O72      1.0000 0.34223  0.10767  0.20567  Biso   1.000  O
  C324     1.0000 0.49543  0.02897  0.24437  Biso   1.000  C
  C325     1.0000 0.57053  0.04367  0.23177  Biso   1.000  C
  H211     1.0000 0.60513  0.02767  0.24057  Biso   1.000  H
  C326     1.0000 0.59153  0.08067  0.20597  Biso   1.000  C
  C327     1.0000 0.53913  0.10467  0.19277  Biso   1.000  C
  H212     1.0000 0.55253  0.12867  0.17567  Biso   1.000  H
  C328     1.0000 0.46383  0.08977  0.20531  Biso   1.000  C
  C329     1.0000 0.44223  0.05217  0.23117  Biso   1.000  C
  H213     1.0000 0.39273  0.04267  0.23947  Biso   1.000  H
  C330     1.0000 0.67303  0.10937  0.18977  Biso   1.000  C
  O73      1.0000 0.67773  0.13567  0.16487  Biso   1.000  O
  O74      1.0000 0.72853  0.09067  0.19887  Biso   1.000  O
  N43      1.0000 0.49393  0.98707  0.26957  Biso   1.000  N
  C331     1.0000 0.43233  0.97067  0.28737  Biso   1.000  C
  O75      1.0000 0.38233  0.99667  0.28457  Biso   1.000  O
  H214     1.0000 0.52763  0.96767  0.27407  Biso   1.000  H
  C332     1.0000 0.43673  0.93757  0.31602  Biso   1.000  C
  C333     1.0000 0.38063  0.93157  0.33657  Biso   1.000  C
  C334     1.0000 0.38503  0.90167  0.36237  Biso   1.000  C
  C335     1.0000 0.44533  0.87767  0.36777  Biso   1.000  C
  C336     1.0000 0.50133  0.88357  0.34727  Biso   1.000  C
  C337     1.0000 0.49703  0.91347  0.32137  Biso   1.000  C
  H215     1.0000 0.34093  0.94767  0.33297  Biso   1.000  H
  H216     1.0000 0.34833  0.89767  0.37597  Biso   1.000  H
  H217     1.0000 0.54123  0.86767  0.35087  Biso   1.000  H
  H218     1.0000 0.53433  0.91767  0.30787  Biso   1.000  H
  C338     1.0000 0.44983  0.84637  0.39482  Biso   1.000  C
  C339     1.0000 0.45683  0.89087  0.42037  Biso   1.000  C
  N44      1.0000 0.46383  0.86357  0.44517  Biso   1.000  N
  C340     1.0000 0.46483  0.78747  0.44827  Biso   1.000  C
  N45      1.0000 0.45833  0.74087  0.42467  Biso   1.000  N
  C341     1.0000 0.45133  0.76817  0.39987  Biso   1.000  C
  H219     1.0000 0.44723  0.73687  0.38447  Biso   1.000  H
  H220     1.0000 0.47013  0.76947  0.46557  Biso   1.000  H
  H221     1.0000 0.45663  0.94147  0.42017  Biso   1.000  H
  C342     1.0000 0.41473  0.96727  0.33917  Biso   1.000  C
  C343     1.0000 0.41943  0.93767  0.36507  Biso   1.000  C
  C344     1.0000 0.46733  0.84797  0.34467  Biso   1.000  C
  C345     1.0000 0.46303  0.87787  0.31877  Biso   1.000  C
  H222     1.0000 0.39733  0.00667  0.33727  Biso   1.000  H
  H223     1.0000 0.40433  0.95667  0.38037  Biso   1.000  H
  H224     1.0000 0.48493  0.80867  0.34647  Biso   1.000  H
  H225     1.0000 0.47803  0.85867  0.30347  Biso   1.000  H
  Cu16     1.0000 0.49270  0.93780  0.48000  Biso   1.000  Cu
  C346     1.0000 0.37640  0.92370  0.52630  Biso   1.000  C
  O76      1.0000 0.39350  0.90590  0.50230  Biso   1.000  O
  O77      1.0000 0.43210  0.99110  0.53900  Biso   1.000  O
  C347     1.0000 0.20020  0.83790  0.57770  Biso   1.000  C
  C348     1.0000 0.13980  0.76280  0.56510  Biso   1.000  C
  H226     1.0000 0.08920  0.72820  0.57390  Biso   1.000  H
  C349     1.0000 0.15580  0.74180  0.53930  Biso   1.000  C
  C350     1.0000 0.23220  0.79420  0.52610  Biso   1.000  C
  H227     1.0000 0.24280  0.78080  0.50900  Biso   1.000  H
  C351     1.0000 0.29260  0.86950  0.53864  Biso   1.000  C
  C352     1.0000 0.27660  0.89110  0.56450  Biso   1.000  C
  H228     1.0000 0.31660  0.94060  0.57280  Biso   1.000  H
  C353     1.0000 0.10300  0.66030  0.52310  Biso   1.000  C
  O78      1.0000 0.12460  0.65560  0.49820  Biso   1.000  O
  O79      1.0000 0.02880  0.60480  0.53220  Biso   1.000  O
  N46      1.0000 0.15980  0.83940  0.60290  Biso   1.000  N
  C354     1.0000 0.20500  0.90100  0.62070  Biso   1.000  C
  O80      1.0000 0.28100  0.95100  0.61790  Biso   1.000  O
  H229     1.0000 0.10670  0.80570  0.60740  Biso   1.000  H
  C355     1.0000 0.16750  0.89660  0.64935  Biso   1.000  C
  C356     1.0000 0.21760  0.95270  0.66990  Biso   1.000  C
  C357     1.0000 0.18330  0.94830  0.69570  Biso   1.000  C
  C358     1.0000 0.09900  0.88800  0.70110  Biso   1.000  C
  C359     1.0000 0.04890  0.83200  0.68060  Biso   1.000  C
  C360     1.0000 0.08310  0.83630  0.65470  Biso   1.000  C
  H230     1.0000 0.27340  0.99240  0.66630  Biso   1.000  H
  H231     1.0000 0.21600  0.98500  0.70930  Biso   1.000  H
  H232     1.0000 0.99310  0.79210  0.68420  Biso   1.000  H
  H233     1.0000 0.05000  0.79900  0.64120  Biso   1.000  H
  C361     1.0000 0.06320  0.88350  0.72815  Biso   1.000  C
  C362     1.0000 0.10070  0.87650  0.75370  Biso   1.000  C
  N47      1.0000 0.06640  0.86950  0.77850  Biso   1.000  N
  C363     1.0000 0.98930  0.86850  0.78160  Biso   1.000  C
  N48      1.0000 0.94920  0.87500  0.75800  Biso   1.000  N
  C364     1.0000 0.98350  0.88200  0.73320  Biso   1.000  C
  H234     1.0000 0.95630  0.88610  0.71780  Biso   1.000  H
  H235     1.0000 0.96600  0.86320  0.79890  Biso   1.000  H
  H236     1.0000 0.15150  0.87670  0.75350  Biso   1.000  H
  C365     1.0000 0.21920  0.91860  0.67250  Biso   1.000  C
  C366     1.0000 0.18490  0.91390  0.69840  Biso   1.000  C
  C367     1.0000 0.04730  0.86600  0.67800  Biso   1.000  C
  C368     1.0000 0.08150  0.87030  0.65210  Biso   1.000  C
  H237     1.0000 0.27600  0.93600  0.67060  Biso   1.000  H
  H238     1.0000 0.21900  0.92900  0.71370  Biso   1.000  H
  H239     1.0000 0.99040  0.84840  0.67980  Biso   1.000  H
  H240     1.0000 0.04730  0.85530  0.63680  Biso   1.000  H
  Cu17     1.0000 0.15937  0.27113  0.81333  Biso   1.000  Cu
  C369     1.0000 0.04307  0.25703  0.85963  Biso   1.000  C
  O81      1.0000 0.06017  0.23923  0.83563  Biso   1.000  O
  O82      1.0000 0.09877  0.32443  0.87233  Biso   1.000  O
  C370     1.0000 0.86687  0.17123  0.91103  Biso   1.000  C
  C371     1.0000 0.80647  0.09613  0.89843  Biso   1.000  C
  H241     1.0000 0.75587  0.06153  0.90723  Biso   1.000  H
  C372     1.0000 0.82247  0.07513  0.87263  Biso   1.000  C
  C373     1.0000 0.89887  0.12753  0.85943  Biso   1.000  C
  H242     1.0000 0.90947  0.11413  0.84233  Biso   1.000  H
  C374     1.0000 0.95927  0.20283  0.87197  Biso   1.000  C
  C375     1.0000 0.94327  0.22443  0.89783  Biso   1.000  C
  H243     1.0000 0.98327  0.27393  0.90613  Biso   1.000  H
  C376     1.0000 0.76967  0.99363  0.85643  Biso   1.000  C
  O83      1.0000 0.79127  0.98893  0.83153  Biso   1.000  O
  O84      1.0000 0.69547  0.93813  0.86553  Biso   1.000  O
  N49      1.0000 0.82647  0.17273  0.93623  Biso   1.000  N
  C377     1.0000 0.87167  0.23433  0.95403  Biso   1.000  C
  O85      1.0000 0.94767  0.28433  0.95123  Biso   1.000  O
  H244     1.0000 0.77337  0.13903  0.94073  Biso   1.000  H
  C378     1.0000 0.83417  0.22993  0.98268  Biso   1.000  C
  C379     1.0000 0.88427  0.28603  0.00323  Biso   1.000  C
  C380     1.0000 0.84997  0.28163  0.02903  Biso   1.000  C
  C381     1.0000 0.76567  0.22133  0.03443  Biso   1.000  C
  C382     1.0000 0.71557  0.16533  0.01393  Biso   1.000  C
  C383     1.0000 0.74977  0.16963  0.98803  Biso   1.000  C
  H245     1.0000 0.94007  0.32573  0.99963  Biso   1.000  H
  H246     1.0000 0.88267  0.31833  0.04263  Biso   1.000  H
  H247     1.0000 0.65977  0.12543  0.01753  Biso   1.000  H
  H248     1.0000 0.71667  0.13233  0.97453  Biso   1.000  H
  C384     1.0000 0.72987  0.21683  0.06148  Biso   1.000  C
  C385     1.0000 0.76737  0.20983  0.08703  Biso   1.000  C
  N50      1.0000 0.73307  0.20283  0.11183  Biso   1.000  N
  C386     1.0000 0.65597  0.20183  0.11493  Biso   1.000  C
  N51      1.0000 0.61587  0.20833  0.09133  Biso   1.000  N
  C387     1.0000 0.65017  0.21533  0.06653  Biso   1.000  C
  H249     1.0000 0.62297  0.21943  0.05113  Biso   1.000  H
  H250     1.0000 0.63267  0.19653  0.13223  Biso   1.000  H
  H251     1.0000 0.81817  0.21003  0.08683  Biso   1.000  H
  C388     1.0000 0.88587  0.25193  0.00583  Biso   1.000  C
  C389     1.0000 0.85157  0.24723  0.03173  Biso   1.000  C
  C390     1.0000 0.71397  0.19933  0.01133  Biso   1.000  C
  C391     1.0000 0.74817  0.20363  0.98543  Biso   1.000  C
  H252     1.0000 0.94267  0.26933  0.00393  Biso   1.000  H
  H253     1.0000 0.88567  0.26233  0.04703  Biso   1.000  H
  H254     1.0000 0.65707  0.18173  0.01313  Biso   1.000  H
  H255     1.0000 0.71397  0.18863  0.97013  Biso   1.000  H
  Cu18     1.0000 0.82603  0.60447  0.14667  Biso   1.000  Cu
  C392     1.0000 0.70973  0.59037  0.19297  Biso   1.000  C
  O86      1.0000 0.72683  0.57257  0.16897  Biso   1.000  O
  O87      1.0000 0.76543  0.65777  0.20567  Biso   1.000  O
  C393     1.0000 0.53353  0.50457  0.24437  Biso   1.000  C
  C394     1.0000 0.47313  0.42947  0.23177  Biso   1.000  C
  H256     1.0000 0.42253  0.39487  0.24057  Biso   1.000  H
  C395     1.0000 0.48913  0.40847  0.20597  Biso   1.000  C
  C396     1.0000 0.56553  0.46087  0.19277  Biso   1.000  C
  H257     1.0000 0.57613  0.44747  0.17567  Biso   1.000  H
  C397     1.0000 0.62593  0.53617  0.20531  Biso   1.000  C
  C398     1.0000 0.60993  0.55777  0.23117  Biso   1.000  C
  H258     1.0000 0.64993  0.60727  0.23947  Biso   1.000  H
  C399     1.0000 0.43633  0.32697  0.18977  Biso   1.000  C
  O88      1.0000 0.45793  0.32227  0.16487  Biso   1.000  O
  O89      1.0000 0.36213  0.27147  0.19887  Biso   1.000  O
  N52      1.0000 0.49313  0.50607  0.26957  Biso   1.000  N
  C400     1.0000 0.53833  0.56767  0.28737  Biso   1.000  C
  O90      1.0000 0.61433  0.61767  0.28457  Biso   1.000  O
  H259     1.0000 0.44003  0.47237  0.27407  Biso   1.000  H
  C401     1.0000 0.50083  0.56327  0.31602  Biso   1.000  C
  C402     1.0000 0.55093  0.61937  0.33657  Biso   1.000  C
  C403     1.0000 0.51663  0.61497  0.36237  Biso   1.000  C
  C404     1.0000 0.43233  0.55467  0.36777  Biso   1.000  C
  C405     1.0000 0.38223  0.49867  0.34727  Biso   1.000  C
  C406     1.0000 0.41643  0.50297  0.32137  Biso   1.000  C
  H260     1.0000 0.60673  0.65907  0.33297  Biso   1.000  H
  H261     1.0000 0.54933  0.65167  0.37597  Biso   1.000  H
  H262     1.0000 0.32643  0.45877  0.35087  Biso   1.000  H
  H263     1.0000 0.38333  0.46567  0.30787  Biso   1.000  H
  C407     1.0000 0.39653  0.55017  0.39482  Biso   1.000  C
  C408     1.0000 0.43403  0.54317  0.42037  Biso   1.000  C
  N53      1.0000 0.39973  0.53617  0.44517  Biso   1.000  N
  C409     1.0000 0.32263  0.53517  0.44827  Biso   1.000  C
  N54      1.0000 0.28253  0.54167  0.42467  Biso   1.000  N
  C410     1.0000 0.31683  0.54867  0.39987  Biso   1.000  C
  H264     1.0000 0.28963  0.55277  0.38447  Biso   1.000  H
  H265     1.0000 0.29933  0.52987  0.46557  Biso   1.000  H
  H266     1.0000 0.48483  0.54337  0.42017  Biso   1.000  H
  C411     1.0000 0.55253  0.58527  0.33917  Biso   1.000  C
  C412     1.0000 0.51823  0.58057  0.36507  Biso   1.000  C
  C413     1.0000 0.38063  0.53267  0.34467  Biso   1.000  C
  C414     1.0000 0.41483  0.53697  0.31877  Biso   1.000  C
  H267     1.0000 0.60933  0.60267  0.33727  Biso   1.000  H
  H268     1.0000 0.55233  0.59567  0.38037  Biso   1.000  H
  H269     1.0000 0.32373  0.51507  0.34647  Biso   1.000  H
  H270     1.0000 0.38063  0.52197  0.30347  Biso   1.000  H
