data_image0
_cell_length_a       18.1568
_cell_length_b       18.1568
_cell_length_c       48.6603
_cell_angle_alpha    90
_cell_angle_beta     90
_cell_angle_gamma    120

_symmetry_space_group_name_H-M    "P 1"
_symmetry_int_tables_number       1

loop_
  _symmetry_equiv_pos_as_xyz
  'x, y, z'

loop_
  _atom_site_label
  _atom_site_occupancy
  _atom_site_fract_x
  _atom_site_fract_y
  _atom_site_fract_z
  _atom_site_thermal_displace_type
  _atom_site_B_iso_or_equiv
  _atom_site_type_symbol
  Cu1      1.0000 0.51130  0.44710  0.52000  Biso   1.000  Cu
  C1       1.0000 0.62540  0.54560  0.47210  Biso   1.000  C
  O1       1.0000 0.60900  0.51380  0.49620  Biso   1.000  O
  O2       1.0000 0.56870  0.55100  0.45850  Biso   1.000  O
  C2       1.0000 0.80510  0.63900  0.42260  Biso   1.000  C
  C3       1.0000 0.86760  0.62900  0.43580  Biso   1.000  C
  H1       1.0000 0.91930  0.64700  0.42740  Biso   1.000  H
  C4       1.0000 0.85190  0.59200  0.46170  Biso   1.000  C
  C5       1.0000 0.77380  0.56400  0.47440  Biso   1.000  C
  H2       1.0000 0.76350  0.54000  0.49150  Biso   1.000  H
  C6       1.0000 0.71140  0.57410  0.46110  Biso   1.000  C
  C7       1.0000 0.72710  0.61120  0.43520  Biso   1.000  C
  H3       1.0000 0.68570  0.61800  0.42640  Biso   1.000  H
  C8       1.0000 0.90750  0.56790  0.47910  Biso   1.000  C
  O3       1.0000 0.87660  0.53100  0.50180  Biso   1.000  O
  O4       1.0000 0.97970  0.58100  0.47120  Biso   1.000  O
  N1       1.0000 0.84040  0.68040  0.39680  Biso   1.000  N
  C9       1.0000 0.79500  0.69700  0.37890  Biso   1.000  C
  O5       1.0000 0.71900  0.66900  0.38120  Biso   1.000  O
  H4       1.0000 0.89350  0.69900  0.39240  Biso   1.000  H
  C10      1.0000 0.83230  0.72970  0.35070  Biso   1.000  C
  C11      1.0000 0.78150  0.73300  0.33000  Biso   1.000  C
  C12      1.0000 0.81500  0.76300  0.30410  Biso   1.000  C
  C13      1.0000 0.90000  0.78950  0.29890  Biso   1.000  C
  C14      1.0000 0.95120  0.78600  0.31960  Biso   1.000  C
  C15      1.0000 0.91720  0.75600  0.34550  Biso   1.000  C
  H5       1.0000 0.72530  0.71600  0.33350  Biso   1.000  H
  H6       1.0000 0.78200  0.76600  0.29040  Biso   1.000  H
  H7       1.0000 0.00740  0.80300  0.31610  Biso   1.000  H
  H8       1.0000 0.95090  0.75400  0.35920  Biso   1.000  H
  C16      1.0000 0.93560  0.82050  0.27200  Biso   1.000  C
  C17      1.0000 0.89880  0.77880  0.24580  Biso   1.000  C
  N2       1.0000 0.93200  0.80670  0.22090  Biso   1.000  N
  C18      1.0000 0.00600  0.87930  0.21950  Biso   1.000  C
  N3       1.0000 0.04900  0.92620  0.24110  Biso   1.000  N
  C19      1.0000 0.01570  0.89830  0.26600  Biso   1.000  C
  H9       1.0000 0.04370  0.92900  0.28140  Biso   1.000  H
  H10      1.0000 0.03100  0.90000  0.20270  Biso   1.000  H
  H11      1.0000 0.84790  0.72850  0.24550  Biso   1.000  H
  C20      1.0000 0.78040  0.70050  0.32770  Biso   1.000  C
  C21      1.0000 0.81400  0.73000  0.30170  Biso   1.000  C
  C22      1.0000 0.95230  0.81870  0.32200  Biso   1.000  C
  C23      1.0000 0.91830  0.78880  0.34790  Biso   1.000  C
  H12      1.0000 0.72350  0.66100  0.32950  Biso   1.000  H
  H13      1.0000 0.78000  0.71100  0.28650  Biso   1.000  H
  H14      1.0000 0.00920  0.85800  0.32010  Biso   1.000  H
  H15      1.0000 0.95270  0.80800  0.36320  Biso   1.000  H
  Cu2      1.0000 0.17797  0.78043  0.85333  Biso   1.000  Cu
  C24      1.0000 0.29207  0.87893  0.80543  Biso   1.000  C
  O6       1.0000 0.27567  0.84713  0.82953  Biso   1.000  O
  O7       1.0000 0.23537  0.88433  0.79183  Biso   1.000  O
  C25      1.0000 0.47177  0.97233  0.75593  Biso   1.000  C
  C26      1.0000 0.53427  0.96233  0.76913  Biso   1.000  C
  H16      1.0000 0.58597  0.98033  0.76073  Biso   1.000  H
  C27      1.0000 0.51857  0.92533  0.79503  Biso   1.000  C
  C28      1.0000 0.44047  0.89733  0.80773  Biso   1.000  C
  H17      1.0000 0.43017  0.87333  0.82483  Biso   1.000  H
  C29      1.0000 0.37807  0.90743  0.79443  Biso   1.000  C
  C30      1.0000 0.39377  0.94453  0.76853  Biso   1.000  C
  H18      1.0000 0.35237  0.95133  0.75973  Biso   1.000  H
  C31      1.0000 0.57417  0.90123  0.81243  Biso   1.000  C
  O8       1.0000 0.54327  0.86433  0.83513  Biso   1.000  O
  O9       1.0000 0.64637  0.91433  0.80453  Biso   1.000  O
  N4       1.0000 0.50707  0.01373  0.73013  Biso   1.000  N
  C32      1.0000 0.46167  0.03033  0.71223  Biso   1.000  C
  O10      1.0000 0.38567  0.00233  0.71453  Biso   1.000  O
  H19      1.0000 0.56017  0.03233  0.72573  Biso   1.000  H
  C33      1.0000 0.49897  0.06303  0.68403  Biso   1.000  C
  C34      1.0000 0.44817  0.06633  0.66333  Biso   1.000  C
  C35      1.0000 0.48167  0.09633  0.63743  Biso   1.000  C
  C36      1.0000 0.56667  0.12283  0.63223  Biso   1.000  C
  C37      1.0000 0.61787  0.11933  0.65293  Biso   1.000  C
  C38      1.0000 0.58387  0.08933  0.67883  Biso   1.000  C
  H20      1.0000 0.39197  0.04933  0.66683  Biso   1.000  H
  H21      1.0000 0.44867  0.09933  0.62373  Biso   1.000  H
  H22      1.0000 0.67407  0.13633  0.64943  Biso   1.000  H
  H23      1.0000 0.61757  0.08733  0.69253  Biso   1.000  H
  C39      1.0000 0.60227  0.15383  0.60533  Biso   1.000  C
  C40      1.0000 0.56547  0.11213  0.57913  Biso   1.000  C
  N5       1.0000 0.59867  0.14003  0.55423  Biso   1.000  N
  C41      1.0000 0.67267  0.21263  0.55283  Biso   1.000  C
  N6       1.0000 0.71567  0.25953  0.57443  Biso   1.000  N
  C42      1.0000 0.68237  0.23163  0.59933  Biso   1.000  C
  H24      1.0000 0.71037  0.26233  0.61473  Biso   1.000  H
  H25      1.0000 0.69767  0.23333  0.53603  Biso   1.000  H
  H26      1.0000 0.51457  0.06183  0.57883  Biso   1.000  H
  C43      1.0000 0.44707  0.03383  0.66103  Biso   1.000  C
  C44      1.0000 0.48067  0.06333  0.63503  Biso   1.000  C
  C45      1.0000 0.61897  0.15203  0.65533  Biso   1.000  C
  C46      1.0000 0.58497  0.12213  0.68123  Biso   1.000  C
  H27      1.0000 0.39017  0.99433  0.66283  Biso   1.000  H
  H28      1.0000 0.44667  0.04433  0.61983  Biso   1.000  H
  H29      1.0000 0.67587  0.19133  0.65343  Biso   1.000  H
  H30      1.0000 0.61937  0.14133  0.69653  Biso   1.000  H
  Cu3      1.0000 0.84463  0.11377  0.18667  Biso   1.000  Cu
  C47      1.0000 0.95873  0.21227  0.13877  Biso   1.000  C
  O11      1.0000 0.94233  0.18047  0.16287  Biso   1.000  O
  O12      1.0000 0.90203  0.21767  0.12517  Biso   1.000  O
  C48      1.0000 0.13843  0.30567  0.08927  Biso   1.000  C
  C49      1.0000 0.20093  0.29567  0.10247  Biso   1.000  C
  H31      1.0000 0.25263  0.31367  0.09407  Biso   1.000  H
  C50      1.0000 0.18523  0.25867  0.12837  Biso   1.000  C
  C51      1.0000 0.10713  0.23067  0.14107  Biso   1.000  C
  H32      1.0000 0.09683  0.20667  0.15817  Biso   1.000  H
  C52      1.0000 0.04473  0.24077  0.12777  Biso   1.000  C
  C53      1.0000 0.06043  0.27787  0.10187  Biso   1.000  C
  H33      1.0000 0.01903  0.28467  0.09307  Biso   1.000  H
  C54      1.0000 0.24083  0.23457  0.14577  Biso   1.000  C
  O13      1.0000 0.20993  0.19767  0.16847  Biso   1.000  O
  O14      1.0000 0.31303  0.24767  0.13787  Biso   1.000  O
  N7       1.0000 0.17373  0.34707  0.06347  Biso   1.000  N
  C55      1.0000 0.12833  0.36367  0.04557  Biso   1.000  C
  O15      1.0000 0.05233  0.33567  0.04787  Biso   1.000  O
  H34      1.0000 0.22683  0.36567  0.05907  Biso   1.000  H
  C56      1.0000 0.16563  0.39637  0.01737  Biso   1.000  C
  C57      1.0000 0.11483  0.39967  0.99667  Biso   1.000  C
  C58      1.0000 0.14833  0.42967  0.97077  Biso   1.000  C
  C59      1.0000 0.23333  0.45617  0.96557  Biso   1.000  C
  C60      1.0000 0.28453  0.45267  0.98627  Biso   1.000  C
  C61      1.0000 0.25053  0.42267  0.01217  Biso   1.000  C
  H35      1.0000 0.05863  0.38267  0.00017  Biso   1.000  H
  H36      1.0000 0.11533  0.43267  0.95707  Biso   1.000  H
  H37      1.0000 0.34073  0.46967  0.98277  Biso   1.000  H
  H38      1.0000 0.28423  0.42067  0.02587  Biso   1.000  H
  C62      1.0000 0.26893  0.48717  0.93867  Biso   1.000  C
  C63      1.0000 0.23213  0.44547  0.91247  Biso   1.000  C
  N8       1.0000 0.26533  0.47337  0.88757  Biso   1.000  N
  C64      1.0000 0.33933  0.54597  0.88617  Biso   1.000  C
  N9       1.0000 0.38233  0.59287  0.90777  Biso   1.000  N
  C65      1.0000 0.34903  0.56497  0.93267  Biso   1.000  C
  H39      1.0000 0.37703  0.59567  0.94807  Biso   1.000  H
  H40      1.0000 0.36433  0.56667  0.86937  Biso   1.000  H
  H41      1.0000 0.18123  0.39517  0.91217  Biso   1.000  H
  C66      1.0000 0.11373  0.36717  0.99437  Biso   1.000  C
  C67      1.0000 0.14733  0.39667  0.96837  Biso   1.000  C
  C68      1.0000 0.28563  0.48537  0.98867  Biso   1.000  C
  C69      1.0000 0.25163  0.45547  0.01457  Biso   1.000  C
  H42      1.0000 0.05683  0.32767  0.99617  Biso   1.000  H
  H43      1.0000 0.11333  0.37767  0.95317  Biso   1.000  H
  H44      1.0000 0.34253  0.52467  0.98677  Biso   1.000  H
  H45      1.0000 0.28603  0.47467  0.02987  Biso   1.000  H
  Cu4      1.0000 0.55290  0.06420  0.52000  Biso   1.000  Cu
  C70      1.0000 0.45440  0.07980  0.47210  Biso   1.000  C
  O16      1.0000 0.48620  0.09520  0.49620  Biso   1.000  O
  O17      1.0000 0.44900  0.01770  0.45850  Biso   1.000  O
  C71      1.0000 0.36100  0.16610  0.42260  Biso   1.000  C
  C72      1.0000 0.37100  0.23860  0.43580  Biso   1.000  C
  H46      1.0000 0.35300  0.27230  0.42740  Biso   1.000  H
  C73      1.0000 0.40800  0.25990  0.46170  Biso   1.000  C
  C74      1.0000 0.43600  0.20980  0.47440  Biso   1.000  C
  H47      1.0000 0.46000  0.22350  0.49150  Biso   1.000  H
  C75      1.0000 0.42590  0.13730  0.46110  Biso   1.000  C
  C76      1.0000 0.38880  0.11590  0.43520  Biso   1.000  C
  H48      1.0000 0.38200  0.06770  0.42640  Biso   1.000  H
  C77      1.0000 0.43210  0.33960  0.47910  Biso   1.000  C
  O18      1.0000 0.46900  0.34560  0.50180  Biso   1.000  O
  O19      1.0000 0.41900  0.39870  0.47120  Biso   1.000  O
  N10      1.0000 0.31960  0.16000  0.39680  Biso   1.000  N
  C78      1.0000 0.30300  0.09800  0.37890  Biso   1.000  C
  O20      1.0000 0.33100  0.05000  0.38120  Biso   1.000  O
  H49      1.0000 0.30100  0.19450  0.39240  Biso   1.000  H
  C79      1.0000 0.27030  0.10260  0.35070  Biso   1.000  C
  C80      1.0000 0.26700  0.04850  0.33000  Biso   1.000  C
  C81      1.0000 0.23700  0.05200  0.30410  Biso   1.000  C
  C82      1.0000 0.21050  0.11050  0.29890  Biso   1.000  C
  C83      1.0000 0.21400  0.16520  0.31960  Biso   1.000  C
  C84      1.0000 0.24400  0.16120  0.34550  Biso   1.000  C
  H50      1.0000 0.28400  0.00930  0.33350  Biso   1.000  H
  H51      1.0000 0.23400  0.01600  0.29040  Biso   1.000  H
  H52      1.0000 0.19700  0.20440  0.31610  Biso   1.000  H
  H53      1.0000 0.24600  0.19690  0.35920  Biso   1.000  H
  C85      1.0000 0.17950  0.11510  0.27200  Biso   1.000  C
  C86      1.0000 0.22120  0.12000  0.24580  Biso   1.000  C
  N11      1.0000 0.19330  0.12530  0.22090  Biso   1.000  N
  C87      1.0000 0.12070  0.12670  0.21950  Biso   1.000  C
  N12      1.0000 0.07380  0.12280  0.24110  Biso   1.000  N
  C88      1.0000 0.10170  0.11740  0.26600  Biso   1.000  C
  H54      1.0000 0.07100  0.11470  0.28140  Biso   1.000  H
  H55      1.0000 0.10000  0.13100  0.20270  Biso   1.000  H
  H56      1.0000 0.27150  0.11940  0.24550  Biso   1.000  H
  C89      1.0000 0.29950  0.07990  0.32770  Biso   1.000  C
  C90      1.0000 0.27000  0.08400  0.30170  Biso   1.000  C
  C91      1.0000 0.18130  0.13360  0.32200  Biso   1.000  C
  C92      1.0000 0.21120  0.12950  0.34790  Biso   1.000  C
  H57      1.0000 0.33900  0.06250  0.32950  Biso   1.000  H
  H58      1.0000 0.28900  0.06900  0.28650  Biso   1.000  H
  H59      1.0000 0.14200  0.15120  0.32010  Biso   1.000  H
  H60      1.0000 0.19200  0.14470  0.36320  Biso   1.000  H
  Cu5      1.0000 0.21957  0.39753  0.85333  Biso   1.000  Cu
  C93      1.0000 0.12107  0.41313  0.80543  Biso   1.000  C
  O21      1.0000 0.15287  0.42853  0.82953  Biso   1.000  O
  O22      1.0000 0.11567  0.35103  0.79183  Biso   1.000  O
  C94      1.0000 0.02767  0.49943  0.75593  Biso   1.000  C
  C95      1.0000 0.03767  0.57193  0.76913  Biso   1.000  C
  H61      1.0000 0.01967  0.60563  0.76073  Biso   1.000  H
  C96      1.0000 0.07467  0.59323  0.79503  Biso   1.000  C
  C97      1.0000 0.10267  0.54313  0.80773  Biso   1.000  C
  H62      1.0000 0.12667  0.55683  0.82483  Biso   1.000  H
  C98      1.0000 0.09257  0.47063  0.79443  Biso   1.000  C
  C99      1.0000 0.05547  0.44923  0.76853  Biso   1.000  C
  H63      1.0000 0.04867  0.40103  0.75973  Biso   1.000  H
  C100     1.0000 0.09877  0.67293  0.81243  Biso   1.000  C
  O23      1.0000 0.13567  0.67893  0.83513  Biso   1.000  O
  O24      1.0000 0.08567  0.73203  0.80453  Biso   1.000  O
  N13      1.0000 0.98627  0.49333  0.73013  Biso   1.000  N
  C101     1.0000 0.96967  0.43133  0.71223  Biso   1.000  C
  O25      1.0000 0.99767  0.38333  0.71453  Biso   1.000  O
  H64      1.0000 0.96767  0.52783  0.72573  Biso   1.000  H
  C102     1.0000 0.93697  0.43593  0.68403  Biso   1.000  C
  C103     1.0000 0.93367  0.38183  0.66333  Biso   1.000  C
  C104     1.0000 0.90367  0.38533  0.63743  Biso   1.000  C
  C105     1.0000 0.87717  0.44383  0.63223  Biso   1.000  C
  C106     1.0000 0.88067  0.49853  0.65293  Biso   1.000  C
  C107     1.0000 0.91067  0.49453  0.67883  Biso   1.000  C
  H65      1.0000 0.95067  0.34263  0.66683  Biso   1.000  H
  H66      1.0000 0.90067  0.34933  0.62373  Biso   1.000  H
  H67      1.0000 0.86367  0.53773  0.64943  Biso   1.000  H
  H68      1.0000 0.91267  0.53023  0.69253  Biso   1.000  H
  C108     1.0000 0.84617  0.44843  0.60533  Biso   1.000  C
  C109     1.0000 0.88787  0.45333  0.57913  Biso   1.000  C
  N14      1.0000 0.85997  0.45863  0.55423  Biso   1.000  N
  C110     1.0000 0.78737  0.46003  0.55283  Biso   1.000  C
  N15      1.0000 0.74047  0.45613  0.57443  Biso   1.000  N
  C111     1.0000 0.76837  0.45073  0.59933  Biso   1.000  C
  H69      1.0000 0.73767  0.44803  0.61473  Biso   1.000  H
  H70      1.0000 0.76667  0.46433  0.53603  Biso   1.000  H
  H71      1.0000 0.93817  0.45273  0.57883  Biso   1.000  H
  C112     1.0000 0.96617  0.41323  0.66103  Biso   1.000  C
  C113     1.0000 0.93667  0.41733  0.63503  Biso   1.000  C
  C114     1.0000 0.84797  0.46693  0.65533  Biso   1.000  C
  C115     1.0000 0.87787  0.46283  0.68123  Biso   1.000  C
  H72      1.0000 0.00567  0.39583  0.66283  Biso   1.000  H
  H73      1.0000 0.95567  0.40233  0.61983  Biso   1.000  H
  H74      1.0000 0.80867  0.48453  0.65343  Biso   1.000  H
  H75      1.0000 0.85867  0.47803  0.69653  Biso   1.000  H
  Cu6      1.0000 0.88623  0.73087  0.18667  Biso   1.000  Cu
  C116     1.0000 0.78773  0.74647  0.13877  Biso   1.000  C
  O26      1.0000 0.81953  0.76187  0.16287  Biso   1.000  O
  O27      1.0000 0.78233  0.68437  0.12517  Biso   1.000  O
  C117     1.0000 0.69433  0.83277  0.08927  Biso   1.000  C
  C118     1.0000 0.70433  0.90527  0.10247  Biso   1.000  C
  H76      1.0000 0.68633  0.93897  0.09407  Biso   1.000  H
  C119     1.0000 0.74133  0.92657  0.12837  Biso   1.000  C
  C120     1.0000 0.76933  0.87647  0.14107  Biso   1.000  C
  H77      1.0000 0.79333  0.89017  0.15817  Biso   1.000  H
  C121     1.0000 0.75923  0.80397  0.12777  Biso   1.000  C
  C122     1.0000 0.72213  0.78257  0.10187  Biso   1.000  C
  H78      1.0000 0.71533  0.73437  0.09307  Biso   1.000  H
  C123     1.0000 0.76543  0.00627  0.14577  Biso   1.000  C
  O28      1.0000 0.80233  0.01227  0.16847  Biso   1.000  O
  O29      1.0000 0.75233  0.06537  0.13787  Biso   1.000  O
  N16      1.0000 0.65293  0.82667  0.06347  Biso   1.000  N
  C124     1.0000 0.63633  0.76467  0.04557  Biso   1.000  C
  O30      1.0000 0.66433  0.71667  0.04787  Biso   1.000  O
  H79      1.0000 0.63433  0.86117  0.05907  Biso   1.000  H
  C125     1.0000 0.60363  0.76927  0.01737  Biso   1.000  C
  C126     1.0000 0.60033  0.71517  0.99667  Biso   1.000  C
  C127     1.0000 0.57033  0.71867  0.97077  Biso   1.000  C
  C128     1.0000 0.54383  0.77717  0.96557  Biso   1.000  C
  C129     1.0000 0.54733  0.83187  0.98627  Biso   1.000  C
  C130     1.0000 0.57733  0.82787  0.01217  Biso   1.000  C
  H80      1.0000 0.61733  0.67597  0.00017  Biso   1.000  H
  H81      1.0000 0.56733  0.68267  0.95707  Biso   1.000  H
  H82      1.0000 0.53033  0.87107  0.98277  Biso   1.000  H
  H83      1.0000 0.57933  0.86357  0.02587  Biso   1.000  H
  C131     1.0000 0.51283  0.78177  0.93867  Biso   1.000  C
  C132     1.0000 0.55453  0.78667  0.91247  Biso   1.000  C
  N17      1.0000 0.52663  0.79197  0.88757  Biso   1.000  N
  C133     1.0000 0.45403  0.79337  0.88617  Biso   1.000  C
  N18      1.0000 0.40713  0.78947  0.90777  Biso   1.000  N
  C134     1.0000 0.43503  0.78407  0.93267  Biso   1.000  C
  H84      1.0000 0.40433  0.78137  0.94807  Biso   1.000  H
  H85      1.0000 0.43333  0.79767  0.86937  Biso   1.000  H
  H86      1.0000 0.60483  0.78607  0.91217  Biso   1.000  H
  C135     1.0000 0.63283  0.74657  0.99437  Biso   1.000  C
  C136     1.0000 0.60333  0.75067  0.96837  Biso   1.000  C
  C137     1.0000 0.51463  0.80027  0.98867  Biso   1.000  C
  C138     1.0000 0.54453  0.79617  0.01457  Biso   1.000  C
  H87      1.0000 0.67233  0.72917  0.99617  Biso   1.000  H
  H88      1.0000 0.62233  0.73567  0.95317  Biso   1.000  H
  H89      1.0000 0.47533  0.81787  0.98677  Biso   1.000  H
  H90      1.0000 0.52533  0.81137  0.02987  Biso   1.000  H
  Cu7      1.0000 0.93580  0.48870  0.52000  Biso   1.000  Cu
  C139     1.0000 0.92020  0.37460  0.47210  Biso   1.000  C
  O31      1.0000 0.90480  0.39100  0.49620  Biso   1.000  O
  O32      1.0000 0.98230  0.43130  0.45850  Biso   1.000  O
  C140     1.0000 0.83390  0.19490  0.42260  Biso   1.000  C
  C141     1.0000 0.76140  0.13240  0.43580  Biso   1.000  C
  H91      1.0000 0.72770  0.08070  0.42740  Biso   1.000  H
  C142     1.0000 0.74010  0.14810  0.46170  Biso   1.000  C
  C143     1.0000 0.79020  0.22620  0.47440  Biso   1.000  C
  H92      1.0000 0.77650  0.23650  0.49150  Biso   1.000  H
  C144     1.0000 0.86270  0.28860  0.46110  Biso   1.000  C
  C145     1.0000 0.88410  0.27290  0.43520  Biso   1.000  C
  H93      1.0000 0.93230  0.31430  0.42640  Biso   1.000  H
  C146     1.0000 0.66040  0.09250  0.47910  Biso   1.000  C
  O33      1.0000 0.65440  0.12340  0.50180  Biso   1.000  O
  O34      1.0000 0.60130  0.02030  0.47120  Biso   1.000  O
  N19      1.0000 0.84000  0.15960  0.39680  Biso   1.000  N
  C147     1.0000 0.90200  0.20500  0.37890  Biso   1.000  C
  O35      1.0000 0.95000  0.28100  0.38120  Biso   1.000  O
  H94      1.0000 0.80550  0.10650  0.39240  Biso   1.000  H
  C148     1.0000 0.89740  0.16770  0.35070  Biso   1.000  C
  C149     1.0000 0.95150  0.21850  0.33000  Biso   1.000  C
  C150     1.0000 0.94800  0.18500  0.30410  Biso   1.000  C
  C151     1.0000 0.88950  0.10000  0.29890  Biso   1.000  C
  C152     1.0000 0.83480  0.04880  0.31960  Biso   1.000  C
  C153     1.0000 0.83880  0.08280  0.34550  Biso   1.000  C
  H95      1.0000 0.99070  0.27470  0.33350  Biso   1.000  H
  H96      1.0000 0.98400  0.21800  0.29040  Biso   1.000  H
  H97      1.0000 0.79560  0.99260  0.31610  Biso   1.000  H
  H98      1.0000 0.80310  0.04910  0.35920  Biso   1.000  H
  C154     1.0000 0.88490  0.06440  0.27200  Biso   1.000  C
  C155     1.0000 0.88000  0.10120  0.24580  Biso   1.000  C
  N20      1.0000 0.87470  0.06800  0.22090  Biso   1.000  N
  C156     1.0000 0.87330  0.99400  0.21950  Biso   1.000  C
  N21      1.0000 0.87720  0.95100  0.24110  Biso   1.000  N
  C157     1.0000 0.88260  0.98430  0.26600  Biso   1.000  C
  H99      1.0000 0.88530  0.95630  0.28140  Biso   1.000  H
  H100     1.0000 0.86900  0.96900  0.20270  Biso   1.000  H
  H101     1.0000 0.88060  0.15210  0.24550  Biso   1.000  H
  C158     1.0000 0.92010  0.21960  0.32770  Biso   1.000  C
  C159     1.0000 0.91600  0.18600  0.30170  Biso   1.000  C
  C160     1.0000 0.86640  0.04770  0.32200  Biso   1.000  C
  C161     1.0000 0.87050  0.08170  0.34790  Biso   1.000  C
  H102     1.0000 0.93750  0.27650  0.32950  Biso   1.000  H
  H103     1.0000 0.93100  0.22000  0.28650  Biso   1.000  H
  H104     1.0000 0.84880  0.99080  0.32010  Biso   1.000  H
  H105     1.0000 0.85530  0.04730  0.36320  Biso   1.000  H
  Cu8      1.0000 0.60247  0.82203  0.85333  Biso   1.000  Cu
  C162     1.0000 0.58687  0.70793  0.80543  Biso   1.000  C
  O36      1.0000 0.57147  0.72433  0.82953  Biso   1.000  O
  O37      1.0000 0.64897  0.76463  0.79183  Biso   1.000  O
  C163     1.0000 0.50057  0.52823  0.75593  Biso   1.000  C
  C164     1.0000 0.42807  0.46573  0.76913  Biso   1.000  C
  H106     1.0000 0.39437  0.41403  0.76073  Biso   1.000  H
  C165     1.0000 0.40677  0.48143  0.79503  Biso   1.000  C
  C166     1.0000 0.45687  0.55953  0.80773  Biso   1.000  C
  H107     1.0000 0.44317  0.56983  0.82483  Biso   1.000  H
  C167     1.0000 0.52937  0.62193  0.79443  Biso   1.000  C
  C168     1.0000 0.55077  0.60623  0.76853  Biso   1.000  C
  H108     1.0000 0.59897  0.64763  0.75973  Biso   1.000  H
  C169     1.0000 0.32707  0.42583  0.81243  Biso   1.000  C
  O38      1.0000 0.32107  0.45673  0.83513  Biso   1.000  O
  O39      1.0000 0.26797  0.35363  0.80453  Biso   1.000  O
  N22      1.0000 0.50667  0.49293  0.73013  Biso   1.000  N
  C170     1.0000 0.56867  0.53833  0.71223  Biso   1.000  C
  O40      1.0000 0.61667  0.61433  0.71453  Biso   1.000  O
  H109     1.0000 0.47217  0.43983  0.72573  Biso   1.000  H
  C171     1.0000 0.56407  0.50103  0.68403  Biso   1.000  C
  C172     1.0000 0.61817  0.55183  0.66333  Biso   1.000  C
  C173     1.0000 0.61467  0.51833  0.63743  Biso   1.000  C
  C174     1.0000 0.55617  0.43333  0.63223  Biso   1.000  C
  C175     1.0000 0.50147  0.38213  0.65293  Biso   1.000  C
  C176     1.0000 0.50547  0.41613  0.67883  Biso   1.000  C
  H110     1.0000 0.65737  0.60803  0.66683  Biso   1.000  H
  H111     1.0000 0.65067  0.55133  0.62373  Biso   1.000  H
  H112     1.0000 0.46227  0.32593  0.64943  Biso   1.000  H
  H113     1.0000 0.46977  0.38243  0.69253  Biso   1.000  H
  C177     1.0000 0.55157  0.39773  0.60533  Biso   1.000  C
  C178     1.0000 0.54667  0.43453  0.57913  Biso   1.000  C
  N23      1.0000 0.54137  0.40133  0.55423  Biso   1.000  N
  C179     1.0000 0.53997  0.32733  0.55283  Biso   1.000  C
  N24      1.0000 0.54387  0.28433  0.57443  Biso   1.000  N
  C180     1.0000 0.54927  0.31763  0.59933  Biso   1.000  C
  H114     1.0000 0.55197  0.28963  0.61473  Biso   1.000  H
  H115     1.0000 0.53567  0.30233  0.53603  Biso   1.000  H
  H116     1.0000 0.54727  0.48543  0.57883  Biso   1.000  H
  C181     1.0000 0.58677  0.55293  0.66103  Biso   1.000  C
  C182     1.0000 0.58267  0.51933  0.63503  Biso   1.000  C
  C183     1.0000 0.53307  0.38103  0.65533  Biso   1.000  C
  C184     1.0000 0.53717  0.41503  0.68123  Biso   1.000  C
  H117     1.0000 0.60417  0.60983  0.66283  Biso   1.000  H
  H118     1.0000 0.59767  0.55333  0.61983  Biso   1.000  H
  H119     1.0000 0.51547  0.32413  0.65343  Biso   1.000  H
  H120     1.0000 0.52197  0.38063  0.69653  Biso   1.000  H
  Cu9      1.0000 0.26913  0.15537  0.18667  Biso   1.000  Cu
  C185     1.0000 0.25353  0.04127  0.13877  Biso   1.000  C
  O41      1.0000 0.23813  0.05767  0.16287  Biso   1.000  O
  O42      1.0000 0.31563  0.09797  0.12517  Biso   1.000  O
  C186     1.0000 0.16723  0.86157  0.08927  Biso   1.000  C
  C187     1.0000 0.09473  0.79907  0.10247  Biso   1.000  C
  H121     1.0000 0.06103  0.74737  0.09407  Biso   1.000  H
  C188     1.0000 0.07343  0.81477  0.12837  Biso   1.000  C
  C189     1.0000 0.12353  0.89287  0.14107  Biso   1.000  C
  H122     1.0000 0.10983  0.90317  0.15817  Biso   1.000  H
  C190     1.0000 0.19603  0.95527  0.12777  Biso   1.000  C
  C191     1.0000 0.21743  0.93957  0.10187  Biso   1.000  C
  H123     1.0000 0.26563  0.98097  0.09307  Biso   1.000  H
  C192     1.0000 0.99373  0.75917  0.14577  Biso   1.000  C
  O43      1.0000 0.98773  0.79007  0.16847  Biso   1.000  O
  O44      1.0000 0.93463  0.68697  0.13787  Biso   1.000  O
  N25      1.0000 0.17333  0.82627  0.06347  Biso   1.000  N
  C193     1.0000 0.23533  0.87167  0.04557  Biso   1.000  C
  O45      1.0000 0.28333  0.94767  0.04787  Biso   1.000  O
  H124     1.0000 0.13883  0.77317  0.05907  Biso   1.000  H
  C194     1.0000 0.23073  0.83437  0.01737  Biso   1.000  C
  C195     1.0000 0.28483  0.88517  0.99667  Biso   1.000  C
  C196     1.0000 0.28133  0.85167  0.97077  Biso   1.000  C
  C197     1.0000 0.22283  0.76667  0.96557  Biso   1.000  C
  C198     1.0000 0.16813  0.71547  0.98627  Biso   1.000  C
  C199     1.0000 0.17213  0.74947  0.01217  Biso   1.000  C
  H125     1.0000 0.32403  0.94137  0.00017  Biso   1.000  H
  H126     1.0000 0.31733  0.88467  0.95707  Biso   1.000  H
  H127     1.0000 0.12893  0.65927  0.98277  Biso   1.000  H
  H128     1.0000 0.13643  0.71577  0.02587  Biso   1.000  H
  C200     1.0000 0.21823  0.73107  0.93867  Biso   1.000  C
  C201     1.0000 0.21333  0.76787  0.91247  Biso   1.000  C
  N26      1.0000 0.20803  0.73467  0.88757  Biso   1.000  N
  C202     1.0000 0.20663  0.66067  0.88617  Biso   1.000  C
  N27      1.0000 0.21053  0.61767  0.90777  Biso   1.000  N
  C203     1.0000 0.21593  0.65097  0.93267  Biso   1.000  C
  H129     1.0000 0.21863  0.62297  0.94807  Biso   1.000  H
  H130     1.0000 0.20233  0.63567  0.86937  Biso   1.000  H
  H131     1.0000 0.21393  0.81877  0.91217  Biso   1.000  H
  C204     1.0000 0.25343  0.88627  0.99437  Biso   1.000  C
  C205     1.0000 0.24933  0.85267  0.96837  Biso   1.000  C
  C206     1.0000 0.19973  0.71437  0.98867  Biso   1.000  C
  C207     1.0000 0.20383  0.74837  0.01457  Biso   1.000  C
  H132     1.0000 0.27083  0.94317  0.99617  Biso   1.000  H
  H133     1.0000 0.26433  0.88667  0.95317  Biso   1.000  H
  H134     1.0000 0.18213  0.65747  0.98677  Biso   1.000  H
  H135     1.0000 0.18863  0.71397  0.02987  Biso   1.000  H
  Cu10     1.0000 0.44710  0.51130  0.48000  Biso   1.000  Cu
  C208     1.0000 0.54560  0.62540  0.52790  Biso   1.000  C
  O46      1.0000 0.51380  0.60900  0.50380  Biso   1.000  O
  O47      1.0000 0.55100  0.56870  0.54150  Biso   1.000  O
  C209     1.0000 0.63900  0.80510  0.57740  Biso   1.000  C
  C210     1.0000 0.62900  0.86760  0.56420  Biso   1.000  C
  H136     1.0000 0.64700  0.91930  0.57260  Biso   1.000  H
  C211     1.0000 0.59200  0.85190  0.53830  Biso   1.000  C
  C212     1.0000 0.56400  0.77380  0.52560  Biso   1.000  C
  H137     1.0000 0.54000  0.76350  0.50850  Biso   1.000  H
  C213     1.0000 0.57410  0.71140  0.53890  Biso   1.000  C
  C214     1.0000 0.61120  0.72710  0.56480  Biso   1.000  C
  H138     1.0000 0.61800  0.68570  0.57360  Biso   1.000  H
  C215     1.0000 0.56790  0.90750  0.52090  Biso   1.000  C
  O48      1.0000 0.53100  0.87660  0.49820  Biso   1.000  O
  O49      1.0000 0.58100  0.97970  0.52880  Biso   1.000  O
  N28      1.0000 0.68040  0.84040  0.60320  Biso   1.000  N
  C216     1.0000 0.69700  0.79500  0.62110  Biso   1.000  C
  O50      1.0000 0.66900  0.71900  0.61880  Biso   1.000  O
  H139     1.0000 0.69900  0.89350  0.60760  Biso   1.000  H
  C217     1.0000 0.72970  0.83230  0.64930  Biso   1.000  C
  C218     1.0000 0.73300  0.78150  0.67000  Biso   1.000  C
  C219     1.0000 0.76300  0.81500  0.69590  Biso   1.000  C
  C220     1.0000 0.78950  0.90000  0.70110  Biso   1.000  C
  C221     1.0000 0.78600  0.95120  0.68040  Biso   1.000  C
  C222     1.0000 0.75600  0.91720  0.65450  Biso   1.000  C
  H140     1.0000 0.71600  0.72530  0.66650  Biso   1.000  H
  H141     1.0000 0.76600  0.78200  0.70960  Biso   1.000  H
  H142     1.0000 0.80300  0.00740  0.68390  Biso   1.000  H
  H143     1.0000 0.75400  0.95090  0.64080  Biso   1.000  H
  C223     1.0000 0.82050  0.93560  0.72800  Biso   1.000  C
  C224     1.0000 0.77880  0.89880  0.75420  Biso   1.000  C
  N29      1.0000 0.80670  0.93200  0.77910  Biso   1.000  N
  C225     1.0000 0.87930  0.00600  0.78050  Biso   1.000  C
  N30      1.0000 0.92620  0.04900  0.75890  Biso   1.000  N
  C226     1.0000 0.89830  0.01570  0.73400  Biso   1.000  C
  H144     1.0000 0.92900  0.04370  0.71860  Biso   1.000  H
  H145     1.0000 0.90000  0.03100  0.79730  Biso   1.000  H
  H146     1.0000 0.72850  0.84790  0.75450  Biso   1.000  H
  C227     1.0000 0.70050  0.78040  0.67230  Biso   1.000  C
  C228     1.0000 0.73000  0.81400  0.69830  Biso   1.000  C
  C229     1.0000 0.81870  0.95230  0.67800  Biso   1.000  C
  C230     1.0000 0.78880  0.91830  0.65210  Biso   1.000  C
  H147     1.0000 0.66100  0.72350  0.67050  Biso   1.000  H
  H148     1.0000 0.71100  0.78000  0.71350  Biso   1.000  H
  H149     1.0000 0.85800  0.00920  0.67990  Biso   1.000  H
  H150     1.0000 0.80800  0.95270  0.63680  Biso   1.000  H
  Cu11     1.0000 0.11377  0.84463  0.81333  Biso   1.000  Cu
  C231     1.0000 0.21227  0.95873  0.86123  Biso   1.000  C
  O51      1.0000 0.18047  0.94233  0.83713  Biso   1.000  O
  O52      1.0000 0.21767  0.90203  0.87483  Biso   1.000  O
  C232     1.0000 0.30567  0.13843  0.91073  Biso   1.000  C
  C233     1.0000 0.29567  0.20093  0.89753  Biso   1.000  C
  H151     1.0000 0.31367  0.25263  0.90593  Biso   1.000  H
  C234     1.0000 0.25867  0.18523  0.87163  Biso   1.000  C
  C235     1.0000 0.23067  0.10713  0.85893  Biso   1.000  C
  H152     1.0000 0.20667  0.09683  0.84183  Biso   1.000  H
  C236     1.0000 0.24077  0.04473  0.87223  Biso   1.000  C
  C237     1.0000 0.27787  0.06043  0.89813  Biso   1.000  C
  H153     1.0000 0.28467  0.01903  0.90693  Biso   1.000  H
  C238     1.0000 0.23457  0.24083  0.85423  Biso   1.000  C
  O53      1.0000 0.19767  0.20993  0.83153  Biso   1.000  O
  O54      1.0000 0.24767  0.31303  0.86213  Biso   1.000  O
  N31      1.0000 0.34707  0.17373  0.93653  Biso   1.000  N
  C239     1.0000 0.36367  0.12833  0.95443  Biso   1.000  C
  O55      1.0000 0.33567  0.05233  0.95213  Biso   1.000  O
  H154     1.0000 0.36567  0.22683  0.94093  Biso   1.000  H
  C240     1.0000 0.39637  0.16563  0.98263  Biso   1.000  C
  C241     1.0000 0.39967  0.11483  0.00333  Biso   1.000  C
  C242     1.0000 0.42967  0.14833  0.02923  Biso   1.000  C
  C243     1.0000 0.45617  0.23333  0.03443  Biso   1.000  C
  C244     1.0000 0.45267  0.28453  0.01373  Biso   1.000  C
  C245     1.0000 0.42267  0.25053  0.98783  Biso   1.000  C
  H155     1.0000 0.38267  0.05863  0.99983  Biso   1.000  H
  H156     1.0000 0.43267  0.11533  0.04293  Biso   1.000  H
  H157     1.0000 0.46967  0.34073  0.01723  Biso   1.000  H
  H158     1.0000 0.42067  0.28423  0.97413  Biso   1.000  H
  C246     1.0000 0.48717  0.26893  0.06133  Biso   1.000  C
  C247     1.0000 0.44547  0.23213  0.08753  Biso   1.000  C
  N32      1.0000 0.47337  0.26533  0.11243  Biso   1.000  N
  C248     1.0000 0.54597  0.33933  0.11383  Biso   1.000  C
  N33      1.0000 0.59287  0.38233  0.09223  Biso   1.000  N
  C249     1.0000 0.56497  0.34903  0.06733  Biso   1.000  C
  H159     1.0000 0.59567  0.37703  0.05193  Biso   1.000  H
  H160     1.0000 0.56667  0.36433  0.13063  Biso   1.000  H
  H161     1.0000 0.39517  0.18123  0.08783  Biso   1.000  H
  C250     1.0000 0.36717  0.11373  0.00563  Biso   1.000  C
  C251     1.0000 0.39667  0.14733  0.03163  Biso   1.000  C
  C252     1.0000 0.48537  0.28563  0.01133  Biso   1.000  C
  C253     1.0000 0.45547  0.25163  0.98543  Biso   1.000  C
  H162     1.0000 0.32767  0.05683  0.00383  Biso   1.000  H
  H163     1.0000 0.37767  0.11333  0.04683  Biso   1.000  H
  H164     1.0000 0.52467  0.34253  0.01323  Biso   1.000  H
  H165     1.0000 0.47467  0.28603  0.97013  Biso   1.000  H
  Cu12     1.0000 0.78043  0.17797  0.14667  Biso   1.000  Cu
  C254     1.0000 0.87893  0.29207  0.19457  Biso   1.000  C
  O56      1.0000 0.84713  0.27567  0.17047  Biso   1.000  O
  O57      1.0000 0.88433  0.23537  0.20817  Biso   1.000  O
  C255     1.0000 0.97233  0.47177  0.24407  Biso   1.000  C
  C256     1.0000 0.96233  0.53427  0.23087  Biso   1.000  C
  H166     1.0000 0.98033  0.58597  0.23927  Biso   1.000  H
  C257     1.0000 0.92533  0.51857  0.20497  Biso   1.000  C
  C258     1.0000 0.89733  0.44047  0.19227  Biso   1.000  C
  H167     1.0000 0.87333  0.43017  0.17517  Biso   1.000  H
  C259     1.0000 0.90743  0.37807  0.20557  Biso   1.000  C
  C260     1.0000 0.94453  0.39377  0.23147  Biso   1.000  C
  H168     1.0000 0.95133  0.35237  0.24027  Biso   1.000  H
  C261     1.0000 0.90123  0.57417  0.18757  Biso   1.000  C
  O58      1.0000 0.86433  0.54327  0.16487  Biso   1.000  O
  O59      1.0000 0.91433  0.64637  0.19547  Biso   1.000  O
  N34      1.0000 0.01373  0.50707  0.26987  Biso   1.000  N
  C262     1.0000 0.03033  0.46167  0.28777  Biso   1.000  C
  O60      1.0000 0.00233  0.38567  0.28547  Biso   1.000  O
  H169     1.0000 0.03233  0.56017  0.27427  Biso   1.000  H
  C263     1.0000 0.06303  0.49897  0.31597  Biso   1.000  C
  C264     1.0000 0.06633  0.44817  0.33667  Biso   1.000  C
  C265     1.0000 0.09633  0.48167  0.36257  Biso   1.000  C
  C266     1.0000 0.12283  0.56667  0.36777  Biso   1.000  C
  C267     1.0000 0.11933  0.61787  0.34707  Biso   1.000  C
  C268     1.0000 0.08933  0.58387  0.32117  Biso   1.000  C
  H170     1.0000 0.04933  0.39197  0.33317  Biso   1.000  H
  H171     1.0000 0.09933  0.44867  0.37627  Biso   1.000  H
  H172     1.0000 0.13633  0.67407  0.35057  Biso   1.000  H
  H173     1.0000 0.08733  0.61757  0.30747  Biso   1.000  H
  C269     1.0000 0.15383  0.60227  0.39467  Biso   1.000  C
  C270     1.0000 0.11213  0.56547  0.42087  Biso   1.000  C
  N35      1.0000 0.14003  0.59867  0.44577  Biso   1.000  N
  C271     1.0000 0.21263  0.67267  0.44717  Biso   1.000  C
  N36      1.0000 0.25953  0.71567  0.42557  Biso   1.000  N
  C272     1.0000 0.23163  0.68237  0.40067  Biso   1.000  C
  H174     1.0000 0.26233  0.71037  0.38527  Biso   1.000  H
  H175     1.0000 0.23333  0.69767  0.46397  Biso   1.000  H
  H176     1.0000 0.06183  0.51457  0.42117  Biso   1.000  H
  C273     1.0000 0.03383  0.44707  0.33897  Biso   1.000  C
  C274     1.0000 0.06333  0.48067  0.36497  Biso   1.000  C
  C275     1.0000 0.15203  0.61897  0.34467  Biso   1.000  C
  C276     1.0000 0.12213  0.58497  0.31877  Biso   1.000  C
  H177     1.0000 0.99433  0.39017  0.33717  Biso   1.000  H
  H178     1.0000 0.04433  0.44667  0.38017  Biso   1.000  H
  H179     1.0000 0.19133  0.67587  0.34657  Biso   1.000  H
  H180     1.0000 0.14133  0.61937  0.30347  Biso   1.000  H
  Cu13     1.0000 0.06420  0.55290  0.48000  Biso   1.000  Cu
  C277     1.0000 0.07980  0.45440  0.52790  Biso   1.000  C
  O61      1.0000 0.09520  0.48620  0.50380  Biso   1.000  O
  O62      1.0000 0.01770  0.44900  0.54150  Biso   1.000  O
  C278     1.0000 0.16610  0.36100  0.57740  Biso   1.000  C
  C279     1.0000 0.23860  0.37100  0.56420  Biso   1.000  C
  H181     1.0000 0.27230  0.35300  0.57260  Biso   1.000  H
  C280     1.0000 0.25990  0.40800  0.53830  Biso   1.000  C
  C281     1.0000 0.20980  0.43600  0.52560  Biso   1.000  C
  H182     1.0000 0.22350  0.46000  0.50850  Biso   1.000  H
  C282     1.0000 0.13730  0.42590  0.53890  Biso   1.000  C
  C283     1.0000 0.11590  0.38880  0.56480  Biso   1.000  C
  H183     1.0000 0.06770  0.38200  0.57360  Biso   1.000  H
  C284     1.0000 0.33960  0.43210  0.52090  Biso   1.000  C
  O63      1.0000 0.34560  0.46900  0.49820  Biso   1.000  O
  O64      1.0000 0.39870  0.41900  0.52880  Biso   1.000  O
  N37      1.0000 0.16000  0.31960  0.60320  Biso   1.000  N
  C285     1.0000 0.09800  0.30300  0.62110  Biso   1.000  C
  O65      1.0000 0.05000  0.33100  0.61880  Biso   1.000  O
  H184     1.0000 0.19450  0.30100  0.60760  Biso   1.000  H
  C286     1.0000 0.10260  0.27030  0.64930  Biso   1.000  C
  C287     1.0000 0.04850  0.26700  0.67000  Biso   1.000  C
  C288     1.0000 0.05200  0.23700  0.69590  Biso   1.000  C
  C289     1.0000 0.11050  0.21050  0.70110  Biso   1.000  C
  C290     1.0000 0.16520  0.21400  0.68040  Biso   1.000  C
  C291     1.0000 0.16120  0.24400  0.65450  Biso   1.000  C
  H185     1.0000 0.00930  0.28400  0.66650  Biso   1.000  H
  H186     1.0000 0.01600  0.23400  0.70960  Biso   1.000  H
  H187     1.0000 0.20440  0.19700  0.68390  Biso   1.000  H
  H188     1.0000 0.19690  0.24600  0.64080  Biso   1.000  H
  C292     1.0000 0.11510  0.17950  0.72800  Biso   1.000  C
  C293     1.0000 0.12000  0.22120  0.75420  Biso   1.000  C
  N38      1.0000 0.12530  0.19330  0.77910  Biso   1.000  N
  C294     1.0000 0.12670  0.12070  0.78050  Biso   1.000  C
  N39      1.0000 0.12280  0.07380  0.75890  Biso   1.000  N
  C295     1.0000 0.11740  0.10170  0.73400  Biso   1.000  C
  H189     1.0000 0.11470  0.07100  0.71860  Biso   1.000  H
  H190     1.0000 0.13100  0.10000  0.79730  Biso   1.000  H
  H191     1.0000 0.11940  0.27150  0.75450  Biso   1.000  H
  C296     1.0000 0.07990  0.29950  0.67230  Biso   1.000  C
  C297     1.0000 0.08400  0.27000  0.69830  Biso   1.000  C
  C298     1.0000 0.13360  0.18130  0.67800  Biso   1.000  C
  C299     1.0000 0.12950  0.21120  0.65210  Biso   1.000  C
  H192     1.0000 0.06250  0.33900  0.67050  Biso   1.000  H
  H193     1.0000 0.06900  0.28900  0.71350  Biso   1.000  H
  H194     1.0000 0.15120  0.14200  0.67990  Biso   1.000  H
  H195     1.0000 0.14470  0.19200  0.63680  Biso   1.000  H
  Cu14     1.0000 0.73087  0.88623  0.81333  Biso   1.000  Cu
  C300     1.0000 0.74647  0.78773  0.86123  Biso   1.000  C
  O66      1.0000 0.76187  0.81953  0.83713  Biso   1.000  O
  O67      1.0000 0.68437  0.78233  0.87483  Biso   1.000  O
  C301     1.0000 0.83277  0.69433  0.91073  Biso   1.000  C
  C302     1.0000 0.90527  0.70433  0.89753  Biso   1.000  C
  H196     1.0000 0.93897  0.68633  0.90593  Biso   1.000  H
  C303     1.0000 0.92657  0.74133  0.87163  Biso   1.000  C
  C304     1.0000 0.87647  0.76933  0.85893  Biso   1.000  C
  H197     1.0000 0.89017  0.79333  0.84183  Biso   1.000  H
  C305     1.0000 0.80397  0.75923  0.87223  Biso   1.000  C
  C306     1.0000 0.78257  0.72213  0.89813  Biso   1.000  C
  H198     1.0000 0.73437  0.71533  0.90693  Biso   1.000  H
  C307     1.0000 0.00627  0.76543  0.85423  Biso   1.000  C
  O68      1.0000 0.01227  0.80233  0.83153  Biso   1.000  O
  O69      1.0000 0.06537  0.75233  0.86213  Biso   1.000  O
  N40      1.0000 0.82667  0.65293  0.93653  Biso   1.000  N
  C308     1.0000 0.76467  0.63633  0.95443  Biso   1.000  C
  O70      1.0000 0.71667  0.66433  0.95213  Biso   1.000  O
  H199     1.0000 0.86117  0.63433  0.94093  Biso   1.000  H
  C309     1.0000 0.76927  0.60363  0.98263  Biso   1.000  C
  C310     1.0000 0.71517  0.60033  0.00333  Biso   1.000  C
  C311     1.0000 0.71867  0.57033  0.02923  Biso   1.000  C
  C312     1.0000 0.77717  0.54383  0.03443  Biso   1.000  C
  C313     1.0000 0.83187  0.54733  0.01373  Biso   1.000  C
  C314     1.0000 0.82787  0.57733  0.98783  Biso   1.000  C
  H200     1.0000 0.67597  0.61733  0.99983  Biso   1.000  H
  H201     1.0000 0.68267  0.56733  0.04293  Biso   1.000  H
  H202     1.0000 0.87107  0.53033  0.01723  Biso   1.000  H
  H203     1.0000 0.86357  0.57933  0.97413  Biso   1.000  H
  C315     1.0000 0.78177  0.51283  0.06133  Biso   1.000  C
  C316     1.0000 0.78667  0.55453  0.08753  Biso   1.000  C
  N41      1.0000 0.79197  0.52663  0.11243  Biso   1.000  N
  C317     1.0000 0.79337  0.45403  0.11383  Biso   1.000  C
  N42      1.0000 0.78947  0.40713  0.09223  Biso   1.000  N
  C318     1.0000 0.78407  0.43503  0.06733  Biso   1.000  C
  H204     1.0000 0.78137  0.40433  0.05193  Biso   1.000  H
  H205     1.0000 0.79767  0.43333  0.13063  Biso   1.000  H
  H206     1.0000 0.78607  0.60483  0.08783  Biso   1.000  H
  C319     1.0000 0.74657  0.63283  0.00563  Biso   1.000  C
  C320     1.0000 0.75067  0.60333  0.03163  Biso   1.000  C
  C321     1.0000 0.80027  0.51463  0.01133  Biso   1.000  C
  C322     1.0000 0.79617  0.54453  0.98543  Biso   1.000  C
  H207     1.0000 0.72917  0.67233  0.00383  Biso   1.000  H
  H208     1.0000 0.73567  0.62233  0.04683  Biso   1.000  H
  H209     1.0000 0.81787  0.47533  0.01323  Biso   1.000  H
  H210     1.0000 0.81137  0.52533  0.97013  Biso   1.000  H
  Cu15     1.0000 0.39753  0.21957  0.14667  Biso   1.000  Cu
  C323     1.0000 0.41313  0.12107  0.19457  Biso   1.000  C
  O71      1.0000 0.42853  0.15287  0.17047  Biso   1.000  O
  O72      1.0000 0.35103  0.11567  0.20817  Biso   1.000  O
  C324     1.0000 0.49943  0.02767  0.24407  Biso   1.000  C
  C325     1.0000 0.57193  0.03767  0.23087  Biso   1.000  C
  H211     1.0000 0.60563  0.01967  0.23927  Biso   1.000  H
  C326     1.0000 0.59323  0.07467  0.20497  Biso   1.000  C
  C327     1.0000 0.54313  0.10267  0.19227  Biso   1.000  C
  H212     1.0000 0.55683  0.12667  0.17517  Biso   1.000  H
  C328     1.0000 0.47063  0.09257  0.20557  Biso   1.000  C
  C329     1.0000 0.44923  0.05547  0.23147  Biso   1.000  C
  H213     1.0000 0.40103  0.04867  0.24027  Biso   1.000  H
  C330     1.0000 0.67293  0.09877  0.18757  Biso   1.000  C
  O73      1.0000 0.67893  0.13567  0.16487  Biso   1.000  O
  O74      1.0000 0.73203  0.08567  0.19547  Biso   1.000  O
  N43      1.0000 0.49333  0.98627  0.26987  Biso   1.000  N
  C331     1.0000 0.43133  0.96967  0.28777  Biso   1.000  C
  O75      1.0000 0.38333  0.99767  0.28547  Biso   1.000  O
  H214     1.0000 0.52783  0.96767  0.27427  Biso   1.000  H
  C332     1.0000 0.43593  0.93697  0.31597  Biso   1.000  C
  C333     1.0000 0.38183  0.93367  0.33667  Biso   1.000  C
  C334     1.0000 0.38533  0.90367  0.36257  Biso   1.000  C
  C335     1.0000 0.44383  0.87717  0.36777  Biso   1.000  C
  C336     1.0000 0.49853  0.88067  0.34707  Biso   1.000  C
  C337     1.0000 0.49453  0.91067  0.32117  Biso   1.000  C
  H215     1.0000 0.34263  0.95067  0.33317  Biso   1.000  H
  H216     1.0000 0.34933  0.90067  0.37627  Biso   1.000  H
  H217     1.0000 0.53773  0.86367  0.35057  Biso   1.000  H
  H218     1.0000 0.53023  0.91267  0.30747  Biso   1.000  H
  C338     1.0000 0.44843  0.84617  0.39467  Biso   1.000  C
  C339     1.0000 0.45333  0.88787  0.42087  Biso   1.000  C
  N44      1.0000 0.45863  0.85997  0.44577  Biso   1.000  N
  C340     1.0000 0.46003  0.78737  0.44717  Biso   1.000  C
  N45      1.0000 0.45613  0.74047  0.42557  Biso   1.000  N
  C341     1.0000 0.45073  0.76837  0.40067  Biso   1.000  C
  H219     1.0000 0.44803  0.73767  0.38527  Biso   1.000  H
  H220     1.0000 0.46433  0.76667  0.46397  Biso   1.000  H
  H221     1.0000 0.45273  0.93817  0.42117  Biso   1.000  H
  C342     1.0000 0.41323  0.96617  0.33897  Biso   1.000  C
  C343     1.0000 0.41733  0.93667  0.36497  Biso   1.000  C
  C344     1.0000 0.46693  0.84797  0.34467  Biso   1.000  C
  C345     1.0000 0.46283  0.87787  0.31877  Biso   1.000  C
  H222     1.0000 0.39583  0.00567  0.33717  Biso   1.000  H
  H223     1.0000 0.40233  0.95567  0.38017  Biso   1.000  H
  H224     1.0000 0.48453  0.80867  0.34657  Biso   1.000  H
  H225     1.0000 0.47803  0.85867  0.30347  Biso   1.000  H
  Cu16     1.0000 0.48870  0.93580  0.48000  Biso   1.000  Cu
  C346     1.0000 0.37460  0.92020  0.52790  Biso   1.000  C
  O76      1.0000 0.39100  0.90480  0.50380  Biso   1.000  O
  O77      1.0000 0.43130  0.98230  0.54150  Biso   1.000  O
  C347     1.0000 0.19490  0.83390  0.57740  Biso   1.000  C
  C348     1.0000 0.13240  0.76140  0.56420  Biso   1.000  C
  H226     1.0000 0.08070  0.72770  0.57260  Biso   1.000  H
  C349     1.0000 0.14810  0.74010  0.53830  Biso   1.000  C
  C350     1.0000 0.22620  0.79020  0.52560  Biso   1.000  C
  H227     1.0000 0.23650  0.77650  0.50850  Biso   1.000  H
  C351     1.0000 0.28860  0.86270  0.53890  Biso   1.000  C
  C352     1.0000 0.27290  0.88410  0.56480  Biso   1.000  C
  H228     1.0000 0.31430  0.93230  0.57360  Biso   1.000  H
  C353     1.0000 0.09250  0.66040  0.52090  Biso   1.000  C
  O78      1.0000 0.12340  0.65440  0.49820  Biso   1.000  O
  O79      1.0000 0.02030  0.60130  0.52880  Biso   1.000  O
  N46      1.0000 0.15960  0.84000  0.60320  Biso   1.000  N
  C354     1.0000 0.20500  0.90200  0.62110  Biso   1.000  C
  O80      1.0000 0.28100  0.95000  0.61880  Biso   1.000  O
  H229     1.0000 0.10650  0.80550  0.60760  Biso   1.000  H
  C355     1.0000 0.16770  0.89740  0.64930  Biso   1.000  C
  C356     1.0000 0.21850  0.95150  0.67000  Biso   1.000  C
  C357     1.0000 0.18500  0.94800  0.69590  Biso   1.000  C
  C358     1.0000 0.10000  0.88950  0.70110  Biso   1.000  C
  C359     1.0000 0.04880  0.83480  0.68040  Biso   1.000  C
  C360     1.0000 0.08280  0.83880  0.65450  Biso   1.000  C
  H230     1.0000 0.27470  0.99070  0.66650  Biso   1.000  H
  H231     1.0000 0.21800  0.98400  0.70960  Biso   1.000  H
  H232     1.0000 0.99260  0.79560  0.68390  Biso   1.000  H
  H233     1.0000 0.04910  0.80310  0.64080  Biso   1.000  H
  C361     1.0000 0.06440  0.88490  0.72800  Biso   1.000  C
  C362     1.0000 0.10120  0.88000  0.75420  Biso   1.000  C
  N47      1.0000 0.06800  0.87470  0.77910  Biso   1.000  N
  C363     1.0000 0.99400  0.87330  0.78050  Biso   1.000  C
  N48      1.0000 0.95100  0.87720  0.75890  Biso   1.000  N
  C364     1.0000 0.98430  0.88260  0.73400  Biso   1.000  C
  H234     1.0000 0.95630  0.88530  0.71860  Biso   1.000  H
  H235     1.0000 0.96900  0.86900  0.79730  Biso   1.000  H
  H236     1.0000 0.15210  0.88060  0.75450  Biso   1.000  H
  C365     1.0000 0.21960  0.92010  0.67230  Biso   1.000  C
  C366     1.0000 0.18600  0.91600  0.69830  Biso   1.000  C
  C367     1.0000 0.04770  0.86640  0.67800  Biso   1.000  C
  C368     1.0000 0.08170  0.87050  0.65210  Biso   1.000  C
  H237     1.0000 0.27650  0.93750  0.67050  Biso   1.000  H
  H238     1.0000 0.22000  0.93100  0.71350  Biso   1.000  H
  H239     1.0000 0.99080  0.84880  0.67990  Biso   1.000  H
  H240     1.0000 0.04730  0.85530  0.63680  Biso   1.000  H
  Cu17     1.0000 0.15537  0.26913  0.81333  Biso   1.000  Cu
  C369     1.0000 0.04127  0.25353  0.86123  Biso   1.000  C
  O81      1.0000 0.05767  0.23813  0.83713  Biso   1.000  O
  O82      1.0000 0.09797  0.31563  0.87483  Biso   1.000  O
  C370     1.0000 0.86157  0.16723  0.91073  Biso   1.000  C
  C371     1.0000 0.79907  0.09473  0.89753  Biso   1.000  C
  H241     1.0000 0.74737  0.06103  0.90593  Biso   1.000  H
  C372     1.0000 0.81477  0.07343  0.87163  Biso   1.000  C
  C373     1.0000 0.89287  0.12353  0.85893  Biso   1.000  C
  H242     1.0000 0.90317  0.10983  0.84183  Biso   1.000  H
  C374     1.0000 0.95527  0.19603  0.87223  Biso   1.000  C
  C375     1.0000 0.93957  0.21743  0.89813  Biso   1.000  C
  H243     1.0000 0.98097  0.26563  0.90693  Biso   1.000  H
  C376     1.0000 0.75917  0.99373  0.85423  Biso   1.000  C
  O83      1.0000 0.79007  0.98773  0.83153  Biso   1.000  O
  O84      1.0000 0.68697  0.93463  0.86213  Biso   1.000  O
  N49      1.0000 0.82627  0.17333  0.93653  Biso   1.000  N
  C377     1.0000 0.87167  0.23533  0.95443  Biso   1.000  C
  O85      1.0000 0.94767  0.28333  0.95213  Biso   1.000  O
  H244     1.0000 0.77317  0.13883  0.94093  Biso   1.000  H
  C378     1.0000 0.83437  0.23073  0.98263  Biso   1.000  C
  C379     1.0000 0.88517  0.28483  0.00333  Biso   1.000  C
  C380     1.0000 0.85167  0.28133  0.02923  Biso   1.000  C
  C381     1.0000 0.76667  0.22283  0.03443  Biso   1.000  C
  C382     1.0000 0.71547  0.16813  0.01373  Biso   1.000  C
  C383     1.0000 0.74947  0.17213  0.98783  Biso   1.000  C
  H245     1.0000 0.94137  0.32403  0.99983  Biso   1.000  H
  H246     1.0000 0.88467  0.31733  0.04293  Biso   1.000  H
  H247     1.0000 0.65927  0.12893  0.01723  Biso   1.000  H
  H248     1.0000 0.71577  0.13643  0.97413  Biso   1.000  H
  C384     1.0000 0.73107  0.21823  0.06133  Biso   1.000  C
  C385     1.0000 0.76787  0.21333  0.08753  Biso   1.000  C
  N50      1.0000 0.73467  0.20803  0.11243  Biso   1.000  N
  C386     1.0000 0.66067  0.20663  0.11383  Biso   1.000  C
  N51      1.0000 0.61767  0.21053  0.09223  Biso   1.000  N
  C387     1.0000 0.65097  0.21593  0.06733  Biso   1.000  C
  H249     1.0000 0.62297  0.21863  0.05193  Biso   1.000  H
  H250     1.0000 0.63567  0.20233  0.13063  Biso   1.000  H
  H251     1.0000 0.81877  0.21393  0.08783  Biso   1.000  H
  C388     1.0000 0.88627  0.25343  0.00563  Biso   1.000  C
  C389     1.0000 0.85267  0.24933  0.03163  Biso   1.000  C
  C390     1.0000 0.71437  0.19973  0.01133  Biso   1.000  C
  C391     1.0000 0.74837  0.20383  0.98543  Biso   1.000  C
  H252     1.0000 0.94317  0.27083  0.00383  Biso   1.000  H
  H253     1.0000 0.88667  0.26433  0.04683  Biso   1.000  H
  H254     1.0000 0.65747  0.18213  0.01323  Biso   1.000  H
  H255     1.0000 0.71397  0.18863  0.97013  Biso   1.000  H
  Cu18     1.0000 0.82203  0.60247  0.14667  Biso   1.000  Cu
  C392     1.0000 0.70793  0.58687  0.19457  Biso   1.000  C
  O86      1.0000 0.72433  0.57147  0.17047  Biso   1.000  O
  O87      1.0000 0.76463  0.64897  0.20817  Biso   1.000  O
  C393     1.0000 0.52823  0.50057  0.24407  Biso   1.000  C
  C394     1.0000 0.46573  0.42807  0.23087  Biso   1.000  C
  H256     1.0000 0.41403  0.39437  0.23927  Biso   1.000  H
  C395     1.0000 0.48143  0.40677  0.20497  Biso   1.000  C
  C396     1.0000 0.55953  0.45687  0.19227  Biso   1.000  C
  H257     1.0000 0.56983  0.44317  0.17517  Biso   1.000  H
  C397     1.0000 0.62193  0.52937  0.20557  Biso   1.000  C
  C398     1.0000 0.60623  0.55077  0.23147  Biso   1.000  C
  H258     1.0000 0.64763  0.59897  0.24027  Biso   1.000  H
  C399     1.0000 0.42583  0.32707  0.18757  Biso   1.000  C
  O88      1.0000 0.45673  0.32107  0.16487  Biso   1.000  O
  O89      1.0000 0.35363  0.26797  0.19547  Biso   1.000  O
  N52      1.0000 0.49293  0.50667  0.26987  Biso   1.000  N
  C400     1.0000 0.53833  0.56867  0.28777  Biso   1.000  C
  O90      1.0000 0.61433  0.61667  0.28547  Biso   1.000  O
  H259     1.0000 0.43983  0.47217  0.27427  Biso   1.000  H
  C401     1.0000 0.50103  0.56407  0.31597  Biso   1.000  C
  C402     1.0000 0.55183  0.61817  0.33667  Biso   1.000  C
  C403     1.0000 0.51833  0.61467  0.36257  Biso   1.000  C
  C404     1.0000 0.43333  0.55617  0.36777  Biso   1.000  C
  C405     1.0000 0.38213  0.50147  0.34707  Biso   1.000  C
  C406     1.0000 0.41613  0.50547  0.32117  Biso   1.000  C
  H260     1.0000 0.60803  0.65737  0.33317  Biso   1.000  H
  H261     1.0000 0.55133  0.65067  0.37627  Biso   1.000  H
  H262     1.0000 0.32593  0.46227  0.35057  Biso   1.000  H
  H263     1.0000 0.38243  0.46977  0.30747  Biso   1.000  H
  C407     1.0000 0.39773  0.55157  0.39467  Biso   1.000  C
  C408     1.0000 0.43453  0.54667  0.42087  Biso   1.000  C
  N53      1.0000 0.40133  0.54137  0.44577  Biso   1.000  N
  C409     1.0000 0.32733  0.53997  0.44717  Biso   1.000  C
  N54      1.0000 0.28433  0.54387  0.42557  Biso   1.000  N
  C410     1.0000 0.31763  0.54927  0.40067  Biso   1.000  C
  H264     1.0000 0.28963  0.55197  0.38527  Biso   1.000  H
  H265     1.0000 0.30233  0.53567  0.46397  Biso   1.000  H
  H266     1.0000 0.48543  0.54727  0.42117  Biso   1.000  H
  C411     1.0000 0.55293  0.58677  0.33897  Biso   1.000  C
  C412     1.0000 0.51933  0.58267  0.36497  Biso   1.000  C
  C413     1.0000 0.38103  0.53307  0.34467  Biso   1.000  C
  C414     1.0000 0.41503  0.53717  0.31877  Biso   1.000  C
  H267     1.0000 0.60983  0.60417  0.33717  Biso   1.000  H
  H268     1.0000 0.55333  0.59767  0.38017  Biso   1.000  H
  H269     1.0000 0.32413  0.51547  0.34657  Biso   1.000  H
  H270     1.0000 0.38063  0.52197  0.30347  Biso   1.000  H
