data_image0
_cell_length_a       18.0804
_cell_length_b       18.0804
_cell_length_c       48.7231
_cell_angle_alpha    90
_cell_angle_beta     90
_cell_angle_gamma    120

_symmetry_space_group_name_H-M    "P 1"
_symmetry_int_tables_number       1

loop_
  _symmetry_equiv_pos_as_xyz
  'x, y, z'

loop_
  _atom_site_label
  _atom_site_occupancy
  _atom_site_fract_x
  _atom_site_fract_y
  _atom_site_fract_z
  _atom_site_thermal_displace_type
  _atom_site_B_iso_or_equiv
  _atom_site_type_symbol
  Cu1      1.0000 0.50470  0.45110  0.52170  Biso   1.000  Cu
  C1       1.0000 0.62750  0.54330  0.47160  Biso   1.000  C
  O1       1.0000 0.62300  0.51800  0.49700  Biso   1.000  O
  O2       1.0000 0.56680  0.55400  0.46140  Biso   1.000  O
  C2       1.0000 0.80460  0.63300  0.42140  Biso   1.000  C
  C3       1.0000 0.86100  0.61400  0.43420  Biso   1.000  C
  H1       1.0000 0.90900  0.62200  0.42500  Biso   1.000  H
  C4       1.0000 0.84600  0.58200  0.46090  Biso   1.000  C
  C5       1.0000 0.77400  0.57000  0.47480  Biso   1.000  C
  H2       1.0000 0.76300  0.54900  0.49240  Biso   1.000  H
  C6       1.0000 0.71680  0.58970  0.46200  Biso   1.000  C
  C7       1.0000 0.73220  0.62110  0.43530  Biso   1.000  C
  H3       1.0000 0.69500  0.63400  0.42680  Biso   1.000  H
  C8       1.0000 0.88610  0.54100  0.47770  Biso   1.000  C
  O3       1.0000 0.87530  0.52500  0.50400  Biso   1.000  O
  O4       1.0000 0.96130  0.56900  0.46670  Biso   1.000  O
  N1       1.0000 0.83980  0.68030  0.39700  Biso   1.000  N
  C9       1.0000 0.79400  0.69700  0.37920  Biso   1.000  C
  O5       1.0000 0.71600  0.65600  0.37830  Biso   1.000  O
  H4       1.0000 0.89310  0.70000  0.39250  Biso   1.000  H
  C10      1.0000 0.83160  0.72960  0.35050  Biso   1.000  C
  C11      1.0000 0.78110  0.73540  0.33000  Biso   1.000  C
  C12      1.0000 0.81510  0.76500  0.30410  Biso   1.000  C
  C13      1.0000 0.89960  0.78910  0.29860  Biso   1.000  C
  C14      1.0000 0.95010  0.78330  0.31910  Biso   1.000  C
  C15      1.0000 0.91610  0.75360  0.34500  Biso   1.000  C
  H5       1.0000 0.72510  0.72000  0.33370  Biso   1.000  H
  H6       1.0000 0.78200  0.76900  0.29060  Biso   1.000  H
  H7       1.0000 0.00600  0.79900  0.31540  Biso   1.000  H
  H8       1.0000 0.94950  0.75000  0.35850  Biso   1.000  H
  C16      1.0000 0.93580  0.82080  0.27100  Biso   1.000  C
  C17      1.0000 0.89540  0.77380  0.24600  Biso   1.000  C
  N2       1.0000 0.93040  0.80130  0.22132  Biso   1.000  N
  C18      1.0000 0.01100  0.87970  0.21790  Biso   1.000  C
  N3       1.0000 0.05150  0.92710  0.24260  Biso   1.000  N
  C19      1.0000 0.01660  0.89960  0.26730  Biso   1.000  C
  H9       1.0000 0.04370  0.93080  0.28280  Biso   1.000  H
  H10      1.0000 0.03400  0.89730  0.20070  Biso   1.000  H
  H11      1.0000 0.84420  0.72350  0.24700  Biso   1.000  H
  C20      1.0000 0.77970  0.69840  0.32740  Biso   1.000  C
  C21      1.0000 0.81370  0.72800  0.30150  Biso   1.000  C
  C22      1.0000 0.95140  0.82040  0.32170  Biso   1.000  C
  C23      1.0000 0.91740  0.79060  0.34760  Biso   1.000  C
  H12      1.0000 0.72290  0.65800  0.32930  Biso   1.000  H
  H13      1.0000 0.77900  0.70700  0.28620  Biso   1.000  H
  H14      1.0000 0.00820  0.86100  0.31980  Biso   1.000  H
  H15      1.0000 0.95170  0.81100  0.36290  Biso   1.000  H
  Cu2      1.0000 0.17137  0.78443  0.85503  Biso   1.000  Cu
  C24      1.0000 0.29417  0.87663  0.80493  Biso   1.000  C
  O6       1.0000 0.28967  0.85133  0.83033  Biso   1.000  O
  O7       1.0000 0.23347  0.88733  0.79473  Biso   1.000  O
  C25      1.0000 0.47127  0.96633  0.75473  Biso   1.000  C
  C26      1.0000 0.52767  0.94733  0.76753  Biso   1.000  C
  H16      1.0000 0.57567  0.95533  0.75833  Biso   1.000  H
  C27      1.0000 0.51267  0.91533  0.79423  Biso   1.000  C
  C28      1.0000 0.44067  0.90333  0.80813  Biso   1.000  C
  H17      1.0000 0.42967  0.88233  0.82573  Biso   1.000  H
  C29      1.0000 0.38347  0.92303  0.79533  Biso   1.000  C
  C30      1.0000 0.39887  0.95443  0.76863  Biso   1.000  C
  H18      1.0000 0.36167  0.96733  0.76013  Biso   1.000  H
  C31      1.0000 0.55277  0.87433  0.81103  Biso   1.000  C
  O8       1.0000 0.54197  0.85833  0.83733  Biso   1.000  O
  O9       1.0000 0.62797  0.90233  0.80003  Biso   1.000  O
  N4       1.0000 0.50647  0.01363  0.73033  Biso   1.000  N
  C32      1.0000 0.46067  0.03033  0.71253  Biso   1.000  C
  O10      1.0000 0.38267  0.98933  0.71163  Biso   1.000  O
  H19      1.0000 0.55977  0.03333  0.72583  Biso   1.000  H
  C33      1.0000 0.49827  0.06293  0.68383  Biso   1.000  C
  C34      1.0000 0.44777  0.06873  0.66333  Biso   1.000  C
  C35      1.0000 0.48177  0.09833  0.63743  Biso   1.000  C
  C36      1.0000 0.56627  0.12243  0.63193  Biso   1.000  C
  C37      1.0000 0.61677  0.11663  0.65243  Biso   1.000  C
  C38      1.0000 0.58277  0.08693  0.67833  Biso   1.000  C
  H20      1.0000 0.39177  0.05333  0.66703  Biso   1.000  H
  H21      1.0000 0.44867  0.10233  0.62393  Biso   1.000  H
  H22      1.0000 0.67267  0.13233  0.64873  Biso   1.000  H
  H23      1.0000 0.61617  0.08333  0.69183  Biso   1.000  H
  C39      1.0000 0.60247  0.15413  0.60433  Biso   1.000  C
  C40      1.0000 0.56207  0.10713  0.57933  Biso   1.000  C
  N5       1.0000 0.59707  0.13463  0.55465  Biso   1.000  N
  C41      1.0000 0.67767  0.21303  0.55123  Biso   1.000  C
  N6       1.0000 0.71817  0.26043  0.57593  Biso   1.000  N
  C42      1.0000 0.68327  0.23293  0.60063  Biso   1.000  C
  H24      1.0000 0.71037  0.26413  0.61613  Biso   1.000  H
  H25      1.0000 0.70067  0.23063  0.53403  Biso   1.000  H
  H26      1.0000 0.51087  0.05683  0.58033  Biso   1.000  H
  C43      1.0000 0.44637  0.03173  0.66073  Biso   1.000  C
  C44      1.0000 0.48037  0.06133  0.63483  Biso   1.000  C
  C45      1.0000 0.61807  0.15373  0.65503  Biso   1.000  C
  C46      1.0000 0.58407  0.12393  0.68093  Biso   1.000  C
  H27      1.0000 0.38957  0.99133  0.66263  Biso   1.000  H
  H28      1.0000 0.44567  0.04033  0.61953  Biso   1.000  H
  H29      1.0000 0.67487  0.19433  0.65313  Biso   1.000  H
  H30      1.0000 0.61837  0.14433  0.69623  Biso   1.000  H
  Cu3      1.0000 0.83803  0.11777  0.18837  Biso   1.000  Cu
  C47      1.0000 0.96083  0.20997  0.13827  Biso   1.000  C
  O11      1.0000 0.95633  0.18467  0.16367  Biso   1.000  O
  O12      1.0000 0.90013  0.22067  0.12807  Biso   1.000  O
  C48      1.0000 0.13793  0.29967  0.08807  Biso   1.000  C
  C49      1.0000 0.19433  0.28067  0.10087  Biso   1.000  C
  H31      1.0000 0.24233  0.28867  0.09167  Biso   1.000  H
  C50      1.0000 0.17933  0.24867  0.12757  Biso   1.000  C
  C51      1.0000 0.10733  0.23667  0.14147  Biso   1.000  C
  H32      1.0000 0.09633  0.21567  0.15907  Biso   1.000  H
  C52      1.0000 0.05013  0.25637  0.12867  Biso   1.000  C
  C53      1.0000 0.06553  0.28777  0.10197  Biso   1.000  C
  H33      1.0000 0.02833  0.30067  0.09347  Biso   1.000  H
  C54      1.0000 0.21943  0.20767  0.14437  Biso   1.000  C
  O13      1.0000 0.20863  0.19167  0.17067  Biso   1.000  O
  O14      1.0000 0.29463  0.23567  0.13337  Biso   1.000  O
  N7       1.0000 0.17313  0.34697  0.06367  Biso   1.000  N
  C55      1.0000 0.12733  0.36367  0.04587  Biso   1.000  C
  O15      1.0000 0.04933  0.32267  0.04497  Biso   1.000  O
  H34      1.0000 0.22643  0.36667  0.05917  Biso   1.000  H
  C56      1.0000 0.16493  0.39627  0.01717  Biso   1.000  C
  C57      1.0000 0.11443  0.40207  0.99667  Biso   1.000  C
  C58      1.0000 0.14843  0.43167  0.97077  Biso   1.000  C
  C59      1.0000 0.23293  0.45577  0.96527  Biso   1.000  C
  C60      1.0000 0.28343  0.44997  0.98577  Biso   1.000  C
  C61      1.0000 0.24943  0.42027  0.01167  Biso   1.000  C
  H35      1.0000 0.05843  0.38667  0.00037  Biso   1.000  H
  H36      1.0000 0.11533  0.43567  0.95727  Biso   1.000  H
  H37      1.0000 0.33933  0.46567  0.98207  Biso   1.000  H
  H38      1.0000 0.28283  0.41667  0.02517  Biso   1.000  H
  C62      1.0000 0.26913  0.48747  0.93767  Biso   1.000  C
  C63      1.0000 0.22873  0.44047  0.91267  Biso   1.000  C
  N8       1.0000 0.26373  0.46797  0.88799  Biso   1.000  N
  C64      1.0000 0.34433  0.54637  0.88457  Biso   1.000  C
  N9       1.0000 0.38483  0.59377  0.90927  Biso   1.000  N
  C65      1.0000 0.34993  0.56627  0.93397  Biso   1.000  C
  H39      1.0000 0.37703  0.59747  0.94947  Biso   1.000  H
  H40      1.0000 0.36733  0.56397  0.86737  Biso   1.000  H
  H41      1.0000 0.17753  0.39017  0.91367  Biso   1.000  H
  C66      1.0000 0.11303  0.36507  0.99407  Biso   1.000  C
  C67      1.0000 0.14703  0.39467  0.96817  Biso   1.000  C
  C68      1.0000 0.28473  0.48707  0.98837  Biso   1.000  C
  C69      1.0000 0.25073  0.45727  0.01427  Biso   1.000  C
  H42      1.0000 0.05623  0.32467  0.99597  Biso   1.000  H
  H43      1.0000 0.11233  0.37367  0.95287  Biso   1.000  H
  H44      1.0000 0.34153  0.52767  0.98647  Biso   1.000  H
  H45      1.0000 0.28503  0.47767  0.02957  Biso   1.000  H
  Cu4      1.0000 0.54890  0.05360  0.52170  Biso   1.000  Cu
  C70      1.0000 0.45670  0.08420  0.47160  Biso   1.000  C
  O16      1.0000 0.48200  0.10500  0.49700  Biso   1.000  O
  O17      1.0000 0.44600  0.01280  0.46140  Biso   1.000  O
  C71      1.0000 0.36700  0.17160  0.42140  Biso   1.000  C
  C72      1.0000 0.38600  0.24700  0.43420  Biso   1.000  C
  H46      1.0000 0.37800  0.28700  0.42500  Biso   1.000  H
  C73      1.0000 0.41800  0.26400  0.46090  Biso   1.000  C
  C74      1.0000 0.43000  0.20400  0.47480  Biso   1.000  C
  H47      1.0000 0.45100  0.21400  0.49240  Biso   1.000  H
  C75      1.0000 0.41030  0.12710  0.46200  Biso   1.000  C
  C76      1.0000 0.37890  0.11110  0.43530  Biso   1.000  C
  H48      1.0000 0.36600  0.06100  0.42680  Biso   1.000  H
  C77      1.0000 0.45900  0.34510  0.47770  Biso   1.000  C
  O18      1.0000 0.47500  0.35030  0.50400  Biso   1.000  O
  O19      1.0000 0.43100  0.39230  0.46670  Biso   1.000  O
  N10      1.0000 0.31970  0.15950  0.39700  Biso   1.000  N
  C78      1.0000 0.30300  0.09700  0.37920  Biso   1.000  C
  O20      1.0000 0.34400  0.06000  0.37830  Biso   1.000  O
  H49      1.0000 0.30000  0.19310  0.39250  Biso   1.000  H
  C79      1.0000 0.27040  0.10200  0.35050  Biso   1.000  C
  C80      1.0000 0.26460  0.04570  0.33000  Biso   1.000  C
  C81      1.0000 0.23500  0.05010  0.30410  Biso   1.000  C
  C82      1.0000 0.21090  0.11050  0.29860  Biso   1.000  C
  C83      1.0000 0.21670  0.16680  0.31910  Biso   1.000  C
  C84      1.0000 0.24640  0.16250  0.34500  Biso   1.000  C
  H50      1.0000 0.28000  0.00510  0.33370  Biso   1.000  H
  H51      1.0000 0.23100  0.01300  0.29060  Biso   1.000  H
  H52      1.0000 0.20100  0.20700  0.31540  Biso   1.000  H
  H53      1.0000 0.25000  0.19950  0.35850  Biso   1.000  H
  C85      1.0000 0.17920  0.11500  0.27100  Biso   1.000  C
  C86      1.0000 0.22620  0.12160  0.24600  Biso   1.000  C
  N11      1.0000 0.19870  0.12910  0.22132  Biso   1.000  N
  C87      1.0000 0.12030  0.13130  0.21790  Biso   1.000  C
  N12      1.0000 0.07290  0.12440  0.24260  Biso   1.000  N
  C88      1.0000 0.10040  0.11700  0.26730  Biso   1.000  C
  H54      1.0000 0.06920  0.11290  0.28280  Biso   1.000  H
  H55      1.0000 0.10270  0.13670  0.20070  Biso   1.000  H
  H56      1.0000 0.27650  0.12070  0.24700  Biso   1.000  H
  C89      1.0000 0.30160  0.08130  0.32740  Biso   1.000  C
  C90      1.0000 0.27200  0.08570  0.30150  Biso   1.000  C
  C91      1.0000 0.17960  0.13100  0.32170  Biso   1.000  C
  C92      1.0000 0.20940  0.12680  0.34760  Biso   1.000  C
  H57      1.0000 0.34200  0.06490  0.32930  Biso   1.000  H
  H58      1.0000 0.29300  0.07200  0.28620  Biso   1.000  H
  H59      1.0000 0.13900  0.14720  0.31980  Biso   1.000  H
  H60      1.0000 0.18900  0.14070  0.36290  Biso   1.000  H
  Cu5      1.0000 0.21557  0.38693  0.85503  Biso   1.000  Cu
  C93      1.0000 0.12337  0.41753  0.80493  Biso   1.000  C
  O21      1.0000 0.14867  0.43833  0.83033  Biso   1.000  O
  O22      1.0000 0.11267  0.34613  0.79473  Biso   1.000  O
  C94      1.0000 0.03367  0.50493  0.75473  Biso   1.000  C
  C95      1.0000 0.05267  0.58033  0.76753  Biso   1.000  C
  H61      1.0000 0.04467  0.62033  0.75833  Biso   1.000  H
  C96      1.0000 0.08467  0.59733  0.79423  Biso   1.000  C
  C97      1.0000 0.09667  0.53733  0.80813  Biso   1.000  C
  H62      1.0000 0.11767  0.54733  0.82573  Biso   1.000  H
  C98      1.0000 0.07697  0.46043  0.79533  Biso   1.000  C
  C99      1.0000 0.04557  0.44443  0.76863  Biso   1.000  C
  H63      1.0000 0.03267  0.39433  0.76013  Biso   1.000  H
  C100     1.0000 0.12567  0.67843  0.81103  Biso   1.000  C
  O23      1.0000 0.14167  0.68363  0.83733  Biso   1.000  O
  O24      1.0000 0.09767  0.72563  0.80003  Biso   1.000  O
  N13      1.0000 0.98637  0.49283  0.73033  Biso   1.000  N
  C101     1.0000 0.96967  0.43033  0.71253  Biso   1.000  C
  O25      1.0000 0.01067  0.39333  0.71163  Biso   1.000  O
  H64      1.0000 0.96667  0.52643  0.72583  Biso   1.000  H
  C102     1.0000 0.93707  0.43533  0.68383  Biso   1.000  C
  C103     1.0000 0.93127  0.37903  0.66333  Biso   1.000  C
  C104     1.0000 0.90167  0.38343  0.63743  Biso   1.000  C
  C105     1.0000 0.87757  0.44383  0.63193  Biso   1.000  C
  C106     1.0000 0.88337  0.50013  0.65243  Biso   1.000  C
  C107     1.0000 0.91307  0.49583  0.67833  Biso   1.000  C
  H65      1.0000 0.94667  0.33843  0.66703  Biso   1.000  H
  H66      1.0000 0.89767  0.34633  0.62393  Biso   1.000  H
  H67      1.0000 0.86767  0.54033  0.64873  Biso   1.000  H
  H68      1.0000 0.91667  0.53283  0.69183  Biso   1.000  H
  C108     1.0000 0.84587  0.44833  0.60433  Biso   1.000  C
  C109     1.0000 0.89287  0.45493  0.57933  Biso   1.000  C
  N14      1.0000 0.86537  0.46243  0.55465  Biso   1.000  N
  C110     1.0000 0.78697  0.46463  0.55123  Biso   1.000  C
  N15      1.0000 0.73957  0.45773  0.57593  Biso   1.000  N
  C111     1.0000 0.76707  0.45033  0.60063  Biso   1.000  C
  H69      1.0000 0.73587  0.44623  0.61613  Biso   1.000  H
  H70      1.0000 0.76937  0.47003  0.53403  Biso   1.000  H
  H71      1.0000 0.94317  0.45403  0.58033  Biso   1.000  H
  C112     1.0000 0.96827  0.41463  0.66073  Biso   1.000  C
  C113     1.0000 0.93867  0.41903  0.63483  Biso   1.000  C
  C114     1.0000 0.84627  0.46433  0.65503  Biso   1.000  C
  C115     1.0000 0.87607  0.46013  0.68093  Biso   1.000  C
  H72      1.0000 0.00867  0.39823  0.66263  Biso   1.000  H
  H73      1.0000 0.95967  0.40533  0.61953  Biso   1.000  H
  H74      1.0000 0.80567  0.48053  0.65313  Biso   1.000  H
  H75      1.0000 0.85567  0.47403  0.69623  Biso   1.000  H
  Cu6      1.0000 0.88223  0.72027  0.18837  Biso   1.000  Cu
  C116     1.0000 0.79003  0.75087  0.13827  Biso   1.000  C
  O26      1.0000 0.81533  0.77167  0.16367  Biso   1.000  O
  O27      1.0000 0.77933  0.67947  0.12807  Biso   1.000  O
  C117     1.0000 0.70033  0.83827  0.08807  Biso   1.000  C
  C118     1.0000 0.71933  0.91367  0.10087  Biso   1.000  C
  H76      1.0000 0.71133  0.95367  0.09167  Biso   1.000  H
  C119     1.0000 0.75133  0.93067  0.12757  Biso   1.000  C
  C120     1.0000 0.76333  0.87067  0.14147  Biso   1.000  C
  H77      1.0000 0.78433  0.88067  0.15907  Biso   1.000  H
  C121     1.0000 0.74363  0.79377  0.12867  Biso   1.000  C
  C122     1.0000 0.71223  0.77777  0.10197  Biso   1.000  C
  H78      1.0000 0.69933  0.72767  0.09347  Biso   1.000  H
  C123     1.0000 0.79233  0.01177  0.14437  Biso   1.000  C
  O28      1.0000 0.80833  0.01697  0.17067  Biso   1.000  O
  O29      1.0000 0.76433  0.05897  0.13337  Biso   1.000  O
  N16      1.0000 0.65303  0.82617  0.06367  Biso   1.000  N
  C124     1.0000 0.63633  0.76367  0.04587  Biso   1.000  C
  O30      1.0000 0.67733  0.72667  0.04497  Biso   1.000  O
  H79      1.0000 0.63333  0.85977  0.05917  Biso   1.000  H
  C125     1.0000 0.60373  0.76867  0.01717  Biso   1.000  C
  C126     1.0000 0.59793  0.71237  0.99667  Biso   1.000  C
  C127     1.0000 0.56833  0.71677  0.97077  Biso   1.000  C
  C128     1.0000 0.54423  0.77717  0.96527  Biso   1.000  C
  C129     1.0000 0.55003  0.83347  0.98577  Biso   1.000  C
  C130     1.0000 0.57973  0.82917  0.01167  Biso   1.000  C
  H80      1.0000 0.61333  0.67177  0.00037  Biso   1.000  H
  H81      1.0000 0.56433  0.67967  0.95727  Biso   1.000  H
  H82      1.0000 0.53433  0.87367  0.98207  Biso   1.000  H
  H83      1.0000 0.58333  0.86617  0.02517  Biso   1.000  H
  C131     1.0000 0.51253  0.78167  0.93767  Biso   1.000  C
  C132     1.0000 0.55953  0.78827  0.91267  Biso   1.000  C
  N17      1.0000 0.53203  0.79577  0.88799  Biso   1.000  N
  C133     1.0000 0.45363  0.79797  0.88457  Biso   1.000  C
  N18      1.0000 0.40623  0.79107  0.90927  Biso   1.000  N
  C134     1.0000 0.43373  0.78367  0.93397  Biso   1.000  C
  H84      1.0000 0.40253  0.77957  0.94947  Biso   1.000  H
  H85      1.0000 0.43603  0.80337  0.86737  Biso   1.000  H
  H86      1.0000 0.60983  0.78737  0.91367  Biso   1.000  H
  C135     1.0000 0.63493  0.74797  0.99407  Biso   1.000  C
  C136     1.0000 0.60533  0.75237  0.96817  Biso   1.000  C
  C137     1.0000 0.51293  0.79767  0.98837  Biso   1.000  C
  C138     1.0000 0.54273  0.79347  0.01427  Biso   1.000  C
  H87      1.0000 0.67533  0.73157  0.99597  Biso   1.000  H
  H88      1.0000 0.62633  0.73867  0.95287  Biso   1.000  H
  H89      1.0000 0.47233  0.81387  0.98647  Biso   1.000  H
  H90      1.0000 0.52233  0.80737  0.02957  Biso   1.000  H
  Cu7      1.0000 0.94640  0.49530  0.52170  Biso   1.000  Cu
  C139     1.0000 0.91580  0.37250  0.47160  Biso   1.000  C
  O31      1.0000 0.89500  0.37700  0.49700  Biso   1.000  O
  O32      1.0000 0.98720  0.43320  0.46140  Biso   1.000  O
  C140     1.0000 0.82840  0.19540  0.42140  Biso   1.000  C
  C141     1.0000 0.75300  0.13900  0.43420  Biso   1.000  C
  H91      1.0000 0.71300  0.09100  0.42500  Biso   1.000  H
  C142     1.0000 0.73600  0.15400  0.46090  Biso   1.000  C
  C143     1.0000 0.79600  0.22600  0.47480  Biso   1.000  C
  H92      1.0000 0.78600  0.23700  0.49240  Biso   1.000  H
  C144     1.0000 0.87290  0.28320  0.46200  Biso   1.000  C
  C145     1.0000 0.88890  0.26780  0.43530  Biso   1.000  C
  H93      1.0000 0.93900  0.30500  0.42680  Biso   1.000  H
  C146     1.0000 0.65490  0.11390  0.47770  Biso   1.000  C
  O33      1.0000 0.64970  0.12470  0.50400  Biso   1.000  O
  O34      1.0000 0.60770  0.03870  0.46670  Biso   1.000  O
  N19      1.0000 0.84050  0.16020  0.39700  Biso   1.000  N
  C147     1.0000 0.90300  0.20600  0.37920  Biso   1.000  C
  O35      1.0000 0.94000  0.28400  0.37830  Biso   1.000  O
  H94      1.0000 0.80690  0.10690  0.39250  Biso   1.000  H
  C148     1.0000 0.89800  0.16840  0.35050  Biso   1.000  C
  C149     1.0000 0.95430  0.21890  0.33000  Biso   1.000  C
  C150     1.0000 0.94990  0.18490  0.30410  Biso   1.000  C
  C151     1.0000 0.88950  0.10040  0.29860  Biso   1.000  C
  C152     1.0000 0.83320  0.04990  0.31910  Biso   1.000  C
  C153     1.0000 0.83750  0.08390  0.34500  Biso   1.000  C
  H95      1.0000 0.99490  0.27490  0.33370  Biso   1.000  H
  H96      1.0000 0.98700  0.21800  0.29060  Biso   1.000  H
  H97      1.0000 0.79300  0.99400  0.31540  Biso   1.000  H
  H98      1.0000 0.80050  0.05050  0.35850  Biso   1.000  H
  C154     1.0000 0.88500  0.06420  0.27100  Biso   1.000  C
  C155     1.0000 0.87840  0.10460  0.24600  Biso   1.000  C
  N20      1.0000 0.87090  0.06960  0.22132  Biso   1.000  N
  C156     1.0000 0.86870  0.98900  0.21790  Biso   1.000  C
  N21      1.0000 0.87560  0.94850  0.24260  Biso   1.000  N
  C157     1.0000 0.88300  0.98340  0.26730  Biso   1.000  C
  H99      1.0000 0.88710  0.95630  0.28280  Biso   1.000  H
  H100     1.0000 0.86330  0.96600  0.20070  Biso   1.000  H
  H101     1.0000 0.87930  0.15580  0.24700  Biso   1.000  H
  C158     1.0000 0.91870  0.22030  0.32740  Biso   1.000  C
  C159     1.0000 0.91430  0.18630  0.30150  Biso   1.000  C
  C160     1.0000 0.86900  0.04860  0.32170  Biso   1.000  C
  C161     1.0000 0.87320  0.08260  0.34760  Biso   1.000  C
  H102     1.0000 0.93510  0.27710  0.32930  Biso   1.000  H
  H103     1.0000 0.92800  0.22100  0.28620  Biso   1.000  H
  H104     1.0000 0.85280  0.99180  0.31980  Biso   1.000  H
  H105     1.0000 0.85930  0.04830  0.36290  Biso   1.000  H
  Cu8      1.0000 0.61307  0.82863  0.85503  Biso   1.000  Cu
  C162     1.0000 0.58247  0.70583  0.80493  Biso   1.000  C
  O36      1.0000 0.56167  0.71033  0.83033  Biso   1.000  O
  O37      1.0000 0.65387  0.76653  0.79473  Biso   1.000  O
  C163     1.0000 0.49507  0.52873  0.75473  Biso   1.000  C
  C164     1.0000 0.41967  0.47233  0.76753  Biso   1.000  C
  H106     1.0000 0.37967  0.42433  0.75833  Biso   1.000  H
  C165     1.0000 0.40267  0.48733  0.79423  Biso   1.000  C
  C166     1.0000 0.46267  0.55933  0.80813  Biso   1.000  C
  H107     1.0000 0.45267  0.57033  0.82573  Biso   1.000  H
  C167     1.0000 0.53957  0.61653  0.79533  Biso   1.000  C
  C168     1.0000 0.55557  0.60113  0.76863  Biso   1.000  C
  H108     1.0000 0.60567  0.63833  0.76013  Biso   1.000  H
  C169     1.0000 0.32157  0.44723  0.81103  Biso   1.000  C
  O38      1.0000 0.31637  0.45803  0.83733  Biso   1.000  O
  O39      1.0000 0.27437  0.37203  0.80003  Biso   1.000  O
  N22      1.0000 0.50717  0.49353  0.73033  Biso   1.000  N
  C170     1.0000 0.56967  0.53933  0.71253  Biso   1.000  C
  O40      1.0000 0.60667  0.61733  0.71163  Biso   1.000  O
  H109     1.0000 0.47357  0.44023  0.72583  Biso   1.000  H
  C171     1.0000 0.56467  0.50173  0.68383  Biso   1.000  C
  C172     1.0000 0.62097  0.55223  0.66333  Biso   1.000  C
  C173     1.0000 0.61657  0.51823  0.63743  Biso   1.000  C
  C174     1.0000 0.55617  0.43373  0.63193  Biso   1.000  C
  C175     1.0000 0.49987  0.38323  0.65243  Biso   1.000  C
  C176     1.0000 0.50417  0.41723  0.67833  Biso   1.000  C
  H110     1.0000 0.66157  0.60823  0.66703  Biso   1.000  H
  H111     1.0000 0.65367  0.55133  0.62393  Biso   1.000  H
  H112     1.0000 0.45967  0.32733  0.64873  Biso   1.000  H
  H113     1.0000 0.46717  0.38383  0.69183  Biso   1.000  H
  C177     1.0000 0.55167  0.39753  0.60433  Biso   1.000  C
  C178     1.0000 0.54507  0.43793  0.57933  Biso   1.000  C
  N23      1.0000 0.53757  0.40293  0.55465  Biso   1.000  N
  C179     1.0000 0.53537  0.32233  0.55123  Biso   1.000  C
  N24      1.0000 0.54227  0.28183  0.57593  Biso   1.000  N
  C180     1.0000 0.54967  0.31673  0.60063  Biso   1.000  C
  H114     1.0000 0.55377  0.28963  0.61613  Biso   1.000  H
  H115     1.0000 0.52997  0.29933  0.53403  Biso   1.000  H
  H116     1.0000 0.54597  0.48913  0.58033  Biso   1.000  H
  C181     1.0000 0.58537  0.55363  0.66073  Biso   1.000  C
  C182     1.0000 0.58097  0.51963  0.63483  Biso   1.000  C
  C183     1.0000 0.53567  0.38193  0.65503  Biso   1.000  C
  C184     1.0000 0.53987  0.41593  0.68093  Biso   1.000  C
  H117     1.0000 0.60177  0.61043  0.66263  Biso   1.000  H
  H118     1.0000 0.59467  0.55433  0.61953  Biso   1.000  H
  H119     1.0000 0.51947  0.32513  0.65313  Biso   1.000  H
  H120     1.0000 0.52597  0.38163  0.69623  Biso   1.000  H
  Cu9      1.0000 0.27973  0.16197  0.18837  Biso   1.000  Cu
  C185     1.0000 0.24913  0.03917  0.13827  Biso   1.000  C
  O41      1.0000 0.22833  0.04367  0.16367  Biso   1.000  O
  O42      1.0000 0.32053  0.09987  0.12807  Biso   1.000  O
  C186     1.0000 0.16173  0.86207  0.08807  Biso   1.000  C
  C187     1.0000 0.08633  0.80567  0.10087  Biso   1.000  C
  H121     1.0000 0.04633  0.75767  0.09167  Biso   1.000  H
  C188     1.0000 0.06933  0.82067  0.12757  Biso   1.000  C
  C189     1.0000 0.12933  0.89267  0.14147  Biso   1.000  C
  H122     1.0000 0.11933  0.90367  0.15907  Biso   1.000  H
  C190     1.0000 0.20623  0.94987  0.12867  Biso   1.000  C
  C191     1.0000 0.22223  0.93447  0.10197  Biso   1.000  C
  H123     1.0000 0.27233  0.97167  0.09347  Biso   1.000  H
  C192     1.0000 0.98823  0.78057  0.14437  Biso   1.000  C
  O43      1.0000 0.98303  0.79137  0.17067  Biso   1.000  O
  O44      1.0000 0.94103  0.70537  0.13337  Biso   1.000  O
  N25      1.0000 0.17383  0.82687  0.06367  Biso   1.000  N
  C193     1.0000 0.23633  0.87267  0.04587  Biso   1.000  C
  O45      1.0000 0.27333  0.95067  0.04497  Biso   1.000  O
  H124     1.0000 0.14023  0.77357  0.05917  Biso   1.000  H
  C194     1.0000 0.23133  0.83507  0.01717  Biso   1.000  C
  C195     1.0000 0.28763  0.88557  0.99667  Biso   1.000  C
  C196     1.0000 0.28323  0.85157  0.97077  Biso   1.000  C
  C197     1.0000 0.22283  0.76707  0.96527  Biso   1.000  C
  C198     1.0000 0.16653  0.71657  0.98577  Biso   1.000  C
  C199     1.0000 0.17083  0.75057  0.01167  Biso   1.000  C
  H125     1.0000 0.32823  0.94157  0.00037  Biso   1.000  H
  H126     1.0000 0.32033  0.88467  0.95727  Biso   1.000  H
  H127     1.0000 0.12633  0.66067  0.98207  Biso   1.000  H
  H128     1.0000 0.13383  0.71717  0.02517  Biso   1.000  H
  C200     1.0000 0.21833  0.73087  0.93767  Biso   1.000  C
  C201     1.0000 0.21173  0.77127  0.91267  Biso   1.000  C
  N26      1.0000 0.20423  0.73627  0.88799  Biso   1.000  N
  C202     1.0000 0.20203  0.65567  0.88457  Biso   1.000  C
  N27      1.0000 0.20893  0.61517  0.90927  Biso   1.000  N
  C203     1.0000 0.21633  0.65007  0.93397  Biso   1.000  C
  H129     1.0000 0.22043  0.62297  0.94947  Biso   1.000  H
  H130     1.0000 0.19663  0.63267  0.86737  Biso   1.000  H
  H131     1.0000 0.21263  0.82247  0.91367  Biso   1.000  H
  C204     1.0000 0.25203  0.88697  0.99407  Biso   1.000  C
  C205     1.0000 0.24763  0.85297  0.96817  Biso   1.000  C
  C206     1.0000 0.20233  0.71527  0.98837  Biso   1.000  C
  C207     1.0000 0.20653  0.74927  0.01427  Biso   1.000  C
  H132     1.0000 0.26843  0.94377  0.99597  Biso   1.000  H
  H133     1.0000 0.26133  0.88767  0.95287  Biso   1.000  H
  H134     1.0000 0.18613  0.65847  0.98647  Biso   1.000  H
  H135     1.0000 0.19263  0.71497  0.02957  Biso   1.000  H
  Cu10     1.0000 0.45110  0.50470  0.47830  Biso   1.000  Cu
  C208     1.0000 0.54330  0.62750  0.52840  Biso   1.000  C
  O46      1.0000 0.51800  0.62300  0.50300  Biso   1.000  O
  O47      1.0000 0.55400  0.56680  0.53860  Biso   1.000  O
  C209     1.0000 0.63300  0.80460  0.57860  Biso   1.000  C
  C210     1.0000 0.61400  0.86100  0.56580  Biso   1.000  C
  H136     1.0000 0.62200  0.90900  0.57500  Biso   1.000  H
  C211     1.0000 0.58200  0.84600  0.53910  Biso   1.000  C
  C212     1.0000 0.57000  0.77400  0.52520  Biso   1.000  C
  H137     1.0000 0.54900  0.76300  0.50760  Biso   1.000  H
  C213     1.0000 0.58970  0.71680  0.53800  Biso   1.000  C
  C214     1.0000 0.62110  0.73220  0.56470  Biso   1.000  C
  H138     1.0000 0.63400  0.69500  0.57320  Biso   1.000  H
  C215     1.0000 0.54100  0.88610  0.52230  Biso   1.000  C
  O48      1.0000 0.52500  0.87530  0.49600  Biso   1.000  O
  O49      1.0000 0.56900  0.96130  0.53330  Biso   1.000  O
  N28      1.0000 0.68030  0.83980  0.60300  Biso   1.000  N
  C216     1.0000 0.69700  0.79400  0.62080  Biso   1.000  C
  O50      1.0000 0.65600  0.71600  0.62170  Biso   1.000  O
  H139     1.0000 0.70000  0.89310  0.60750  Biso   1.000  H
  C217     1.0000 0.72960  0.83160  0.64950  Biso   1.000  C
  C218     1.0000 0.73540  0.78110  0.67000  Biso   1.000  C
  C219     1.0000 0.76500  0.81510  0.69590  Biso   1.000  C
  C220     1.0000 0.78910  0.89960  0.70140  Biso   1.000  C
  C221     1.0000 0.78330  0.95010  0.68090  Biso   1.000  C
  C222     1.0000 0.75360  0.91610  0.65500  Biso   1.000  C
  H140     1.0000 0.72000  0.72510  0.66630  Biso   1.000  H
  H141     1.0000 0.76900  0.78200  0.70940  Biso   1.000  H
  H142     1.0000 0.79900  0.00600  0.68460  Biso   1.000  H
  H143     1.0000 0.75000  0.94950  0.64150  Biso   1.000  H
  C223     1.0000 0.82080  0.93580  0.72900  Biso   1.000  C
  C224     1.0000 0.77380  0.89540  0.75400  Biso   1.000  C
  N29      1.0000 0.80130  0.93040  0.77868  Biso   1.000  N
  C225     1.0000 0.87970  0.01100  0.78210  Biso   1.000  C
  N30      1.0000 0.92710  0.05150  0.75740  Biso   1.000  N
  C226     1.0000 0.89960  0.01660  0.73270  Biso   1.000  C
  H144     1.0000 0.93080  0.04370  0.71720  Biso   1.000  H
  H145     1.0000 0.89730  0.03400  0.79930  Biso   1.000  H
  H146     1.0000 0.72350  0.84420  0.75300  Biso   1.000  H
  C227     1.0000 0.69840  0.77970  0.67260  Biso   1.000  C
  C228     1.0000 0.72800  0.81370  0.69850  Biso   1.000  C
  C229     1.0000 0.82040  0.95140  0.67830  Biso   1.000  C
  C230     1.0000 0.79060  0.91740  0.65240  Biso   1.000  C
  H147     1.0000 0.65800  0.72290  0.67070  Biso   1.000  H
  H148     1.0000 0.70700  0.77900  0.71380  Biso   1.000  H
  H149     1.0000 0.86100  0.00820  0.68020  Biso   1.000  H
  H150     1.0000 0.81100  0.95170  0.63710  Biso   1.000  H
  Cu11     1.0000 0.11777  0.83803  0.81163  Biso   1.000  Cu
  C231     1.0000 0.20997  0.96083  0.86173  Biso   1.000  C
  O51      1.0000 0.18467  0.95633  0.83633  Biso   1.000  O
  O52      1.0000 0.22067  0.90013  0.87193  Biso   1.000  O
  C232     1.0000 0.29967  0.13793  0.91193  Biso   1.000  C
  C233     1.0000 0.28067  0.19433  0.89913  Biso   1.000  C
  H151     1.0000 0.28867  0.24233  0.90833  Biso   1.000  H
  C234     1.0000 0.24867  0.17933  0.87243  Biso   1.000  C
  C235     1.0000 0.23667  0.10733  0.85853  Biso   1.000  C
  H152     1.0000 0.21567  0.09633  0.84093  Biso   1.000  H
  C236     1.0000 0.25637  0.05013  0.87133  Biso   1.000  C
  C237     1.0000 0.28777  0.06553  0.89803  Biso   1.000  C
  H153     1.0000 0.30067  0.02833  0.90653  Biso   1.000  H
  C238     1.0000 0.20767  0.21943  0.85563  Biso   1.000  C
  O53      1.0000 0.19167  0.20863  0.82933  Biso   1.000  O
  O54      1.0000 0.23567  0.29463  0.86663  Biso   1.000  O
  N31      1.0000 0.34697  0.17313  0.93633  Biso   1.000  N
  C239     1.0000 0.36367  0.12733  0.95413  Biso   1.000  C
  O55      1.0000 0.32267  0.04933  0.95503  Biso   1.000  O
  H154     1.0000 0.36667  0.22643  0.94083  Biso   1.000  H
  C240     1.0000 0.39627  0.16493  0.98283  Biso   1.000  C
  C241     1.0000 0.40207  0.11443  0.00333  Biso   1.000  C
  C242     1.0000 0.43167  0.14843  0.02923  Biso   1.000  C
  C243     1.0000 0.45577  0.23293  0.03473  Biso   1.000  C
  C244     1.0000 0.44997  0.28343  0.01423  Biso   1.000  C
  C245     1.0000 0.42027  0.24943  0.98833  Biso   1.000  C
  H155     1.0000 0.38667  0.05843  0.99963  Biso   1.000  H
  H156     1.0000 0.43567  0.11533  0.04273  Biso   1.000  H
  H157     1.0000 0.46567  0.33933  0.01793  Biso   1.000  H
  H158     1.0000 0.41667  0.28283  0.97483  Biso   1.000  H
  C246     1.0000 0.48747  0.26913  0.06233  Biso   1.000  C
  C247     1.0000 0.44047  0.22873  0.08733  Biso   1.000  C
  N32      1.0000 0.46797  0.26373  0.11201  Biso   1.000  N
  C248     1.0000 0.54637  0.34433  0.11543  Biso   1.000  C
  N33      1.0000 0.59377  0.38483  0.09073  Biso   1.000  N
  C249     1.0000 0.56627  0.34993  0.06603  Biso   1.000  C
  H159     1.0000 0.59747  0.37703  0.05053  Biso   1.000  H
  H160     1.0000 0.56397  0.36733  0.13263  Biso   1.000  H
  H161     1.0000 0.39017  0.17753  0.08633  Biso   1.000  H
  C250     1.0000 0.36507  0.11303  0.00593  Biso   1.000  C
  C251     1.0000 0.39467  0.14703  0.03183  Biso   1.000  C
  C252     1.0000 0.48707  0.28473  0.01163  Biso   1.000  C
  C253     1.0000 0.45727  0.25073  0.98573  Biso   1.000  C
  H162     1.0000 0.32467  0.05623  0.00403  Biso   1.000  H
  H163     1.0000 0.37367  0.11233  0.04713  Biso   1.000  H
  H164     1.0000 0.52767  0.34153  0.01353  Biso   1.000  H
  H165     1.0000 0.47767  0.28503  0.97043  Biso   1.000  H
  Cu12     1.0000 0.78443  0.17137  0.14497  Biso   1.000  Cu
  C254     1.0000 0.87663  0.29417  0.19507  Biso   1.000  C
  O56      1.0000 0.85133  0.28967  0.16967  Biso   1.000  O
  O57      1.0000 0.88733  0.23347  0.20527  Biso   1.000  O
  C255     1.0000 0.96633  0.47127  0.24527  Biso   1.000  C
  C256     1.0000 0.94733  0.52767  0.23247  Biso   1.000  C
  H166     1.0000 0.95533  0.57567  0.24167  Biso   1.000  H
  C257     1.0000 0.91533  0.51267  0.20577  Biso   1.000  C
  C258     1.0000 0.90333  0.44067  0.19187  Biso   1.000  C
  H167     1.0000 0.88233  0.42967  0.17427  Biso   1.000  H
  C259     1.0000 0.92303  0.38347  0.20467  Biso   1.000  C
  C260     1.0000 0.95443  0.39887  0.23137  Biso   1.000  C
  H168     1.0000 0.96733  0.36167  0.23987  Biso   1.000  H
  C261     1.0000 0.87433  0.55277  0.18897  Biso   1.000  C
  O58      1.0000 0.85833  0.54197  0.16267  Biso   1.000  O
  O59      1.0000 0.90233  0.62797  0.19997  Biso   1.000  O
  N34      1.0000 0.01363  0.50647  0.26967  Biso   1.000  N
  C262     1.0000 0.03033  0.46067  0.28747  Biso   1.000  C
  O60      1.0000 0.98933  0.38267  0.28837  Biso   1.000  O
  H169     1.0000 0.03333  0.55977  0.27417  Biso   1.000  H
  C263     1.0000 0.06293  0.49827  0.31617  Biso   1.000  C
  C264     1.0000 0.06873  0.44777  0.33667  Biso   1.000  C
  C265     1.0000 0.09833  0.48177  0.36257  Biso   1.000  C
  C266     1.0000 0.12243  0.56627  0.36807  Biso   1.000  C
  C267     1.0000 0.11663  0.61677  0.34757  Biso   1.000  C
  C268     1.0000 0.08693  0.58277  0.32167  Biso   1.000  C
  H170     1.0000 0.05333  0.39177  0.33297  Biso   1.000  H
  H171     1.0000 0.10233  0.44867  0.37607  Biso   1.000  H
  H172     1.0000 0.13233  0.67267  0.35127  Biso   1.000  H
  H173     1.0000 0.08333  0.61617  0.30817  Biso   1.000  H
  C269     1.0000 0.15413  0.60247  0.39567  Biso   1.000  C
  C270     1.0000 0.10713  0.56207  0.42067  Biso   1.000  C
  N35      1.0000 0.13463  0.59707  0.44535  Biso   1.000  N
  C271     1.0000 0.21303  0.67767  0.44877  Biso   1.000  C
  N36      1.0000 0.26043  0.71817  0.42407  Biso   1.000  N
  C272     1.0000 0.23293  0.68327  0.39937  Biso   1.000  C
  H174     1.0000 0.26413  0.71037  0.38387  Biso   1.000  H
  H175     1.0000 0.23063  0.70067  0.46597  Biso   1.000  H
  H176     1.0000 0.05683  0.51087  0.41967  Biso   1.000  H
  C273     1.0000 0.03173  0.44637  0.33927  Biso   1.000  C
  C274     1.0000 0.06133  0.48037  0.36517  Biso   1.000  C
  C275     1.0000 0.15373  0.61807  0.34497  Biso   1.000  C
  C276     1.0000 0.12393  0.58407  0.31907  Biso   1.000  C
  H177     1.0000 0.99133  0.38957  0.33737  Biso   1.000  H
  H178     1.0000 0.04033  0.44567  0.38047  Biso   1.000  H
  H179     1.0000 0.19433  0.67487  0.34687  Biso   1.000  H
  H180     1.0000 0.14433  0.61837  0.30377  Biso   1.000  H
  Cu13     1.0000 0.05360  0.54890  0.47830  Biso   1.000  Cu
  C277     1.0000 0.08420  0.45670  0.52840  Biso   1.000  C
  O61      1.0000 0.10500  0.48200  0.50300  Biso   1.000  O
  O62      1.0000 0.01280  0.44600  0.53860  Biso   1.000  O
  C278     1.0000 0.17160  0.36700  0.57860  Biso   1.000  C
  C279     1.0000 0.24700  0.38600  0.56580  Biso   1.000  C
  H181     1.0000 0.28700  0.37800  0.57500  Biso   1.000  H
  C280     1.0000 0.26400  0.41800  0.53910  Biso   1.000  C
  C281     1.0000 0.20400  0.43000  0.52520  Biso   1.000  C
  H182     1.0000 0.21400  0.45100  0.50760  Biso   1.000  H
  C282     1.0000 0.12710  0.41030  0.53800  Biso   1.000  C
  C283     1.0000 0.11110  0.37890  0.56470  Biso   1.000  C
  H183     1.0000 0.06100  0.36600  0.57320  Biso   1.000  H
  C284     1.0000 0.34510  0.45900  0.52230  Biso   1.000  C
  O63      1.0000 0.35030  0.47500  0.49600  Biso   1.000  O
  O64      1.0000 0.39230  0.43100  0.53330  Biso   1.000  O
  N37      1.0000 0.15950  0.31970  0.60300  Biso   1.000  N
  C285     1.0000 0.09700  0.30300  0.62080  Biso   1.000  C
  O65      1.0000 0.06000  0.34400  0.62170  Biso   1.000  O
  H184     1.0000 0.19310  0.30000  0.60750  Biso   1.000  H
  C286     1.0000 0.10200  0.27040  0.64950  Biso   1.000  C
  C287     1.0000 0.04570  0.26460  0.67000  Biso   1.000  C
  C288     1.0000 0.05010  0.23500  0.69590  Biso   1.000  C
  C289     1.0000 0.11050  0.21090  0.70140  Biso   1.000  C
  C290     1.0000 0.16680  0.21670  0.68090  Biso   1.000  C
  C291     1.0000 0.16250  0.24640  0.65500  Biso   1.000  C
  H185     1.0000 0.00510  0.28000  0.66630  Biso   1.000  H
  H186     1.0000 0.01300  0.23100  0.70940  Biso   1.000  H
  H187     1.0000 0.20700  0.20100  0.68460  Biso   1.000  H
  H188     1.0000 0.19950  0.25000  0.64150  Biso   1.000  H
  C292     1.0000 0.11500  0.17920  0.72900  Biso   1.000  C
  C293     1.0000 0.12160  0.22620  0.75400  Biso   1.000  C
  N38      1.0000 0.12910  0.19870  0.77868  Biso   1.000  N
  C294     1.0000 0.13130  0.12030  0.78210  Biso   1.000  C
  N39      1.0000 0.12440  0.07290  0.75740  Biso   1.000  N
  C295     1.0000 0.11700  0.10040  0.73270  Biso   1.000  C
  H189     1.0000 0.11290  0.06920  0.71720  Biso   1.000  H
  H190     1.0000 0.13670  0.10270  0.79930  Biso   1.000  H
  H191     1.0000 0.12070  0.27650  0.75300  Biso   1.000  H
  C296     1.0000 0.08130  0.30160  0.67260  Biso   1.000  C
  C297     1.0000 0.08570  0.27200  0.69850  Biso   1.000  C
  C298     1.0000 0.13100  0.17960  0.67830  Biso   1.000  C
  C299     1.0000 0.12680  0.20940  0.65240  Biso   1.000  C
  H192     1.0000 0.06490  0.34200  0.67070  Biso   1.000  H
  H193     1.0000 0.07200  0.29300  0.71380  Biso   1.000  H
  H194     1.0000 0.14720  0.13900  0.68020  Biso   1.000  H
  H195     1.0000 0.14070  0.18900  0.63710  Biso   1.000  H
  Cu14     1.0000 0.72027  0.88223  0.81163  Biso   1.000  Cu
  C300     1.0000 0.75087  0.79003  0.86173  Biso   1.000  C
  O66      1.0000 0.77167  0.81533  0.83633  Biso   1.000  O
  O67      1.0000 0.67947  0.77933  0.87193  Biso   1.000  O
  C301     1.0000 0.83827  0.70033  0.91193  Biso   1.000  C
  C302     1.0000 0.91367  0.71933  0.89913  Biso   1.000  C
  H196     1.0000 0.95367  0.71133  0.90833  Biso   1.000  H
  C303     1.0000 0.93067  0.75133  0.87243  Biso   1.000  C
  C304     1.0000 0.87067  0.76333  0.85853  Biso   1.000  C
  H197     1.0000 0.88067  0.78433  0.84093  Biso   1.000  H
  C305     1.0000 0.79377  0.74363  0.87133  Biso   1.000  C
  C306     1.0000 0.77777  0.71223  0.89803  Biso   1.000  C
  H198     1.0000 0.72767  0.69933  0.90653  Biso   1.000  H
  C307     1.0000 0.01177  0.79233  0.85563  Biso   1.000  C
  O68      1.0000 0.01697  0.80833  0.82933  Biso   1.000  O
  O69      1.0000 0.05897  0.76433  0.86663  Biso   1.000  O
  N40      1.0000 0.82617  0.65303  0.93633  Biso   1.000  N
  C308     1.0000 0.76367  0.63633  0.95413  Biso   1.000  C
  O70      1.0000 0.72667  0.67733  0.95503  Biso   1.000  O
  H199     1.0000 0.85977  0.63333  0.94083  Biso   1.000  H
  C309     1.0000 0.76867  0.60373  0.98283  Biso   1.000  C
  C310     1.0000 0.71237  0.59793  0.00333  Biso   1.000  C
  C311     1.0000 0.71677  0.56833  0.02923  Biso   1.000  C
  C312     1.0000 0.77717  0.54423  0.03473  Biso   1.000  C
  C313     1.0000 0.83347  0.55003  0.01423  Biso   1.000  C
  C314     1.0000 0.82917  0.57973  0.98833  Biso   1.000  C
  H200     1.0000 0.67177  0.61333  0.99963  Biso   1.000  H
  H201     1.0000 0.67967  0.56433  0.04273  Biso   1.000  H
  H202     1.0000 0.87367  0.53433  0.01793  Biso   1.000  H
  H203     1.0000 0.86617  0.58333  0.97483  Biso   1.000  H
  C315     1.0000 0.78167  0.51253  0.06233  Biso   1.000  C
  C316     1.0000 0.78827  0.55953  0.08733  Biso   1.000  C
  N41      1.0000 0.79577  0.53203  0.11201  Biso   1.000  N
  C317     1.0000 0.79797  0.45363  0.11543  Biso   1.000  C
  N42      1.0000 0.79107  0.40623  0.09073  Biso   1.000  N
  C318     1.0000 0.78367  0.43373  0.06603  Biso   1.000  C
  H204     1.0000 0.77957  0.40253  0.05053  Biso   1.000  H
  H205     1.0000 0.80337  0.43603  0.13263  Biso   1.000  H
  H206     1.0000 0.78737  0.60983  0.08633  Biso   1.000  H
  C319     1.0000 0.74797  0.63493  0.00593  Biso   1.000  C
  C320     1.0000 0.75237  0.60533  0.03183  Biso   1.000  C
  C321     1.0000 0.79767  0.51293  0.01163  Biso   1.000  C
  C322     1.0000 0.79347  0.54273  0.98573  Biso   1.000  C
  H207     1.0000 0.73157  0.67533  0.00403  Biso   1.000  H
  H208     1.0000 0.73867  0.62633  0.04713  Biso   1.000  H
  H209     1.0000 0.81387  0.47233  0.01353  Biso   1.000  H
  H210     1.0000 0.80737  0.52233  0.97043  Biso   1.000  H
  Cu15     1.0000 0.38693  0.21557  0.14497  Biso   1.000  Cu
  C323     1.0000 0.41753  0.12337  0.19507  Biso   1.000  C
  O71      1.0000 0.43833  0.14867  0.16967  Biso   1.000  O
  O72      1.0000 0.34613  0.11267  0.20527  Biso   1.000  O
  C324     1.0000 0.50493  0.03367  0.24527  Biso   1.000  C
  C325     1.0000 0.58033  0.05267  0.23247  Biso   1.000  C
  H211     1.0000 0.62033  0.04467  0.24167  Biso   1.000  H
  C326     1.0000 0.59733  0.08467  0.20577  Biso   1.000  C
  C327     1.0000 0.53733  0.09667  0.19187  Biso   1.000  C
  H212     1.0000 0.54733  0.11767  0.17427  Biso   1.000  H
  C328     1.0000 0.46043  0.07697  0.20467  Biso   1.000  C
  C329     1.0000 0.44443  0.04557  0.23137  Biso   1.000  C
  H213     1.0000 0.39433  0.03267  0.23987  Biso   1.000  H
  C330     1.0000 0.67843  0.12567  0.18897  Biso   1.000  C
  O73      1.0000 0.68363  0.14167  0.16267  Biso   1.000  O
  O74      1.0000 0.72563  0.09767  0.19997  Biso   1.000  O
  N43      1.0000 0.49283  0.98637  0.26967  Biso   1.000  N
  C331     1.0000 0.43033  0.96967  0.28747  Biso   1.000  C
  O75      1.0000 0.39333  0.01067  0.28837  Biso   1.000  O
  H214     1.0000 0.52643  0.96667  0.27417  Biso   1.000  H
  C332     1.0000 0.43533  0.93707  0.31617  Biso   1.000  C
  C333     1.0000 0.37903  0.93127  0.33667  Biso   1.000  C
  C334     1.0000 0.38343  0.90167  0.36257  Biso   1.000  C
  C335     1.0000 0.44383  0.87757  0.36807  Biso   1.000  C
  C336     1.0000 0.50013  0.88337  0.34757  Biso   1.000  C
  C337     1.0000 0.49583  0.91307  0.32167  Biso   1.000  C
  H215     1.0000 0.33843  0.94667  0.33297  Biso   1.000  H
  H216     1.0000 0.34633  0.89767  0.37607  Biso   1.000  H
  H217     1.0000 0.54033  0.86767  0.35127  Biso   1.000  H
  H218     1.0000 0.53283  0.91667  0.30817  Biso   1.000  H
  C338     1.0000 0.44833  0.84587  0.39567  Biso   1.000  C
  C339     1.0000 0.45493  0.89287  0.42067  Biso   1.000  C
  N44      1.0000 0.46243  0.86537  0.44535  Biso   1.000  N
  C340     1.0000 0.46463  0.78697  0.44877  Biso   1.000  C
  N45      1.0000 0.45773  0.73957  0.42407  Biso   1.000  N
  C341     1.0000 0.45033  0.76707  0.39937  Biso   1.000  C
  H219     1.0000 0.44623  0.73587  0.38387  Biso   1.000  H
  H220     1.0000 0.47003  0.76937  0.46597  Biso   1.000  H
  H221     1.0000 0.45403  0.94317  0.41967  Biso   1.000  H
  C342     1.0000 0.41463  0.96827  0.33927  Biso   1.000  C
  C343     1.0000 0.41903  0.93867  0.36517  Biso   1.000  C
  C344     1.0000 0.46433  0.84627  0.34497  Biso   1.000  C
  C345     1.0000 0.46013  0.87607  0.31907  Biso   1.000  C
  H222     1.0000 0.39823  0.00867  0.33737  Biso   1.000  H
  H223     1.0000 0.40533  0.95967  0.38047  Biso   1.000  H
  H224     1.0000 0.48053  0.80567  0.34687  Biso   1.000  H
  H225     1.0000 0.47403  0.85567  0.30377  Biso   1.000  H
  Cu16     1.0000 0.49530  0.94640  0.47830  Biso   1.000  Cu
  C346     1.0000 0.37250  0.91580  0.52840  Biso   1.000  C
  O76      1.0000 0.37700  0.89500  0.50300  Biso   1.000  O
  O77      1.0000 0.43320  0.98720  0.53860  Biso   1.000  O
  C347     1.0000 0.19540  0.82840  0.57860  Biso   1.000  C
  C348     1.0000 0.13900  0.75300  0.56580  Biso   1.000  C
  H226     1.0000 0.09100  0.71300  0.57500  Biso   1.000  H
  C349     1.0000 0.15400  0.73600  0.53910  Biso   1.000  C
  C350     1.0000 0.22600  0.79600  0.52520  Biso   1.000  C
  H227     1.0000 0.23700  0.78600  0.50760  Biso   1.000  H
  C351     1.0000 0.28320  0.87290  0.53800  Biso   1.000  C
  C352     1.0000 0.26780  0.88890  0.56470  Biso   1.000  C
  H228     1.0000 0.30500  0.93900  0.57320  Biso   1.000  H
  C353     1.0000 0.11390  0.65490  0.52230  Biso   1.000  C
  O78      1.0000 0.12470  0.64970  0.49600  Biso   1.000  O
  O79      1.0000 0.03870  0.60770  0.53330  Biso   1.000  O
  N46      1.0000 0.16020  0.84050  0.60300  Biso   1.000  N
  C354     1.0000 0.20600  0.90300  0.62080  Biso   1.000  C
  O80      1.0000 0.28400  0.94000  0.62170  Biso   1.000  O
  H229     1.0000 0.10690  0.80690  0.60750  Biso   1.000  H
  C355     1.0000 0.16840  0.89800  0.64950  Biso   1.000  C
  C356     1.0000 0.21890  0.95430  0.67000  Biso   1.000  C
  C357     1.0000 0.18490  0.94990  0.69590  Biso   1.000  C
  C358     1.0000 0.10040  0.88950  0.70140  Biso   1.000  C
  C359     1.0000 0.04990  0.83320  0.68090  Biso   1.000  C
  C360     1.0000 0.08390  0.83750  0.65500  Biso   1.000  C
  H230     1.0000 0.27490  0.99490  0.66630  Biso   1.000  H
  H231     1.0000 0.21800  0.98700  0.70940  Biso   1.000  H
  H232     1.0000 0.99400  0.79300  0.68460  Biso   1.000  H
  H233     1.0000 0.05050  0.80050  0.64150  Biso   1.000  H
  C361     1.0000 0.06420  0.88500  0.72900  Biso   1.000  C
  C362     1.0000 0.10460  0.87840  0.75400  Biso   1.000  C
  N47      1.0000 0.06960  0.87090  0.77868  Biso   1.000  N
  C363     1.0000 0.98900  0.86870  0.78210  Biso   1.000  C
  N48      1.0000 0.94850  0.87560  0.75740  Biso   1.000  N
  C364     1.0000 0.98340  0.88300  0.73270  Biso   1.000  C
  H234     1.0000 0.95630  0.88710  0.71720  Biso   1.000  H
  H235     1.0000 0.96600  0.86330  0.79930  Biso   1.000  H
  H236     1.0000 0.15580  0.87930  0.75300  Biso   1.000  H
  C365     1.0000 0.22030  0.91870  0.67260  Biso   1.000  C
  C366     1.0000 0.18630  0.91430  0.69850  Biso   1.000  C
  C367     1.0000 0.04860  0.86900  0.67830  Biso   1.000  C
  C368     1.0000 0.08260  0.87320  0.65240  Biso   1.000  C
  H237     1.0000 0.27710  0.93510  0.67070  Biso   1.000  H
  H238     1.0000 0.22100  0.92800  0.71380  Biso   1.000  H
  H239     1.0000 0.99180  0.85280  0.68020  Biso   1.000  H
  H240     1.0000 0.04830  0.85930  0.63710  Biso   1.000  H
  Cu17     1.0000 0.16197  0.27973  0.81163  Biso   1.000  Cu
  C369     1.0000 0.03917  0.24913  0.86173  Biso   1.000  C
  O81      1.0000 0.04367  0.22833  0.83633  Biso   1.000  O
  O82      1.0000 0.09987  0.32053  0.87193  Biso   1.000  O
  C370     1.0000 0.86207  0.16173  0.91193  Biso   1.000  C
  C371     1.0000 0.80567  0.08633  0.89913  Biso   1.000  C
  H241     1.0000 0.75767  0.04633  0.90833  Biso   1.000  H
  C372     1.0000 0.82067  0.06933  0.87243  Biso   1.000  C
  C373     1.0000 0.89267  0.12933  0.85853  Biso   1.000  C
  H242     1.0000 0.90367  0.11933  0.84093  Biso   1.000  H
  C374     1.0000 0.94987  0.20623  0.87133  Biso   1.000  C
  C375     1.0000 0.93447  0.22223  0.89803  Biso   1.000  C
  H243     1.0000 0.97167  0.27233  0.90653  Biso   1.000  H
  C376     1.0000 0.78057  0.98823  0.85563  Biso   1.000  C
  O83      1.0000 0.79137  0.98303  0.82933  Biso   1.000  O
  O84      1.0000 0.70537  0.94103  0.86663  Biso   1.000  O
  N49      1.0000 0.82687  0.17383  0.93633  Biso   1.000  N
  C377     1.0000 0.87267  0.23633  0.95413  Biso   1.000  C
  O85      1.0000 0.95067  0.27333  0.95503  Biso   1.000  O
  H244     1.0000 0.77357  0.14023  0.94083  Biso   1.000  H
  C378     1.0000 0.83507  0.23133  0.98283  Biso   1.000  C
  C379     1.0000 0.88557  0.28763  0.00333  Biso   1.000  C
  C380     1.0000 0.85157  0.28323  0.02923  Biso   1.000  C
  C381     1.0000 0.76707  0.22283  0.03473  Biso   1.000  C
  C382     1.0000 0.71657  0.16653  0.01423  Biso   1.000  C
  C383     1.0000 0.75057  0.17083  0.98833  Biso   1.000  C
  H245     1.0000 0.94157  0.32823  0.99963  Biso   1.000  H
  H246     1.0000 0.88467  0.32033  0.04273  Biso   1.000  H
  H247     1.0000 0.66067  0.12633  0.01793  Biso   1.000  H
  H248     1.0000 0.71717  0.13383  0.97483  Biso   1.000  H
  C384     1.0000 0.73087  0.21833  0.06233  Biso   1.000  C
  C385     1.0000 0.77127  0.21173  0.08733  Biso   1.000  C
  N50      1.0000 0.73627  0.20423  0.11201  Biso   1.000  N
  C386     1.0000 0.65567  0.20203  0.11543  Biso   1.000  C
  N51      1.0000 0.61517  0.20893  0.09073  Biso   1.000  N
  C387     1.0000 0.65007  0.21633  0.06603  Biso   1.000  C
  H249     1.0000 0.62297  0.22043  0.05053  Biso   1.000  H
  H250     1.0000 0.63267  0.19663  0.13263  Biso   1.000  H
  H251     1.0000 0.82247  0.21263  0.08633  Biso   1.000  H
  C388     1.0000 0.88697  0.25203  0.00593  Biso   1.000  C
  C389     1.0000 0.85297  0.24763  0.03183  Biso   1.000  C
  C390     1.0000 0.71527  0.20233  0.01163  Biso   1.000  C
  C391     1.0000 0.74927  0.20653  0.98573  Biso   1.000  C
  H252     1.0000 0.94377  0.26843  0.00403  Biso   1.000  H
  H253     1.0000 0.88767  0.26133  0.04713  Biso   1.000  H
  H254     1.0000 0.65847  0.18613  0.01353  Biso   1.000  H
  H255     1.0000 0.71497  0.19263  0.97043  Biso   1.000  H
  Cu18     1.0000 0.82863  0.61307  0.14497  Biso   1.000  Cu
  C392     1.0000 0.70583  0.58247  0.19507  Biso   1.000  C
  O86      1.0000 0.71033  0.56167  0.16967  Biso   1.000  O
  O87      1.0000 0.76653  0.65387  0.20527  Biso   1.000  O
  C393     1.0000 0.52873  0.49507  0.24527  Biso   1.000  C
  C394     1.0000 0.47233  0.41967  0.23247  Biso   1.000  C
  H256     1.0000 0.42433  0.37967  0.24167  Biso   1.000  H
  C395     1.0000 0.48733  0.40267  0.20577  Biso   1.000  C
  C396     1.0000 0.55933  0.46267  0.19187  Biso   1.000  C
  H257     1.0000 0.57033  0.45267  0.17427  Biso   1.000  H
  C397     1.0000 0.61653  0.53957  0.20467  Biso   1.000  C
  C398     1.0000 0.60113  0.55557  0.23137  Biso   1.000  C
  H258     1.0000 0.63833  0.60567  0.23987  Biso   1.000  H
  C399     1.0000 0.44723  0.32157  0.18897  Biso   1.000  C
  O88      1.0000 0.45803  0.31637  0.16267  Biso   1.000  O
  O89      1.0000 0.37203  0.27437  0.19997  Biso   1.000  O
  N52      1.0000 0.49353  0.50717  0.26967  Biso   1.000  N
  C400     1.0000 0.53933  0.56967  0.28747  Biso   1.000  C
  O90      1.0000 0.61733  0.60667  0.28837  Biso   1.000  O
  H259     1.0000 0.44023  0.47357  0.27417  Biso   1.000  H
  C401     1.0000 0.50173  0.56467  0.31617  Biso   1.000  C
  C402     1.0000 0.55223  0.62097  0.33667  Biso   1.000  C
  C403     1.0000 0.51823  0.61657  0.36257  Biso   1.000  C
  C404     1.0000 0.43373  0.55617  0.36807  Biso   1.000  C
  C405     1.0000 0.38323  0.49987  0.34757  Biso   1.000  C
  C406     1.0000 0.41723  0.50417  0.32167  Biso   1.000  C
  H260     1.0000 0.60823  0.66157  0.33297  Biso   1.000  H
  H261     1.0000 0.55133  0.65367  0.37607  Biso   1.000  H
  H262     1.0000 0.32733  0.45967  0.35127  Biso   1.000  H
  H263     1.0000 0.38383  0.46717  0.30817  Biso   1.000  H
  C407     1.0000 0.39753  0.55167  0.39567  Biso   1.000  C
  C408     1.0000 0.43793  0.54507  0.42067  Biso   1.000  C
  N53      1.0000 0.40293  0.53757  0.44535  Biso   1.000  N
  C409     1.0000 0.32233  0.53537  0.44877  Biso   1.000  C
  N54      1.0000 0.28183  0.54227  0.42407  Biso   1.000  N
  C410     1.0000 0.31673  0.54967  0.39937  Biso   1.000  C
  H264     1.0000 0.28963  0.55377  0.38387  Biso   1.000  H
  H265     1.0000 0.29933  0.52997  0.46597  Biso   1.000  H
  H266     1.0000 0.48913  0.54597  0.41967  Biso   1.000  H
  C411     1.0000 0.55363  0.58537  0.33927  Biso   1.000  C
  C412     1.0000 0.51963  0.58097  0.36517  Biso   1.000  C
  C413     1.0000 0.38193  0.53567  0.34497  Biso   1.000  C
  C414     1.0000 0.41593  0.53987  0.31907  Biso   1.000  C
  H267     1.0000 0.61043  0.60177  0.33737  Biso   1.000  H
  H268     1.0000 0.55433  0.59467  0.38047  Biso   1.000  H
  H269     1.0000 0.32513  0.51947  0.34687  Biso   1.000  H
  H270     1.0000 0.38163  0.52597  0.30377  Biso   1.000  H
