data_image0
_cell_length_a       19.504
_cell_length_b       19.504
_cell_length_c       37.93
_cell_angle_alpha    90
_cell_angle_beta     90
_cell_angle_gamma    120

_symmetry_space_group_name_H-M    "P 1"
_symmetry_int_tables_number       1

loop_
  _symmetry_equiv_pos_as_xyz
  'x, y, z'

loop_
  _atom_site_label
  _atom_site_occupancy
  _atom_site_fract_x
  _atom_site_fract_y
  _atom_site_fract_z
  _atom_site_thermal_displace_type
  _atom_site_B_iso_or_equiv
  _atom_site_type_symbol
  O1       1.0000 0.00470  0.61080  0.79620  Biso   1.000  O
  O2       1.0000 0.07190  0.66260  0.78900  Biso   1.000  O
  O3       1.0000 0.11551  0.48472  0.98612  Biso   1.000  O
  O4       1.0000 0.95652  0.40516  0.96445  Biso   1.000  O
  H1       1.0000 0.12530  0.79210  0.12460  Biso   1.000  H
  C1       1.0000 0.93730  0.40760  0.73259  Biso   1.000  C
  H2       1.0000 0.94960  0.37160  0.74380  Biso   1.000  H
  C2       1.0000 0.90020  0.38870  0.69984  Biso   1.000  C
  C3       1.0000 0.01110  0.55440  0.80410  Biso   1.000  C
  C4       1.0000 0.03990  0.47470  0.89140  Biso   1.000  C
  H3       1.0000 0.03860  0.42830  0.90000  Biso   1.000  H
  C5       1.0000 0.02170  0.47580  0.85600  Biso   1.000  C
  H4       1.0000 0.00240  0.42960  0.84190  Biso   1.000  H
  C6       1.0000 0.03240  0.54650  0.84200  Biso   1.000  C
  C7       1.0000 0.04900  0.44200  0.86380  Biso   1.000  C
  H5       1.0000 0.05020  0.39690  0.85530  Biso   1.000  H
  C8       1.0000 0.06420  0.60120  0.89880  Biso   1.000  C
  H6       1.0000 0.07910  0.64500  0.91410  Biso   1.000  H
  C9       1.0000 0.10040  0.45720  0.01691  Biso   1.000  C
  O5       1.0000 0.67137  0.94413  0.12953  Biso   1.000  O
  O6       1.0000 0.73857  0.99593  0.12233  Biso   1.000  O
  O7       1.0000 0.78218  0.81805  0.31945  Biso   1.000  O
  O8       1.0000 0.62319  0.73849  0.29778  Biso   1.000  O
  H7       1.0000 0.79197  0.12543  0.45793  Biso   1.000  H
  C10      1.0000 0.60397  0.74093  0.06592  Biso   1.000  C
  H8       1.0000 0.61627  0.70493  0.07713  Biso   1.000  H
  C11      1.0000 0.56687  0.72203  0.03317  Biso   1.000  C
  C12      1.0000 0.67777  0.88773  0.13743  Biso   1.000  C
  C13      1.0000 0.70657  0.80803  0.22473  Biso   1.000  C
  H9       1.0000 0.70527  0.76163  0.23333  Biso   1.000  H
  C14      1.0000 0.68837  0.80913  0.18933  Biso   1.000  C
  H10      1.0000 0.66907  0.76293  0.17523  Biso   1.000  H
  C15      1.0000 0.69907  0.87983  0.17533  Biso   1.000  C
  C16      1.0000 0.71567  0.77533  0.19713  Biso   1.000  C
  H11      1.0000 0.71687  0.73023  0.18863  Biso   1.000  H
  C17      1.0000 0.73087  0.93453  0.23213  Biso   1.000  C
  H12      1.0000 0.74577  0.97833  0.24743  Biso   1.000  H
  C18      1.0000 0.76707  0.79053  0.35024  Biso   1.000  C
  O9       1.0000 0.33803  0.27747  0.46287  Biso   1.000  O
  O10      1.0000 0.40523  0.32927  0.45567  Biso   1.000  O
  O11      1.0000 0.44884  0.15139  0.65279  Biso   1.000  O
  O12      1.0000 0.28985  0.07183  0.63112  Biso   1.000  O
  H13      1.0000 0.45863  0.45877  0.79127  Biso   1.000  H
  C19      1.0000 0.27063  0.07427  0.39926  Biso   1.000  C
  H14      1.0000 0.28293  0.03827  0.41047  Biso   1.000  H
  C20      1.0000 0.23353  0.05537  0.36651  Biso   1.000  C
  C21      1.0000 0.34443  0.22107  0.47077  Biso   1.000  C
  C22      1.0000 0.37323  0.14137  0.55807  Biso   1.000  C
  H15      1.0000 0.37193  0.09497  0.56667  Biso   1.000  H
  C23      1.0000 0.35503  0.14247  0.52267  Biso   1.000  C
  H16      1.0000 0.33573  0.09627  0.50857  Biso   1.000  H
  C24      1.0000 0.36573  0.21317  0.50867  Biso   1.000  C
  C25      1.0000 0.38233  0.10867  0.53047  Biso   1.000  C
  H17      1.0000 0.38353  0.06357  0.52197  Biso   1.000  H
  C26      1.0000 0.39753  0.26787  0.56547  Biso   1.000  C
  H18      1.0000 0.41243  0.31167  0.58077  Biso   1.000  H
  C27      1.0000 0.43373  0.12387  0.68358  Biso   1.000  C
  O13      1.0000 0.38920  0.39390  0.79620  Biso   1.000  O
  O14      1.0000 0.33740  0.40930  0.78900  Biso   1.000  O
  O15      1.0000 0.51528  0.63079  0.98612  Biso   1.000  O
  O16      1.0000 0.59484  0.55136  0.96445  Biso   1.000  O
  H19      1.0000 0.20790  0.33320  0.12460  Biso   1.000  H
  C28      1.0000 0.59240  0.52970  0.73259  Biso   1.000  C
  H20      1.0000 0.62840  0.57800  0.74380  Biso   1.000  H
  C29      1.0000 0.61130  0.51150  0.69984  Biso   1.000  C
  C30      1.0000 0.44560  0.45670  0.80410  Biso   1.000  C
  C31      1.0000 0.52530  0.56520  0.89140  Biso   1.000  C
  H21      1.0000 0.57170  0.61030  0.90000  Biso   1.000  H
  C32      1.0000 0.52420  0.54590  0.85600  Biso   1.000  C
  H22      1.0000 0.57040  0.57280  0.84190  Biso   1.000  H
  C33      1.0000 0.45350  0.48590  0.84200  Biso   1.000  C
  C34      1.0000 0.55800  0.60700  0.86380  Biso   1.000  C
  H23      1.0000 0.60310  0.65330  0.85530  Biso   1.000  H
  C35      1.0000 0.39880  0.46300  0.89880  Biso   1.000  C
  H24      1.0000 0.35500  0.43410  0.91410  Biso   1.000  H
  C36      1.0000 0.54280  0.64320  0.01691  Biso   1.000  C
  O17      1.0000 0.05587  0.72723  0.12953  Biso   1.000  O
  O18      1.0000 0.00407  0.74263  0.12233  Biso   1.000  O
  O19      1.0000 0.18195  0.96412  0.31945  Biso   1.000  O
  O20      1.0000 0.26151  0.88469  0.29778  Biso   1.000  O
  H25      1.0000 0.87457  0.66653  0.45793  Biso   1.000  H
  C37      1.0000 0.25907  0.86303  0.06592  Biso   1.000  C
  H26      1.0000 0.29507  0.91133  0.07713  Biso   1.000  H
  C38      1.0000 0.27797  0.84483  0.03317  Biso   1.000  C
  C39      1.0000 0.11227  0.79003  0.13743  Biso   1.000  C
  C40      1.0000 0.19197  0.89853  0.22473  Biso   1.000  C
  H27      1.0000 0.23837  0.94363  0.23333  Biso   1.000  H
  C41      1.0000 0.19087  0.87923  0.18933  Biso   1.000  C
  H28      1.0000 0.23707  0.90613  0.17523  Biso   1.000  H
  C42      1.0000 0.12017  0.81923  0.17533  Biso   1.000  C
  C43      1.0000 0.22467  0.94033  0.19713  Biso   1.000  C
  H29      1.0000 0.26977  0.98663  0.18863  Biso   1.000  H
  C44      1.0000 0.06547  0.79633  0.23213  Biso   1.000  C
  H30      1.0000 0.02167  0.76743  0.24743  Biso   1.000  H
  C45      1.0000 0.20947  0.97653  0.35024  Biso   1.000  C
  O21      1.0000 0.72253  0.06057  0.46287  Biso   1.000  O
  O22      1.0000 0.67073  0.07597  0.45567  Biso   1.000  O
  O23      1.0000 0.84861  0.29746  0.65279  Biso   1.000  O
  O24      1.0000 0.92817  0.21803  0.63112  Biso   1.000  O
  H31      1.0000 0.54123  0.99987  0.79127  Biso   1.000  H
  C46      1.0000 0.92573  0.19637  0.39926  Biso   1.000  C
  H32      1.0000 0.96173  0.24467  0.41047  Biso   1.000  H
  C47      1.0000 0.94463  0.17817  0.36651  Biso   1.000  C
  C48      1.0000 0.77893  0.12337  0.47077  Biso   1.000  C
  C49      1.0000 0.85863  0.23187  0.55807  Biso   1.000  C
  H33      1.0000 0.90503  0.27697  0.56667  Biso   1.000  H
  C50      1.0000 0.85753  0.21257  0.52267  Biso   1.000  C
  H34      1.0000 0.90373  0.23947  0.50857  Biso   1.000  H
  C51      1.0000 0.78683  0.15257  0.50867  Biso   1.000  C
  C52      1.0000 0.89133  0.27367  0.53047  Biso   1.000  C
  H35      1.0000 0.93643  0.31997  0.52197  Biso   1.000  H
  C53      1.0000 0.73213  0.12967  0.56547  Biso   1.000  C
  H36      1.0000 0.68833  0.10077  0.58077  Biso   1.000  H
  C54      1.0000 0.87613  0.30987  0.68358  Biso   1.000  C
  O25      1.0000 0.60610  0.99530  0.79620  Biso   1.000  O
  O26      1.0000 0.59070  0.92810  0.78900  Biso   1.000  O
  O27      1.0000 0.36921  0.88449  0.98612  Biso   1.000  O
  O28      1.0000 0.44864  0.04348  0.96445  Biso   1.000  O
  H37      1.0000 0.66680  0.87470  0.12460  Biso   1.000  H
  C55      1.0000 0.47030  0.06270  0.73259  Biso   1.000  C
  H38      1.0000 0.42200  0.05040  0.74380  Biso   1.000  H
  C56      1.0000 0.48850  0.09980  0.69984  Biso   1.000  C
  C57      1.0000 0.54330  0.98890  0.80410  Biso   1.000  C
  C58      1.0000 0.43480  0.96010  0.89140  Biso   1.000  C
  H39      1.0000 0.38970  0.96140  0.90000  Biso   1.000  H
  C59      1.0000 0.45410  0.97830  0.85600  Biso   1.000  C
  H40      1.0000 0.42720  0.99760  0.84190  Biso   1.000  H
  C60      1.0000 0.51410  0.96760  0.84200  Biso   1.000  C
  C61      1.0000 0.39300  0.95100  0.86380  Biso   1.000  C
  H41      1.0000 0.34670  0.94980  0.85530  Biso   1.000  H
  C62      1.0000 0.53700  0.93580  0.89880  Biso   1.000  C
  H42      1.0000 0.56590  0.92090  0.91410  Biso   1.000  H
  C63      1.0000 0.35680  0.89960  0.01691  Biso   1.000  C
  O29      1.0000 0.27277  0.32863  0.12953  Biso   1.000  O
  O30      1.0000 0.25737  0.26143  0.12233  Biso   1.000  O
  O31      1.0000 0.03588  0.21782  0.31945  Biso   1.000  O
  O32      1.0000 0.11531  0.37681  0.29778  Biso   1.000  O
  H43      1.0000 0.33347  0.20803  0.45793  Biso   1.000  H
  C64      1.0000 0.13697  0.39603  0.06592  Biso   1.000  C
  H44      1.0000 0.08867  0.38373  0.07713  Biso   1.000  H
  C65      1.0000 0.15517  0.43313  0.03317  Biso   1.000  C
  C66      1.0000 0.20997  0.32223  0.13743  Biso   1.000  C
  C67      1.0000 0.10147  0.29343  0.22473  Biso   1.000  C
  H45      1.0000 0.05637  0.29473  0.23333  Biso   1.000  H
  C68      1.0000 0.12077  0.31163  0.18933  Biso   1.000  C
  H46      1.0000 0.09387  0.33093  0.17523  Biso   1.000  H
  C69      1.0000 0.18077  0.30093  0.17533  Biso   1.000  C
  C70      1.0000 0.05967  0.28433  0.19713  Biso   1.000  C
  H47      1.0000 0.01337  0.28313  0.18863  Biso   1.000  H
  C71      1.0000 0.20367  0.26913  0.23213  Biso   1.000  C
  H48      1.0000 0.23257  0.25423  0.24743  Biso   1.000  H
  C72      1.0000 0.02347  0.23293  0.35024  Biso   1.000  C
  O33      1.0000 0.93943  0.66197  0.46287  Biso   1.000  O
  O34      1.0000 0.92403  0.59477  0.45567  Biso   1.000  O
  O35      1.0000 0.70254  0.55116  0.65279  Biso   1.000  O
  O36      1.0000 0.78197  0.71015  0.63112  Biso   1.000  O
  H49      1.0000 0.00013  0.54137  0.79127  Biso   1.000  H
  C73      1.0000 0.80363  0.72937  0.39926  Biso   1.000  C
  H50      1.0000 0.75533  0.71707  0.41047  Biso   1.000  H
  C74      1.0000 0.82183  0.76647  0.36651  Biso   1.000  C
  C75      1.0000 0.87663  0.65557  0.47077  Biso   1.000  C
  C76      1.0000 0.76813  0.62677  0.55807  Biso   1.000  C
  H51      1.0000 0.72303  0.62807  0.56667  Biso   1.000  H
  C77      1.0000 0.78743  0.64497  0.52267  Biso   1.000  C
  H52      1.0000 0.76053  0.66427  0.50857  Biso   1.000  H
  C78      1.0000 0.84743  0.63427  0.50867  Biso   1.000  C
  C79      1.0000 0.72633  0.61767  0.53047  Biso   1.000  C
  H53      1.0000 0.68003  0.61647  0.52197  Biso   1.000  H
  C80      1.0000 0.87033  0.60247  0.56547  Biso   1.000  C
  H54      1.0000 0.89923  0.58757  0.58077  Biso   1.000  H
  C81      1.0000 0.69013  0.56627  0.68358  Biso   1.000  C
  O37      1.0000 0.61080  0.00470  0.20380  Biso   1.000  O
  O38      1.0000 0.66260  0.07190  0.21100  Biso   1.000  O
  O39      1.0000 0.48472  0.11551  0.01388  Biso   1.000  O
  O40      1.0000 0.40516  0.95652  0.03555  Biso   1.000  O
  H55      1.0000 0.79210  0.12530  0.87540  Biso   1.000  H
  C82      1.0000 0.40760  0.93730  0.26741  Biso   1.000  C
  H56      1.0000 0.37160  0.94960  0.25620  Biso   1.000  H
  C83      1.0000 0.38870  0.90020  0.30016  Biso   1.000  C
  C84      1.0000 0.55440  0.01110  0.19590  Biso   1.000  C
  C85      1.0000 0.47470  0.03990  0.10860  Biso   1.000  C
  H57      1.0000 0.42830  0.03860  0.10000  Biso   1.000  H
  C86      1.0000 0.47580  0.02170  0.14400  Biso   1.000  C
  H58      1.0000 0.42960  0.00240  0.15810  Biso   1.000  H
  C87      1.0000 0.54650  0.03240  0.15800  Biso   1.000  C
  C88      1.0000 0.44200  0.04900  0.13620  Biso   1.000  C
  H59      1.0000 0.39690  0.05020  0.14470  Biso   1.000  H
  C89      1.0000 0.60120  0.06420  0.10120  Biso   1.000  C
  H60      1.0000 0.64500  0.07910  0.08590  Biso   1.000  H
  C90      1.0000 0.45720  0.10040  0.98309  Biso   1.000  C
  O41      1.0000 0.27747  0.33803  0.53713  Biso   1.000  O
  O42      1.0000 0.32927  0.40523  0.54433  Biso   1.000  O
  O43      1.0000 0.15139  0.44884  0.34721  Biso   1.000  O
  O44      1.0000 0.07183  0.28985  0.36888  Biso   1.000  O
  H61      1.0000 0.45877  0.45863  0.20873  Biso   1.000  H
  C91      1.0000 0.07427  0.27063  0.60074  Biso   1.000  C
  H62      1.0000 0.03827  0.28293  0.58953  Biso   1.000  H
  C92      1.0000 0.05537  0.23353  0.63349  Biso   1.000  C
  C93      1.0000 0.22107  0.34443  0.52923  Biso   1.000  C
  C94      1.0000 0.14137  0.37323  0.44193  Biso   1.000  C
  H63      1.0000 0.09497  0.37193  0.43333  Biso   1.000  H
  C95      1.0000 0.14247  0.35503  0.47733  Biso   1.000  C
  H64      1.0000 0.09627  0.33573  0.49143  Biso   1.000  H
  C96      1.0000 0.21317  0.36573  0.49133  Biso   1.000  C
  C97      1.0000 0.10867  0.38233  0.46953  Biso   1.000  C
  H65      1.0000 0.06357  0.38353  0.47803  Biso   1.000  H
  C98      1.0000 0.26787  0.39753  0.43453  Biso   1.000  C
  H66      1.0000 0.31167  0.41243  0.41923  Biso   1.000  H
  C99      1.0000 0.12387  0.43373  0.31642  Biso   1.000  C
  O45      1.0000 0.94413  0.67137  0.87047  Biso   1.000  O
  O46      1.0000 0.99593  0.73857  0.87767  Biso   1.000  O
  O47      1.0000 0.81805  0.78218  0.68055  Biso   1.000  O
  O48      1.0000 0.73849  0.62319  0.70222  Biso   1.000  O
  H67      1.0000 0.12543  0.79197  0.54207  Biso   1.000  H
  C100     1.0000 0.74093  0.60397  0.93408  Biso   1.000  C
  H68      1.0000 0.70493  0.61627  0.92287  Biso   1.000  H
  C101     1.0000 0.72203  0.56687  0.96683  Biso   1.000  C
  C102     1.0000 0.88773  0.67777  0.86257  Biso   1.000  C
  C103     1.0000 0.80803  0.70657  0.77527  Biso   1.000  C
  H69      1.0000 0.76163  0.70527  0.76667  Biso   1.000  H
  C104     1.0000 0.80913  0.68837  0.81067  Biso   1.000  C
  H70      1.0000 0.76293  0.66907  0.82477  Biso   1.000  H
  C105     1.0000 0.87983  0.69907  0.82467  Biso   1.000  C
  C106     1.0000 0.77533  0.71567  0.80287  Biso   1.000  C
  H71      1.0000 0.73023  0.71687  0.81137  Biso   1.000  H
  C107     1.0000 0.93453  0.73087  0.76787  Biso   1.000  C
  H72      1.0000 0.97833  0.74577  0.75257  Biso   1.000  H
  C108     1.0000 0.79053  0.76707  0.64976  Biso   1.000  C
  O49      1.0000 0.39390  0.38920  0.20380  Biso   1.000  O
  O50      1.0000 0.40930  0.33740  0.21100  Biso   1.000  O
  O51      1.0000 0.63079  0.51528  0.01388  Biso   1.000  O
  O52      1.0000 0.55136  0.59484  0.03555  Biso   1.000  O
  H73      1.0000 0.33320  0.20790  0.87540  Biso   1.000  H
  C109     1.0000 0.52970  0.59240  0.26741  Biso   1.000  C
  H74      1.0000 0.57800  0.62840  0.25620  Biso   1.000  H
  C110     1.0000 0.51150  0.61130  0.30016  Biso   1.000  C
  C111     1.0000 0.45670  0.44560  0.19590  Biso   1.000  C
  C112     1.0000 0.56520  0.52530  0.10860  Biso   1.000  C
  H75      1.0000 0.61030  0.57170  0.10000  Biso   1.000  H
  C113     1.0000 0.54590  0.52420  0.14400  Biso   1.000  C
  H76      1.0000 0.57280  0.57040  0.15810  Biso   1.000  H
  C114     1.0000 0.48590  0.45350  0.15800  Biso   1.000  C
  C115     1.0000 0.60700  0.55800  0.13620  Biso   1.000  C
  H77      1.0000 0.65330  0.60310  0.14470  Biso   1.000  H
  C116     1.0000 0.46300  0.39880  0.10120  Biso   1.000  C
  H78      1.0000 0.43410  0.35500  0.08590  Biso   1.000  H
  C117     1.0000 0.64320  0.54280  0.98309  Biso   1.000  C
  O53      1.0000 0.06057  0.72253  0.53713  Biso   1.000  O
  O54      1.0000 0.07597  0.67073  0.54433  Biso   1.000  O
  O55      1.0000 0.29746  0.84861  0.34721  Biso   1.000  O
  O56      1.0000 0.21803  0.92817  0.36888  Biso   1.000  O
  H79      1.0000 0.99987  0.54123  0.20873  Biso   1.000  H
  C118     1.0000 0.19637  0.92573  0.60074  Biso   1.000  C
  H80      1.0000 0.24467  0.96173  0.58953  Biso   1.000  H
  C119     1.0000 0.17817  0.94463  0.63349  Biso   1.000  C
  C120     1.0000 0.12337  0.77893  0.52923  Biso   1.000  C
  C121     1.0000 0.23187  0.85863  0.44193  Biso   1.000  C
  H81      1.0000 0.27697  0.90503  0.43333  Biso   1.000  H
  C122     1.0000 0.21257  0.85753  0.47733  Biso   1.000  C
  H82      1.0000 0.23947  0.90373  0.49143  Biso   1.000  H
  C123     1.0000 0.15257  0.78683  0.49133  Biso   1.000  C
  C124     1.0000 0.27367  0.89133  0.46953  Biso   1.000  C
  H83      1.0000 0.31997  0.93643  0.47803  Biso   1.000  H
  C125     1.0000 0.12967  0.73213  0.43453  Biso   1.000  C
  H84      1.0000 0.10077  0.68833  0.41923  Biso   1.000  H
  C126     1.0000 0.30987  0.87613  0.31642  Biso   1.000  C
  O57      1.0000 0.72723  0.05587  0.87047  Biso   1.000  O
  O58      1.0000 0.74263  0.00407  0.87767  Biso   1.000  O
  O59      1.0000 0.96412  0.18195  0.68055  Biso   1.000  O
  O60      1.0000 0.88469  0.26151  0.70222  Biso   1.000  O
  H85      1.0000 0.66653  0.87457  0.54207  Biso   1.000  H
  C127     1.0000 0.86303  0.25907  0.93408  Biso   1.000  C
  H86      1.0000 0.91133  0.29507  0.92287  Biso   1.000  H
  C128     1.0000 0.84483  0.27797  0.96683  Biso   1.000  C
  C129     1.0000 0.79003  0.11227  0.86257  Biso   1.000  C
  C130     1.0000 0.89853  0.19197  0.77527  Biso   1.000  C
  H87      1.0000 0.94363  0.23837  0.76667  Biso   1.000  H
  C131     1.0000 0.87923  0.19087  0.81067  Biso   1.000  C
  H88      1.0000 0.90613  0.23707  0.82477  Biso   1.000  H
  C132     1.0000 0.81923  0.12017  0.82467  Biso   1.000  C
  C133     1.0000 0.94033  0.22467  0.80287  Biso   1.000  C
  H89      1.0000 0.98663  0.26977  0.81137  Biso   1.000  H
  C134     1.0000 0.79633  0.06547  0.76787  Biso   1.000  C
  H90      1.0000 0.76743  0.02167  0.75257  Biso   1.000  H
  C135     1.0000 0.97653  0.20947  0.64976  Biso   1.000  C
  O61      1.0000 0.99530  0.60610  0.20380  Biso   1.000  O
  O62      1.0000 0.92810  0.59070  0.21100  Biso   1.000  O
  O63      1.0000 0.88449  0.36921  0.01388  Biso   1.000  O
  O64      1.0000 0.04348  0.44864  0.03555  Biso   1.000  O
  H91      1.0000 0.87470  0.66680  0.87540  Biso   1.000  H
  C136     1.0000 0.06270  0.47030  0.26741  Biso   1.000  C
  H92      1.0000 0.05040  0.42200  0.25620  Biso   1.000  H
  C137     1.0000 0.09980  0.48850  0.30016  Biso   1.000  C
  C138     1.0000 0.98890  0.54330  0.19590  Biso   1.000  C
  C139     1.0000 0.96010  0.43480  0.10860  Biso   1.000  C
  H93      1.0000 0.96140  0.38970  0.10000  Biso   1.000  H
  C140     1.0000 0.97830  0.45410  0.14400  Biso   1.000  C
  H94      1.0000 0.99760  0.42720  0.15810  Biso   1.000  H
  C141     1.0000 0.96760  0.51410  0.15800  Biso   1.000  C
  C142     1.0000 0.95100  0.39300  0.13620  Biso   1.000  C
  H95      1.0000 0.94980  0.34670  0.14470  Biso   1.000  H
  C143     1.0000 0.93580  0.53700  0.10120  Biso   1.000  C
  H96      1.0000 0.92090  0.56590  0.08590  Biso   1.000  H
  C144     1.0000 0.89960  0.35680  0.98309  Biso   1.000  C
  O65      1.0000 0.66197  0.93943  0.53713  Biso   1.000  O
  O66      1.0000 0.59477  0.92403  0.54433  Biso   1.000  O
  O67      1.0000 0.55116  0.70254  0.34721  Biso   1.000  O
  O68      1.0000 0.71015  0.78197  0.36888  Biso   1.000  O
  H97      1.0000 0.54137  0.00013  0.20873  Biso   1.000  H
  C145     1.0000 0.72937  0.80363  0.60074  Biso   1.000  C
  H98      1.0000 0.71707  0.75533  0.58953  Biso   1.000  H
  C146     1.0000 0.76647  0.82183  0.63349  Biso   1.000  C
  C147     1.0000 0.65557  0.87663  0.52923  Biso   1.000  C
  C148     1.0000 0.62677  0.76813  0.44193  Biso   1.000  C
  H99      1.0000 0.62807  0.72303  0.43333  Biso   1.000  H
  C149     1.0000 0.64497  0.78743  0.47733  Biso   1.000  C
  H100     1.0000 0.66427  0.76053  0.49143  Biso   1.000  H
  C150     1.0000 0.63427  0.84743  0.49133  Biso   1.000  C
  C151     1.0000 0.61767  0.72633  0.46953  Biso   1.000  C
  H101     1.0000 0.61647  0.68003  0.47803  Biso   1.000  H
  C152     1.0000 0.60247  0.87033  0.43453  Biso   1.000  C
  H102     1.0000 0.58757  0.89923  0.41923  Biso   1.000  H
  C153     1.0000 0.56627  0.69013  0.31642  Biso   1.000  C
  O69      1.0000 0.32863  0.27277  0.87047  Biso   1.000  O
  O70      1.0000 0.26143  0.25737  0.87767  Biso   1.000  O
  O71      1.0000 0.21782  0.03588  0.68055  Biso   1.000  O
  O72      1.0000 0.37681  0.11531  0.70222  Biso   1.000  O
  H103     1.0000 0.20803  0.33347  0.54207  Biso   1.000  H
  C154     1.0000 0.39603  0.13697  0.93408  Biso   1.000  C
  H104     1.0000 0.38373  0.08867  0.92287  Biso   1.000  H
  C155     1.0000 0.43313  0.15517  0.96683  Biso   1.000  C
  C156     1.0000 0.32223  0.20997  0.86257  Biso   1.000  C
  C157     1.0000 0.29343  0.10147  0.77527  Biso   1.000  C
  H105     1.0000 0.29473  0.05637  0.76667  Biso   1.000  H
  C158     1.0000 0.31163  0.12077  0.81067  Biso   1.000  C
  H106     1.0000 0.33093  0.09387  0.82477  Biso   1.000  H
  C159     1.0000 0.30093  0.18077  0.82467  Biso   1.000  C
  C160     1.0000 0.28433  0.05967  0.80287  Biso   1.000  C
  H107     1.0000 0.28313  0.01337  0.81137  Biso   1.000  H
  C161     1.0000 0.26913  0.20367  0.76787  Biso   1.000  C
  H108     1.0000 0.25423  0.23257  0.75257  Biso   1.000  H
  C162     1.0000 0.23293  0.02347  0.64976  Biso   1.000  C
  O73      1.0000 0.99530  0.38920  0.20380  Biso   1.000  O
  O74      1.0000 0.92810  0.33740  0.21100  Biso   1.000  O
  O75      1.0000 0.88449  0.51528  0.01388  Biso   1.000  O
  O76      1.0000 0.04348  0.59484  0.03555  Biso   1.000  O
  H109     1.0000 0.87470  0.20790  0.87540  Biso   1.000  H
  C163     1.0000 0.06270  0.59240  0.26741  Biso   1.000  C
  H110     1.0000 0.05040  0.62840  0.25620  Biso   1.000  H
  C164     1.0000 0.09980  0.61130  0.30016  Biso   1.000  C
  C165     1.0000 0.98890  0.44560  0.19590  Biso   1.000  C
  C166     1.0000 0.96010  0.52530  0.10860  Biso   1.000  C
  H111     1.0000 0.96140  0.57170  0.10000  Biso   1.000  H
  C167     1.0000 0.97830  0.52420  0.14400  Biso   1.000  C
  H112     1.0000 0.99760  0.57040  0.15810  Biso   1.000  H
  C168     1.0000 0.96760  0.45350  0.15800  Biso   1.000  C
  C169     1.0000 0.95100  0.55800  0.13620  Biso   1.000  C
  H113     1.0000 0.94980  0.60310  0.14470  Biso   1.000  H
  C170     1.0000 0.93580  0.39880  0.10120  Biso   1.000  C
  H114     1.0000 0.92090  0.35500  0.08590  Biso   1.000  H
  C171     1.0000 0.89960  0.54280  0.98309  Biso   1.000  C
  O77      1.0000 0.66197  0.72253  0.53713  Biso   1.000  O
  O78      1.0000 0.59477  0.67073  0.54433  Biso   1.000  O
  O79      1.0000 0.55116  0.84861  0.34721  Biso   1.000  O
  O80      1.0000 0.71015  0.92817  0.36888  Biso   1.000  O
  H115     1.0000 0.54137  0.54123  0.20873  Biso   1.000  H
  C172     1.0000 0.72937  0.92573  0.60074  Biso   1.000  C
  H116     1.0000 0.71707  0.96173  0.58953  Biso   1.000  H
  C173     1.0000 0.76647  0.94463  0.63349  Biso   1.000  C
  C174     1.0000 0.65557  0.77893  0.52923  Biso   1.000  C
  C175     1.0000 0.62677  0.85863  0.44193  Biso   1.000  C
  H117     1.0000 0.62807  0.90503  0.43333  Biso   1.000  H
  C176     1.0000 0.64497  0.85753  0.47733  Biso   1.000  C
  H118     1.0000 0.66427  0.90373  0.49143  Biso   1.000  H
  C177     1.0000 0.63427  0.78683  0.49133  Biso   1.000  C
  C178     1.0000 0.61767  0.89133  0.46953  Biso   1.000  C
  H119     1.0000 0.61647  0.93643  0.47803  Biso   1.000  H
  C179     1.0000 0.60247  0.73213  0.43453  Biso   1.000  C
  H120     1.0000 0.58757  0.68833  0.41923  Biso   1.000  H
  C180     1.0000 0.56627  0.87613  0.31642  Biso   1.000  C
  O81      1.0000 0.32863  0.05587  0.87047  Biso   1.000  O
  O82      1.0000 0.26143  0.00407  0.87767  Biso   1.000  O
  O83      1.0000 0.21782  0.18195  0.68055  Biso   1.000  O
  O84      1.0000 0.37681  0.26151  0.70222  Biso   1.000  O
  H121     1.0000 0.20803  0.87457  0.54207  Biso   1.000  H
  C181     1.0000 0.39603  0.25907  0.93408  Biso   1.000  C
  H122     1.0000 0.38373  0.29507  0.92287  Biso   1.000  H
  C182     1.0000 0.43313  0.27797  0.96683  Biso   1.000  C
  C183     1.0000 0.32223  0.11227  0.86257  Biso   1.000  C
  C184     1.0000 0.29343  0.19197  0.77527  Biso   1.000  C
  H123     1.0000 0.29473  0.23837  0.76667  Biso   1.000  H
  C185     1.0000 0.31163  0.19087  0.81067  Biso   1.000  C
  H124     1.0000 0.33093  0.23707  0.82477  Biso   1.000  H
  C186     1.0000 0.30093  0.12017  0.82467  Biso   1.000  C
  C187     1.0000 0.28433  0.22467  0.80287  Biso   1.000  C
  H125     1.0000 0.28313  0.26977  0.81137  Biso   1.000  H
  C188     1.0000 0.26913  0.06547  0.76787  Biso   1.000  C
  H126     1.0000 0.25423  0.02167  0.75257  Biso   1.000  H
  C189     1.0000 0.23293  0.20947  0.64976  Biso   1.000  C
  O85      1.0000 0.61080  0.60610  0.20380  Biso   1.000  O
  O86      1.0000 0.66260  0.59070  0.21100  Biso   1.000  O
  O87      1.0000 0.48472  0.36921  0.01388  Biso   1.000  O
  O88      1.0000 0.40516  0.44864  0.03555  Biso   1.000  O
  H127     1.0000 0.79210  0.66680  0.87540  Biso   1.000  H
  C190     1.0000 0.40760  0.47030  0.26741  Biso   1.000  C
  H128     1.0000 0.37160  0.42200  0.25620  Biso   1.000  H
  C191     1.0000 0.38870  0.48850  0.30016  Biso   1.000  C
  C192     1.0000 0.55440  0.54330  0.19590  Biso   1.000  C
  C193     1.0000 0.47470  0.43480  0.10860  Biso   1.000  C
  H129     1.0000 0.42830  0.38970  0.10000  Biso   1.000  H
  C194     1.0000 0.47580  0.45410  0.14400  Biso   1.000  C
  H130     1.0000 0.42960  0.42720  0.15810  Biso   1.000  H
  C195     1.0000 0.54650  0.51410  0.15800  Biso   1.000  C
  C196     1.0000 0.44200  0.39300  0.13620  Biso   1.000  C
  H131     1.0000 0.39690  0.34670  0.14470  Biso   1.000  H
  C197     1.0000 0.60120  0.53700  0.10120  Biso   1.000  C
  H132     1.0000 0.64500  0.56590  0.08590  Biso   1.000  H
  C198     1.0000 0.45720  0.35680  0.98309  Biso   1.000  C
  O89      1.0000 0.27747  0.93943  0.53713  Biso   1.000  O
  O90      1.0000 0.32927  0.92403  0.54433  Biso   1.000  O
  O91      1.0000 0.15139  0.70254  0.34721  Biso   1.000  O
  O92      1.0000 0.07183  0.78197  0.36888  Biso   1.000  O
  H133     1.0000 0.45877  0.00013  0.20873  Biso   1.000  H
  C199     1.0000 0.07427  0.80363  0.60074  Biso   1.000  C
  H134     1.0000 0.03827  0.75533  0.58953  Biso   1.000  H
  C200     1.0000 0.05537  0.82183  0.63349  Biso   1.000  C
  C201     1.0000 0.22107  0.87663  0.52923  Biso   1.000  C
  C202     1.0000 0.14137  0.76813  0.44193  Biso   1.000  C
  H135     1.0000 0.09497  0.72303  0.43333  Biso   1.000  H
  C203     1.0000 0.14247  0.78743  0.47733  Biso   1.000  C
  H136     1.0000 0.09627  0.76053  0.49143  Biso   1.000  H
  C204     1.0000 0.21317  0.84743  0.49133  Biso   1.000  C
  C205     1.0000 0.10867  0.72633  0.46953  Biso   1.000  C
  H137     1.0000 0.06357  0.68003  0.47803  Biso   1.000  H
  C206     1.0000 0.26787  0.87033  0.43453  Biso   1.000  C
  H138     1.0000 0.31167  0.89923  0.41923  Biso   1.000  H
  C207     1.0000 0.12387  0.69013  0.31642  Biso   1.000  C
  O93      1.0000 0.94413  0.27277  0.87047  Biso   1.000  O
  O94      1.0000 0.99593  0.25737  0.87767  Biso   1.000  O
  O95      1.0000 0.81805  0.03588  0.68055  Biso   1.000  O
  O96      1.0000 0.73849  0.11531  0.70222  Biso   1.000  O
  H139     1.0000 0.12543  0.33347  0.54207  Biso   1.000  H
  C208     1.0000 0.74093  0.13697  0.93408  Biso   1.000  C
  H140     1.0000 0.70493  0.08867  0.92287  Biso   1.000  H
  C209     1.0000 0.72203  0.15517  0.96683  Biso   1.000  C
  C210     1.0000 0.88773  0.20997  0.86257  Biso   1.000  C
  C211     1.0000 0.80803  0.10147  0.77527  Biso   1.000  C
  H141     1.0000 0.76163  0.05637  0.76667  Biso   1.000  H
  C212     1.0000 0.80913  0.12077  0.81067  Biso   1.000  C
  H142     1.0000 0.76293  0.09387  0.82477  Biso   1.000  H
  C213     1.0000 0.87983  0.18077  0.82467  Biso   1.000  C
  C214     1.0000 0.77533  0.05967  0.80287  Biso   1.000  C
  H143     1.0000 0.73023  0.01337  0.81137  Biso   1.000  H
  C215     1.0000 0.93453  0.20367  0.76787  Biso   1.000  C
  H144     1.0000 0.97833  0.23257  0.75257  Biso   1.000  H
  C216     1.0000 0.79053  0.02347  0.64976  Biso   1.000  C
  O97      1.0000 0.39390  0.00470  0.20380  Biso   1.000  O
  O98      1.0000 0.40930  0.07190  0.21100  Biso   1.000  O
  O99      1.0000 0.63079  0.11551  0.01388  Biso   1.000  O
  O100     1.0000 0.55136  0.95652  0.03555  Biso   1.000  O
  H145     1.0000 0.33320  0.12530  0.87540  Biso   1.000  H
  C217     1.0000 0.52970  0.93730  0.26741  Biso   1.000  C
  H146     1.0000 0.57800  0.94960  0.25620  Biso   1.000  H
  C218     1.0000 0.51150  0.90020  0.30016  Biso   1.000  C
  C219     1.0000 0.45670  0.01110  0.19590  Biso   1.000  C
  C220     1.0000 0.56520  0.03990  0.10860  Biso   1.000  C
  H147     1.0000 0.61030  0.03860  0.10000  Biso   1.000  H
  C221     1.0000 0.54590  0.02170  0.14400  Biso   1.000  C
  H148     1.0000 0.57280  0.00240  0.15810  Biso   1.000  H
  C222     1.0000 0.48590  0.03240  0.15800  Biso   1.000  C
  C223     1.0000 0.60700  0.04900  0.13620  Biso   1.000  C
  H149     1.0000 0.65330  0.05020  0.14470  Biso   1.000  H
  C224     1.0000 0.46300  0.06420  0.10120  Biso   1.000  C
  H150     1.0000 0.43410  0.07910  0.08590  Biso   1.000  H
  C225     1.0000 0.64320  0.10040  0.98309  Biso   1.000  C
  O101     1.0000 0.06057  0.33803  0.53713  Biso   1.000  O
  O102     1.0000 0.07597  0.40523  0.54433  Biso   1.000  O
  O103     1.0000 0.29746  0.44884  0.34721  Biso   1.000  O
  O104     1.0000 0.21803  0.28985  0.36888  Biso   1.000  O
  H151     1.0000 0.99987  0.45863  0.20873  Biso   1.000  H
  C226     1.0000 0.19637  0.27063  0.60074  Biso   1.000  C
  H152     1.0000 0.24467  0.28293  0.58953  Biso   1.000  H
  C227     1.0000 0.17817  0.23353  0.63349  Biso   1.000  C
  C228     1.0000 0.12337  0.34443  0.52923  Biso   1.000  C
  C229     1.0000 0.23187  0.37323  0.44193  Biso   1.000  C
  H153     1.0000 0.27697  0.37193  0.43333  Biso   1.000  H
  C230     1.0000 0.21257  0.35503  0.47733  Biso   1.000  C
  H154     1.0000 0.23947  0.33573  0.49143  Biso   1.000  H
  C231     1.0000 0.15257  0.36573  0.49133  Biso   1.000  C
  C232     1.0000 0.27367  0.38233  0.46953  Biso   1.000  C
  H155     1.0000 0.31997  0.38353  0.47803  Biso   1.000  H
  C233     1.0000 0.12967  0.39753  0.43453  Biso   1.000  C
  H156     1.0000 0.10077  0.41243  0.41923  Biso   1.000  H
  C234     1.0000 0.30987  0.43373  0.31642  Biso   1.000  C
  O105     1.0000 0.72723  0.67137  0.87047  Biso   1.000  O
  O106     1.0000 0.74263  0.73857  0.87767  Biso   1.000  O
  O107     1.0000 0.96412  0.78218  0.68055  Biso   1.000  O
  O108     1.0000 0.88469  0.62319  0.70222  Biso   1.000  O
  H157     1.0000 0.66653  0.79197  0.54207  Biso   1.000  H
  C235     1.0000 0.86303  0.60397  0.93408  Biso   1.000  C
  H158     1.0000 0.91133  0.61627  0.92287  Biso   1.000  H
  C236     1.0000 0.84483  0.56687  0.96683  Biso   1.000  C
  C237     1.0000 0.79003  0.67777  0.86257  Biso   1.000  C
  C238     1.0000 0.89853  0.70657  0.77527  Biso   1.000  C
  H159     1.0000 0.94363  0.70527  0.76667  Biso   1.000  H
  C239     1.0000 0.87923  0.68837  0.81067  Biso   1.000  C
  H160     1.0000 0.90613  0.66907  0.82477  Biso   1.000  H
  C240     1.0000 0.81923  0.69907  0.82467  Biso   1.000  C
  C241     1.0000 0.94033  0.71567  0.80287  Biso   1.000  C
  H161     1.0000 0.98663  0.71687  0.81137  Biso   1.000  H
  C242     1.0000 0.79633  0.73087  0.76787  Biso   1.000  C
  H162     1.0000 0.76743  0.74577  0.75257  Biso   1.000  H
  C243     1.0000 0.97653  0.76707  0.64976  Biso   1.000  C
  O109     1.0000 0.38920  0.99530  0.79620  Biso   1.000  O
  O110     1.0000 0.33740  0.92810  0.78900  Biso   1.000  O
  O111     1.0000 0.51528  0.88449  0.98612  Biso   1.000  O
  O112     1.0000 0.59484  0.04348  0.96445  Biso   1.000  O
  H163     1.0000 0.20790  0.87470  0.12460  Biso   1.000  H
  C244     1.0000 0.59240  0.06270  0.73259  Biso   1.000  C
  H164     1.0000 0.62840  0.05040  0.74380  Biso   1.000  H
  C245     1.0000 0.61130  0.09980  0.69984  Biso   1.000  C
  C246     1.0000 0.44560  0.98890  0.80410  Biso   1.000  C
  C247     1.0000 0.52530  0.96010  0.89140  Biso   1.000  C
  H165     1.0000 0.57170  0.96140  0.90000  Biso   1.000  H
  C248     1.0000 0.52420  0.97830  0.85600  Biso   1.000  C
  H166     1.0000 0.57040  0.99760  0.84190  Biso   1.000  H
  C249     1.0000 0.45350  0.96760  0.84200  Biso   1.000  C
  C250     1.0000 0.55800  0.95100  0.86380  Biso   1.000  C
  H167     1.0000 0.60310  0.94980  0.85530  Biso   1.000  H
  C251     1.0000 0.39880  0.93580  0.89880  Biso   1.000  C
  H168     1.0000 0.35500  0.92090  0.91410  Biso   1.000  H
  C252     1.0000 0.54280  0.89960  0.01691  Biso   1.000  C
  O113     1.0000 0.05587  0.32863  0.12953  Biso   1.000  O
  O114     1.0000 0.00407  0.26143  0.12233  Biso   1.000  O
  O115     1.0000 0.18195  0.21782  0.31945  Biso   1.000  O
  O116     1.0000 0.26151  0.37681  0.29778  Biso   1.000  O
  H169     1.0000 0.87457  0.20803  0.45793  Biso   1.000  H
  C253     1.0000 0.25907  0.39603  0.06592  Biso   1.000  C
  H170     1.0000 0.29507  0.38373  0.07713  Biso   1.000  H
  C254     1.0000 0.27797  0.43313  0.03317  Biso   1.000  C
  C255     1.0000 0.11227  0.32223  0.13743  Biso   1.000  C
  C256     1.0000 0.19197  0.29343  0.22473  Biso   1.000  C
  H171     1.0000 0.23837  0.29473  0.23333  Biso   1.000  H
  C257     1.0000 0.19087  0.31163  0.18933  Biso   1.000  C
  H172     1.0000 0.23707  0.33093  0.17523  Biso   1.000  H
  C258     1.0000 0.12017  0.30093  0.17533  Biso   1.000  C
  C259     1.0000 0.22467  0.28433  0.19713  Biso   1.000  C
  H173     1.0000 0.26977  0.28313  0.18863  Biso   1.000  H
  C260     1.0000 0.06547  0.26913  0.23213  Biso   1.000  C
  H174     1.0000 0.02167  0.25423  0.24743  Biso   1.000  H
  C261     1.0000 0.20947  0.23293  0.35024  Biso   1.000  C
  O117     1.0000 0.72253  0.66197  0.46287  Biso   1.000  O
  O118     1.0000 0.67073  0.59477  0.45567  Biso   1.000  O
  O119     1.0000 0.84861  0.55116  0.65279  Biso   1.000  O
  O120     1.0000 0.92817  0.71015  0.63112  Biso   1.000  O
  H175     1.0000 0.54123  0.54137  0.79127  Biso   1.000  H
  C262     1.0000 0.92573  0.72937  0.39926  Biso   1.000  C
  H176     1.0000 0.96173  0.71707  0.41047  Biso   1.000  H
  C263     1.0000 0.94463  0.76647  0.36651  Biso   1.000  C
  C264     1.0000 0.77893  0.65557  0.47077  Biso   1.000  C
  C265     1.0000 0.85863  0.62677  0.55807  Biso   1.000  C
  H177     1.0000 0.90503  0.62807  0.56667  Biso   1.000  H
  C266     1.0000 0.85753  0.64497  0.52267  Biso   1.000  C
  H178     1.0000 0.90373  0.66427  0.50857  Biso   1.000  H
  C267     1.0000 0.78683  0.63427  0.50867  Biso   1.000  C
  C268     1.0000 0.89133  0.61767  0.53047  Biso   1.000  C
  H179     1.0000 0.93643  0.61647  0.52197  Biso   1.000  H
  C269     1.0000 0.73213  0.60247  0.56547  Biso   1.000  C
  H180     1.0000 0.68833  0.58757  0.58077  Biso   1.000  H
  C270     1.0000 0.87613  0.56627  0.68358  Biso   1.000  C
  O121     1.0000 0.60610  0.61080  0.79620  Biso   1.000  O
  O122     1.0000 0.59070  0.66260  0.78900  Biso   1.000  O
  O123     1.0000 0.36921  0.48472  0.98612  Biso   1.000  O
  O124     1.0000 0.44864  0.40516  0.96445  Biso   1.000  O
  H181     1.0000 0.66680  0.79210  0.12460  Biso   1.000  H
  C271     1.0000 0.47030  0.40760  0.73259  Biso   1.000  C
  H182     1.0000 0.42200  0.37160  0.74380  Biso   1.000  H
  C272     1.0000 0.48850  0.38870  0.69984  Biso   1.000  C
  C273     1.0000 0.54330  0.55440  0.80410  Biso   1.000  C
  C274     1.0000 0.43480  0.47470  0.89140  Biso   1.000  C
  H183     1.0000 0.38970  0.42830  0.90000  Biso   1.000  H
  C275     1.0000 0.45410  0.47580  0.85600  Biso   1.000  C
  H184     1.0000 0.42720  0.42960  0.84190  Biso   1.000  H
  C276     1.0000 0.51410  0.54650  0.84200  Biso   1.000  C
  C277     1.0000 0.39300  0.44200  0.86380  Biso   1.000  C
  H185     1.0000 0.34670  0.39690  0.85530  Biso   1.000  H
  C278     1.0000 0.53700  0.60120  0.89880  Biso   1.000  C
  H186     1.0000 0.56590  0.64500  0.91410  Biso   1.000  H
  C279     1.0000 0.35680  0.45720  0.01691  Biso   1.000  C
  O125     1.0000 0.27277  0.94413  0.12953  Biso   1.000  O
  O126     1.0000 0.25737  0.99593  0.12233  Biso   1.000  O
  O127     1.0000 0.03588  0.81805  0.31945  Biso   1.000  O
  O128     1.0000 0.11531  0.73849  0.29778  Biso   1.000  O
  H187     1.0000 0.33347  0.12543  0.45793  Biso   1.000  H
  C280     1.0000 0.13697  0.74093  0.06592  Biso   1.000  C
  H188     1.0000 0.08867  0.70493  0.07713  Biso   1.000  H
  C281     1.0000 0.15517  0.72203  0.03317  Biso   1.000  C
  C282     1.0000 0.20997  0.88773  0.13743  Biso   1.000  C
  C283     1.0000 0.10147  0.80803  0.22473  Biso   1.000  C
  H189     1.0000 0.05637  0.76163  0.23333  Biso   1.000  H
  C284     1.0000 0.12077  0.80913  0.18933  Biso   1.000  C
  H190     1.0000 0.09387  0.76293  0.17523  Biso   1.000  H
  C285     1.0000 0.18077  0.87983  0.17533  Biso   1.000  C
  C286     1.0000 0.05967  0.77533  0.19713  Biso   1.000  C
  H191     1.0000 0.01337  0.73023  0.18863  Biso   1.000  H
  C287     1.0000 0.20367  0.93453  0.23213  Biso   1.000  C
  H192     1.0000 0.23257  0.97833  0.24743  Biso   1.000  H
  C288     1.0000 0.02347  0.79053  0.35024  Biso   1.000  C
  O129     1.0000 0.93943  0.27747  0.46287  Biso   1.000  O
  O130     1.0000 0.92403  0.32927  0.45567  Biso   1.000  O
  O131     1.0000 0.70254  0.15139  0.65279  Biso   1.000  O
  O132     1.0000 0.78197  0.07183  0.63112  Biso   1.000  O
  H193     1.0000 0.00013  0.45877  0.79127  Biso   1.000  H
  C289     1.0000 0.80363  0.07427  0.39926  Biso   1.000  C
  H194     1.0000 0.75533  0.03827  0.41047  Biso   1.000  H
  C290     1.0000 0.82183  0.05537  0.36651  Biso   1.000  C
  C291     1.0000 0.87663  0.22107  0.47077  Biso   1.000  C
  C292     1.0000 0.76813  0.14137  0.55807  Biso   1.000  C
  H195     1.0000 0.72303  0.09497  0.56667  Biso   1.000  H
  C293     1.0000 0.78743  0.14247  0.52267  Biso   1.000  C
  H196     1.0000 0.76053  0.09627  0.50857  Biso   1.000  H
  C294     1.0000 0.84743  0.21317  0.50867  Biso   1.000  C
  C295     1.0000 0.72633  0.10867  0.53047  Biso   1.000  C
  H197     1.0000 0.68003  0.06357  0.52197  Biso   1.000  H
  C296     1.0000 0.87033  0.26787  0.56547  Biso   1.000  C
  H198     1.0000 0.89923  0.31167  0.58077  Biso   1.000  H
  C297     1.0000 0.69013  0.12387  0.68358  Biso   1.000  C
  O133     1.0000 0.00470  0.39390  0.79620  Biso   1.000  O
  O134     1.0000 0.07190  0.40930  0.78900  Biso   1.000  O
  O135     1.0000 0.11551  0.63079  0.98612  Biso   1.000  O
  O136     1.0000 0.95652  0.55136  0.96445  Biso   1.000  O
  H199     1.0000 0.12530  0.33320  0.12460  Biso   1.000  H
  C298     1.0000 0.93730  0.52970  0.73259  Biso   1.000  C
  H200     1.0000 0.94960  0.57800  0.74380  Biso   1.000  H
  C299     1.0000 0.90020  0.51150  0.69984  Biso   1.000  C
  C300     1.0000 0.01110  0.45670  0.80410  Biso   1.000  C
  C301     1.0000 0.03990  0.56520  0.89140  Biso   1.000  C
  H201     1.0000 0.03860  0.61030  0.90000  Biso   1.000  H
  C302     1.0000 0.02170  0.54590  0.85600  Biso   1.000  C
  H202     1.0000 0.00240  0.57280  0.84190  Biso   1.000  H
  C303     1.0000 0.03240  0.48590  0.84200  Biso   1.000  C
  C304     1.0000 0.04900  0.60700  0.86380  Biso   1.000  C
  H203     1.0000 0.05020  0.65330  0.85530  Biso   1.000  H
  C305     1.0000 0.06420  0.46300  0.89880  Biso   1.000  C
  H204     1.0000 0.07910  0.43410  0.91410  Biso   1.000  H
  C306     1.0000 0.10040  0.64320  0.01691  Biso   1.000  C
  O137     1.0000 0.67137  0.72723  0.12953  Biso   1.000  O
  O138     1.0000 0.73857  0.74263  0.12233  Biso   1.000  O
  O139     1.0000 0.78218  0.96412  0.31945  Biso   1.000  O
  O140     1.0000 0.62319  0.88469  0.29778  Biso   1.000  O
  H205     1.0000 0.79197  0.66653  0.45793  Biso   1.000  H
  C307     1.0000 0.60397  0.86303  0.06592  Biso   1.000  C
  H206     1.0000 0.61627  0.91133  0.07713  Biso   1.000  H
  C308     1.0000 0.56687  0.84483  0.03317  Biso   1.000  C
  C309     1.0000 0.67777  0.79003  0.13743  Biso   1.000  C
  C310     1.0000 0.70657  0.89853  0.22473  Biso   1.000  C
  H207     1.0000 0.70527  0.94363  0.23333  Biso   1.000  H
  C311     1.0000 0.68837  0.87923  0.18933  Biso   1.000  C
  H208     1.0000 0.66907  0.90613  0.17523  Biso   1.000  H
  C312     1.0000 0.69907  0.81923  0.17533  Biso   1.000  C
  C313     1.0000 0.71567  0.94033  0.19713  Biso   1.000  C
  H209     1.0000 0.71687  0.98663  0.18863  Biso   1.000  H
  C314     1.0000 0.73087  0.79633  0.23213  Biso   1.000  C
  H210     1.0000 0.74577  0.76743  0.24743  Biso   1.000  H
  C315     1.0000 0.76707  0.97653  0.35024  Biso   1.000  C
  O141     1.0000 0.33803  0.06057  0.46287  Biso   1.000  O
  O142     1.0000 0.40523  0.07597  0.45567  Biso   1.000  O
  O143     1.0000 0.44884  0.29746  0.65279  Biso   1.000  O
  O144     1.0000 0.28985  0.21803  0.63112  Biso   1.000  O
  H211     1.0000 0.45863  0.99987  0.79127  Biso   1.000  H
  C316     1.0000 0.27063  0.19637  0.39926  Biso   1.000  C
  H212     1.0000 0.28293  0.24467  0.41047  Biso   1.000  H
  C317     1.0000 0.23353  0.17817  0.36651  Biso   1.000  C
  C318     1.0000 0.34443  0.12337  0.47077  Biso   1.000  C
  C319     1.0000 0.37323  0.23187  0.55807  Biso   1.000  C
  H213     1.0000 0.37193  0.27697  0.56667  Biso   1.000  H
  C320     1.0000 0.35503  0.21257  0.52267  Biso   1.000  C
  H214     1.0000 0.33573  0.23947  0.50857  Biso   1.000  H
  C321     1.0000 0.36573  0.15257  0.50867  Biso   1.000  C
  C322     1.0000 0.38233  0.27367  0.53047  Biso   1.000  C
  H215     1.0000 0.38353  0.31997  0.52197  Biso   1.000  H
  C323     1.0000 0.39753  0.12967  0.56547  Biso   1.000  C
  H216     1.0000 0.41243  0.10077  0.58077  Biso   1.000  H
  C324     1.0000 0.43373  0.30987  0.68358  Biso   1.000  C
  Zn1      1.0000 0.04415  0.52208  0.96599  Biso   1.000  Zn
  N1       1.0000 0.99070  0.49535  0.78297  Biso   1.000  N
  N2       1.0000 0.05771  0.52885  0.91249  Biso   1.000  N
  C325     1.0000 0.95650  0.47825  0.74886  Biso   1.000  C
  C326     1.0000 0.88301  0.44151  0.68334  Biso   1.000  C
  H217     1.0000 0.85910  0.42955  0.66060  Biso   1.000  H
  Zn2      1.0000 0.71082  0.85541  0.29933  Biso   1.000  Zn
  N3       1.0000 0.65737  0.82868  0.11630  Biso   1.000  N
  N4       1.0000 0.72438  0.86219  0.24582  Biso   1.000  N
  C327     1.0000 0.62317  0.81158  0.08219  Biso   1.000  C
  C328     1.0000 0.54968  0.77484  0.01667  Biso   1.000  C
  H218     1.0000 0.52577  0.76288  0.99393  Biso   1.000  H
  Zn3      1.0000 0.37749  0.18874  0.63266  Biso   1.000  Zn
  N5       1.0000 0.32403  0.16202  0.44964  Biso   1.000  N
  N6       1.0000 0.39104  0.19552  0.57916  Biso   1.000  N
  C329     1.0000 0.28983  0.14492  0.41553  Biso   1.000  C
  C330     1.0000 0.21634  0.10817  0.35001  Biso   1.000  C
  H219     1.0000 0.19243  0.09622  0.32727  Biso   1.000  H
  Zn4      1.0000 0.47792  0.52208  0.96599  Biso   1.000  Zn
  N7       1.0000 0.50465  0.49535  0.78297  Biso   1.000  N
  N8       1.0000 0.47115  0.52885  0.91249  Biso   1.000  N
  C331     1.0000 0.52175  0.47825  0.74886  Biso   1.000  C
  C332     1.0000 0.55849  0.44150  0.68334  Biso   1.000  C
  H220     1.0000 0.57045  0.42955  0.66060  Biso   1.000  H
  Zn5      1.0000 0.14459  0.85541  0.29933  Biso   1.000  Zn
  N9       1.0000 0.17132  0.82868  0.11630  Biso   1.000  N
  N10      1.0000 0.13781  0.86219  0.24582  Biso   1.000  N
  C333     1.0000 0.18842  0.81158  0.08219  Biso   1.000  C
  C334     1.0000 0.22516  0.77484  0.01667  Biso   1.000  C
  H221     1.0000 0.23712  0.76288  0.99393  Biso   1.000  H
  Zn6      1.0000 0.81126  0.18874  0.63266  Biso   1.000  Zn
  N11      1.0000 0.83798  0.16202  0.44964  Biso   1.000  N
  N12      1.0000 0.80448  0.19552  0.57916  Biso   1.000  N
  C335     1.0000 0.85508  0.14492  0.41553  Biso   1.000  C
  C336     1.0000 0.89183  0.10817  0.35001  Biso   1.000  C
  H222     1.0000 0.90378  0.09622  0.32727  Biso   1.000  H
  Zn7      1.0000 0.47792  0.95585  0.96599  Biso   1.000  Zn
  N13      1.0000 0.50465  0.00930  0.78297  Biso   1.000  N
  N14      1.0000 0.47115  0.94229  0.91249  Biso   1.000  N
  C337     1.0000 0.52175  0.04350  0.74886  Biso   1.000  C
  C338     1.0000 0.55849  0.11699  0.68334  Biso   1.000  C
  H223     1.0000 0.57045  0.14090  0.66060  Biso   1.000  H
  Zn8      1.0000 0.14459  0.28918  0.29933  Biso   1.000  Zn
  N15      1.0000 0.17132  0.34263  0.11630  Biso   1.000  N
  N16      1.0000 0.13781  0.27562  0.24582  Biso   1.000  N
  C339     1.0000 0.18842  0.37683  0.08219  Biso   1.000  C
  C340     1.0000 0.22516  0.45032  0.01667  Biso   1.000  C
  H224     1.0000 0.23712  0.47423  0.99393  Biso   1.000  H
  Zn9      1.0000 0.81126  0.62251  0.63266  Biso   1.000  Zn
  N17      1.0000 0.83798  0.67597  0.44964  Biso   1.000  N
  N18      1.0000 0.80448  0.60896  0.57916  Biso   1.000  N
  C341     1.0000 0.85508  0.71017  0.41553  Biso   1.000  C
  C342     1.0000 0.89183  0.78366  0.35001  Biso   1.000  C
  H225     1.0000 0.90378  0.80757  0.32727  Biso   1.000  H
  Zn10     1.0000 0.52208  0.04415  0.03401  Biso   1.000  Zn
  N19      1.0000 0.49535  0.99070  0.21703  Biso   1.000  N
  N20      1.0000 0.52885  0.05771  0.08751  Biso   1.000  N
  C343     1.0000 0.47825  0.95650  0.25114  Biso   1.000  C
  C344     1.0000 0.44151  0.88301  0.31666  Biso   1.000  C
  H226     1.0000 0.42955  0.85910  0.33940  Biso   1.000  H
  Zn11     1.0000 0.18874  0.37749  0.36734  Biso   1.000  Zn
  N21      1.0000 0.16202  0.32403  0.55036  Biso   1.000  N
  N22      1.0000 0.19552  0.39104  0.42084  Biso   1.000  N
  C345     1.0000 0.14492  0.28983  0.58447  Biso   1.000  C
  C346     1.0000 0.10817  0.21634  0.64999  Biso   1.000  C
  H227     1.0000 0.09622  0.19243  0.67273  Biso   1.000  H
  Zn12     1.0000 0.85541  0.71082  0.70067  Biso   1.000  Zn
  N23      1.0000 0.82868  0.65737  0.88370  Biso   1.000  N
  N24      1.0000 0.86219  0.72438  0.75418  Biso   1.000  N
  C347     1.0000 0.81158  0.62317  0.91781  Biso   1.000  C
  C348     1.0000 0.77484  0.54968  0.98333  Biso   1.000  C
  H228     1.0000 0.76288  0.52577  0.00607  Biso   1.000  H
  Zn13     1.0000 0.52208  0.47792  0.03401  Biso   1.000  Zn
  N25      1.0000 0.49535  0.50465  0.21703  Biso   1.000  N
  N26      1.0000 0.52885  0.47114  0.08751  Biso   1.000  N
  C349     1.0000 0.47825  0.52175  0.25114  Biso   1.000  C
  C350     1.0000 0.44150  0.55849  0.31666  Biso   1.000  C
  H229     1.0000 0.42955  0.57045  0.33940  Biso   1.000  H
  Zn14     1.0000 0.18874  0.81126  0.36734  Biso   1.000  Zn
  N27      1.0000 0.16202  0.83798  0.55036  Biso   1.000  N
  N28      1.0000 0.19552  0.80448  0.42084  Biso   1.000  N
  C351     1.0000 0.14492  0.85508  0.58447  Biso   1.000  C
  C352     1.0000 0.10817  0.89183  0.64999  Biso   1.000  C
  H230     1.0000 0.09622  0.90378  0.67273  Biso   1.000  H
  Zn15     1.0000 0.85541  0.14459  0.70067  Biso   1.000  Zn
  N29      1.0000 0.82868  0.17132  0.88370  Biso   1.000  N
  N30      1.0000 0.86219  0.13781  0.75418  Biso   1.000  N
  C353     1.0000 0.81158  0.18842  0.91781  Biso   1.000  C
  C354     1.0000 0.77484  0.22516  0.98333  Biso   1.000  C
  H231     1.0000 0.76288  0.23712  0.00607  Biso   1.000  H
  Zn16     1.0000 0.95585  0.47792  0.03401  Biso   1.000  Zn
  N31      1.0000 0.00930  0.50465  0.21703  Biso   1.000  N
  N32      1.0000 0.94229  0.47115  0.08751  Biso   1.000  N
  C355     1.0000 0.04350  0.52175  0.25114  Biso   1.000  C
  C356     1.0000 0.11699  0.55849  0.31666  Biso   1.000  C
  H232     1.0000 0.14090  0.57045  0.33940  Biso   1.000  H
  Zn17     1.0000 0.62251  0.81126  0.36734  Biso   1.000  Zn
  N33      1.0000 0.67597  0.83798  0.55036  Biso   1.000  N
  N34      1.0000 0.60896  0.80448  0.42084  Biso   1.000  N
  C357     1.0000 0.71017  0.85508  0.58447  Biso   1.000  C
  C358     1.0000 0.78366  0.89183  0.64999  Biso   1.000  C
  H233     1.0000 0.80757  0.90378  0.67273  Biso   1.000  H
  Zn18     1.0000 0.28918  0.14459  0.70067  Biso   1.000  Zn
  N35      1.0000 0.34263  0.17132  0.88370  Biso   1.000  N
  N36      1.0000 0.27562  0.13781  0.75418  Biso   1.000  N
  C359     1.0000 0.37683  0.18842  0.91781  Biso   1.000  C
  C360     1.0000 0.45032  0.22516  0.98333  Biso   1.000  C
  H234     1.0000 0.47423  0.23712  0.00607  Biso   1.000  H
