data_image0
_cell_length_a       50.5129
_cell_length_b       50.5129
_cell_length_c       50.5129
_cell_angle_alpha    90
_cell_angle_beta     90
_cell_angle_gamma    90

_symmetry_space_group_name_H-M    "P 1"
_symmetry_int_tables_number       1

loop_
  _symmetry_equiv_pos_as_xyz
  'x, y, z'

loop_
  _atom_site_label
  _atom_site_occupancy
  _atom_site_fract_x
  _atom_site_fract_y
  _atom_site_fract_z
  _atom_site_thermal_displace_type
  _atom_site_B_iso_or_equiv
  _atom_site_type_symbol
  O1       1.0000 0.89000  0.09960  0.03406  Biso   1.000  O
  O2       1.0000 0.92458  0.12037  0.02107  Biso   1.000  O
  O3       1.0000 0.01156  0.06130  0.09270  Biso   1.000  O
  O4       1.0000 0.83688  0.10735  0.01278  Biso   1.000  O
  O5       1.0000 0.84235  0.12737  0.97564  Biso   1.000  O
  O6       1.0000 0.71412  0.07890  0.00514  Biso   1.000  O
  O7       1.0000 0.63961  0.07093  0.04056  Biso   1.000  O
  C1       1.0000 0.91400  0.10440  0.03543  Biso   1.000  C
  C2       1.0000 0.92970  0.08880  0.05544  Biso   1.000  C
  C3       1.0000 0.95720  0.09090  0.05680  Biso   1.000  C
  C4       1.0000 0.82773  0.11582  0.99188  Biso   1.000  C
  C5       1.0000 0.79951  0.11098  0.98392  Biso   1.000  C
  C6       1.0000 0.78198  0.09996  0.00186  Biso   1.000  C
  O8       1.0000 0.89000  0.59960  0.53406  Biso   1.000  O
  O9       1.0000 0.92458  0.62037  0.52107  Biso   1.000  O
  O10      1.0000 0.01156  0.56130  0.59270  Biso   1.000  O
  O11      1.0000 0.83688  0.60735  0.51278  Biso   1.000  O
  O12      1.0000 0.84235  0.62737  0.47564  Biso   1.000  O
  O13      1.0000 0.71412  0.57890  0.50514  Biso   1.000  O
  O14      1.0000 0.63961  0.57093  0.54056  Biso   1.000  O
  C7       1.0000 0.91400  0.60440  0.53543  Biso   1.000  C
  C8       1.0000 0.92970  0.58880  0.55544  Biso   1.000  C
  C9       1.0000 0.95720  0.59090  0.55680  Biso   1.000  C
  C10      1.0000 0.82773  0.61582  0.49188  Biso   1.000  C
  C11      1.0000 0.79951  0.61098  0.48392  Biso   1.000  C
  C12      1.0000 0.78198  0.59996  0.50186  Biso   1.000  C
  O15      1.0000 0.39000  0.09960  0.53406  Biso   1.000  O
  O16      1.0000 0.42458  0.12037  0.52107  Biso   1.000  O
  O17      1.0000 0.51156  0.06130  0.59270  Biso   1.000  O
  O18      1.0000 0.33688  0.10735  0.51278  Biso   1.000  O
  O19      1.0000 0.34235  0.12737  0.47564  Biso   1.000  O
  O20      1.0000 0.21412  0.07890  0.50514  Biso   1.000  O
  O21      1.0000 0.13961  0.07093  0.54056  Biso   1.000  O
  C13      1.0000 0.41400  0.10440  0.53543  Biso   1.000  C
  C14      1.0000 0.42970  0.08880  0.55544  Biso   1.000  C
  C15      1.0000 0.45720  0.09090  0.55680  Biso   1.000  C
  C16      1.0000 0.32773  0.11582  0.49188  Biso   1.000  C
  C17      1.0000 0.29951  0.11098  0.48392  Biso   1.000  C
  C18      1.0000 0.28198  0.09996  0.50186  Biso   1.000  C
  O22      1.0000 0.39000  0.59960  0.03406  Biso   1.000  O
  O23      1.0000 0.42458  0.62037  0.02107  Biso   1.000  O
  O24      1.0000 0.51156  0.56130  0.09270  Biso   1.000  O
  O25      1.0000 0.33688  0.60735  0.01278  Biso   1.000  O
  O26      1.0000 0.34235  0.62737  0.97564  Biso   1.000  O
  O27      1.0000 0.21412  0.57890  0.00514  Biso   1.000  O
  O28      1.0000 0.13961  0.57093  0.04056  Biso   1.000  O
  C19      1.0000 0.41400  0.60440  0.03543  Biso   1.000  C
  C20      1.0000 0.42970  0.58880  0.05544  Biso   1.000  C
  C21      1.0000 0.45720  0.59090  0.05680  Biso   1.000  C
  C22      1.0000 0.32773  0.61582  0.99188  Biso   1.000  C
  C23      1.0000 0.29951  0.61098  0.98392  Biso   1.000  C
  C24      1.0000 0.28198  0.59996  0.00186  Biso   1.000  C
  O29      1.0000 0.86000  0.15040  0.53406  Biso   1.000  O
  O30      1.0000 0.82542  0.12963  0.52107  Biso   1.000  O
  O31      1.0000 0.73844  0.18870  0.59270  Biso   1.000  O
  O32      1.0000 0.91312  0.14265  0.51278  Biso   1.000  O
  O33      1.0000 0.90765  0.12263  0.47564  Biso   1.000  O
  O34      1.0000 0.03588  0.17110  0.50514  Biso   1.000  O
  O35      1.0000 0.11039  0.17907  0.54056  Biso   1.000  O
  C25      1.0000 0.83600  0.14560  0.53543  Biso   1.000  C
  C26      1.0000 0.82030  0.16120  0.55544  Biso   1.000  C
  C27      1.0000 0.79280  0.15910  0.55680  Biso   1.000  C
  C28      1.0000 0.92227  0.13418  0.49188  Biso   1.000  C
  C29      1.0000 0.95049  0.13902  0.48392  Biso   1.000  C
  C30      1.0000 0.96802  0.15004  0.50186  Biso   1.000  C
  O36      1.0000 0.86000  0.65040  0.03406  Biso   1.000  O
  O37      1.0000 0.82542  0.62963  0.02107  Biso   1.000  O
  O38      1.0000 0.73844  0.68870  0.09270  Biso   1.000  O
  O39      1.0000 0.91312  0.64265  0.01278  Biso   1.000  O
  O40      1.0000 0.90765  0.62263  0.97564  Biso   1.000  O
  O41      1.0000 0.03588  0.67110  0.00514  Biso   1.000  O
  O42      1.0000 0.11039  0.67907  0.04056  Biso   1.000  O
  C31      1.0000 0.83600  0.64560  0.03543  Biso   1.000  C
  C32      1.0000 0.82030  0.66120  0.05544  Biso   1.000  C
  C33      1.0000 0.79280  0.65910  0.05680  Biso   1.000  C
  C34      1.0000 0.92227  0.63418  0.99188  Biso   1.000  C
  C35      1.0000 0.95049  0.63902  0.98392  Biso   1.000  C
  C36      1.0000 0.96802  0.65004  0.00186  Biso   1.000  C
  O43      1.0000 0.36000  0.15040  0.03406  Biso   1.000  O
  O44      1.0000 0.32542  0.12963  0.02107  Biso   1.000  O
  O45      1.0000 0.23844  0.18870  0.09270  Biso   1.000  O
  O46      1.0000 0.41312  0.14265  0.01278  Biso   1.000  O
  O47      1.0000 0.40765  0.12263  0.97564  Biso   1.000  O
  O48      1.0000 0.53588  0.17110  0.00514  Biso   1.000  O
  O49      1.0000 0.61039  0.17907  0.04056  Biso   1.000  O
  C37      1.0000 0.33600  0.14560  0.03543  Biso   1.000  C
  C38      1.0000 0.32030  0.16120  0.05544  Biso   1.000  C
  C39      1.0000 0.29280  0.15910  0.05680  Biso   1.000  C
  C40      1.0000 0.42227  0.13418  0.99188  Biso   1.000  C
  C41      1.0000 0.45049  0.13902  0.98392  Biso   1.000  C
  C42      1.0000 0.46802  0.15004  0.00186  Biso   1.000  C
  O50      1.0000 0.36000  0.65040  0.53406  Biso   1.000  O
  O51      1.0000 0.32542  0.62963  0.52107  Biso   1.000  O
  O52      1.0000 0.23844  0.68870  0.59270  Biso   1.000  O
  O53      1.0000 0.41312  0.64265  0.51278  Biso   1.000  O
  O54      1.0000 0.40765  0.62263  0.47564  Biso   1.000  O
  O55      1.0000 0.53588  0.67110  0.50514  Biso   1.000  O
  O56      1.0000 0.61039  0.67907  0.54056  Biso   1.000  O
  C43      1.0000 0.33600  0.64560  0.53543  Biso   1.000  C
  C44      1.0000 0.32030  0.66120  0.55544  Biso   1.000  C
  C45      1.0000 0.29280  0.65910  0.55680  Biso   1.000  C
  C46      1.0000 0.42227  0.63418  0.49188  Biso   1.000  C
  C47      1.0000 0.45049  0.63902  0.48392  Biso   1.000  C
  C48      1.0000 0.46802  0.65004  0.50186  Biso   1.000  C
  O57      1.0000 0.36000  0.59960  0.71594  Biso   1.000  O
  O58      1.0000 0.32542  0.62037  0.72893  Biso   1.000  O
  O59      1.0000 0.23844  0.56130  0.65730  Biso   1.000  O
  O60      1.0000 0.41312  0.60735  0.73722  Biso   1.000  O
  O61      1.0000 0.40765  0.62737  0.77436  Biso   1.000  O
  O62      1.0000 0.53588  0.57890  0.74486  Biso   1.000  O
  O63      1.0000 0.61039  0.57093  0.70944  Biso   1.000  O
  C49      1.0000 0.33600  0.60440  0.71457  Biso   1.000  C
  C50      1.0000 0.32030  0.58880  0.69456  Biso   1.000  C
  C51      1.0000 0.29280  0.59090  0.69320  Biso   1.000  C
  C52      1.0000 0.42227  0.61582  0.75812  Biso   1.000  C
  C53      1.0000 0.45049  0.61098  0.76608  Biso   1.000  C
  C54      1.0000 0.46802  0.59996  0.74814  Biso   1.000  C
  O64      1.0000 0.36000  0.09960  0.21594  Biso   1.000  O
  O65      1.0000 0.32542  0.12037  0.22893  Biso   1.000  O
  O66      1.0000 0.23844  0.06130  0.15730  Biso   1.000  O
  O67      1.0000 0.41312  0.10735  0.23722  Biso   1.000  O
  O68      1.0000 0.40765  0.12737  0.27436  Biso   1.000  O
  O69      1.0000 0.53588  0.07890  0.24486  Biso   1.000  O
  O70      1.0000 0.61039  0.07093  0.20944  Biso   1.000  O
  C55      1.0000 0.33600  0.10440  0.21457  Biso   1.000  C
  C56      1.0000 0.32030  0.08880  0.19456  Biso   1.000  C
  C57      1.0000 0.29280  0.09090  0.19320  Biso   1.000  C
  C58      1.0000 0.42227  0.11582  0.25812  Biso   1.000  C
  C59      1.0000 0.45049  0.11098  0.26608  Biso   1.000  C
  C60      1.0000 0.46802  0.09996  0.24814  Biso   1.000  C
  O71      1.0000 0.86000  0.59960  0.21594  Biso   1.000  O
  O72      1.0000 0.82542  0.62037  0.22893  Biso   1.000  O
  O73      1.0000 0.73844  0.56130  0.15730  Biso   1.000  O
  O74      1.0000 0.91312  0.60735  0.23722  Biso   1.000  O
  O75      1.0000 0.90765  0.62737  0.27436  Biso   1.000  O
  O76      1.0000 0.03588  0.57890  0.24486  Biso   1.000  O
  O77      1.0000 0.11039  0.57093  0.20944  Biso   1.000  O
  C61      1.0000 0.83600  0.60440  0.21457  Biso   1.000  C
  C62      1.0000 0.82030  0.58880  0.19456  Biso   1.000  C
  C63      1.0000 0.79280  0.59090  0.19320  Biso   1.000  C
  C64      1.0000 0.92227  0.61582  0.25812  Biso   1.000  C
  C65      1.0000 0.95049  0.61098  0.26608  Biso   1.000  C
  C66      1.0000 0.96802  0.59996  0.24814  Biso   1.000  C
  O78      1.0000 0.86000  0.09960  0.71594  Biso   1.000  O
  O79      1.0000 0.82542  0.12037  0.72893  Biso   1.000  O
  O80      1.0000 0.73844  0.06130  0.65730  Biso   1.000  O
  O81      1.0000 0.91312  0.10735  0.73722  Biso   1.000  O
  O82      1.0000 0.90765  0.12737  0.77436  Biso   1.000  O
  O83      1.0000 0.03588  0.07890  0.74486  Biso   1.000  O
  O84      1.0000 0.11039  0.07093  0.70944  Biso   1.000  O
  C67      1.0000 0.83600  0.10440  0.71457  Biso   1.000  C
  C68      1.0000 0.82030  0.08880  0.69456  Biso   1.000  C
  C69      1.0000 0.79280  0.09090  0.69320  Biso   1.000  C
  C70      1.0000 0.92227  0.11582  0.75812  Biso   1.000  C
  C71      1.0000 0.95049  0.11098  0.76608  Biso   1.000  C
  C72      1.0000 0.96802  0.09996  0.74814  Biso   1.000  C
  O85      1.0000 0.39000  0.65040  0.21594  Biso   1.000  O
  O86      1.0000 0.42458  0.62963  0.22893  Biso   1.000  O
  O87      1.0000 0.51156  0.68870  0.15730  Biso   1.000  O
  O88      1.0000 0.33688  0.64265  0.23722  Biso   1.000  O
  O89      1.0000 0.34235  0.62263  0.27436  Biso   1.000  O
  O90      1.0000 0.21412  0.67110  0.24486  Biso   1.000  O
  O91      1.0000 0.13961  0.67907  0.20944  Biso   1.000  O
  C73      1.0000 0.41400  0.64560  0.21457  Biso   1.000  C
  C74      1.0000 0.42970  0.66120  0.19456  Biso   1.000  C
  C75      1.0000 0.45720  0.65910  0.19320  Biso   1.000  C
  C76      1.0000 0.32773  0.63418  0.25812  Biso   1.000  C
  C77      1.0000 0.29951  0.63902  0.26608  Biso   1.000  C
  C78      1.0000 0.28198  0.65004  0.24814  Biso   1.000  C
  O92      1.0000 0.39000  0.15040  0.71594  Biso   1.000  O
  O93      1.0000 0.42458  0.12963  0.72893  Biso   1.000  O
  O94      1.0000 0.51156  0.18870  0.65730  Biso   1.000  O
  O95      1.0000 0.33688  0.14265  0.73722  Biso   1.000  O
  O96      1.0000 0.34235  0.12263  0.77436  Biso   1.000  O
  O97      1.0000 0.21412  0.17110  0.74486  Biso   1.000  O
  O98      1.0000 0.13961  0.17907  0.70944  Biso   1.000  O
  C79      1.0000 0.41400  0.14560  0.71457  Biso   1.000  C
  C80      1.0000 0.42970  0.16120  0.69456  Biso   1.000  C
  C81      1.0000 0.45720  0.15910  0.69320  Biso   1.000  C
  C82      1.0000 0.32773  0.13418  0.75812  Biso   1.000  C
  C83      1.0000 0.29951  0.13902  0.76608  Biso   1.000  C
  C84      1.0000 0.28198  0.15004  0.74814  Biso   1.000  C
  O99      1.0000 0.89000  0.65040  0.71594  Biso   1.000  O
  O100     1.0000 0.92458  0.62963  0.72893  Biso   1.000  O
  O101     1.0000 0.01156  0.68870  0.65730  Biso   1.000  O
  O102     1.0000 0.83688  0.64265  0.73722  Biso   1.000  O
  O103     1.0000 0.84235  0.62263  0.77436  Biso   1.000  O
  O104     1.0000 0.71412  0.67110  0.74486  Biso   1.000  O
  O105     1.0000 0.63961  0.67907  0.70944  Biso   1.000  O
  C85      1.0000 0.91400  0.64560  0.71457  Biso   1.000  C
  C86      1.0000 0.92970  0.66120  0.69456  Biso   1.000  C
  C87      1.0000 0.95720  0.65910  0.69320  Biso   1.000  C
  C88      1.0000 0.82773  0.63418  0.75812  Biso   1.000  C
  C89      1.0000 0.79951  0.63902  0.76608  Biso   1.000  C
  C90      1.0000 0.78198  0.65004  0.74814  Biso   1.000  C
  O106     1.0000 0.89000  0.15040  0.21594  Biso   1.000  O
  O107     1.0000 0.92458  0.12963  0.22893  Biso   1.000  O
  O108     1.0000 0.01156  0.18870  0.15730  Biso   1.000  O
  O109     1.0000 0.83688  0.14265  0.23722  Biso   1.000  O
  O110     1.0000 0.84235  0.12263  0.27436  Biso   1.000  O
  O111     1.0000 0.71412  0.17110  0.24486  Biso   1.000  O
  O112     1.0000 0.63961  0.17907  0.20944  Biso   1.000  O
  C91      1.0000 0.91400  0.14560  0.21457  Biso   1.000  C
  C92      1.0000 0.92970  0.16120  0.19456  Biso   1.000  C
  C93      1.0000 0.95720  0.15910  0.19320  Biso   1.000  C
  C94      1.0000 0.82773  0.13418  0.25812  Biso   1.000  C
  C95      1.0000 0.79951  0.13902  0.26608  Biso   1.000  C
  C96      1.0000 0.78198  0.15004  0.24814  Biso   1.000  C
  O113     1.0000 0.03406  0.89000  0.09960  Biso   1.000  O
  O114     1.0000 0.02107  0.92458  0.12037  Biso   1.000  O
  O115     1.0000 0.09270  0.01156  0.06130  Biso   1.000  O
  O116     1.0000 0.01278  0.83688  0.10735  Biso   1.000  O
  O117     1.0000 0.97564  0.84235  0.12737  Biso   1.000  O
  O118     1.0000 0.00514  0.71412  0.07890  Biso   1.000  O
  O119     1.0000 0.04056  0.63961  0.07093  Biso   1.000  O
  C97      1.0000 0.03543  0.91400  0.10440  Biso   1.000  C
  C98      1.0000 0.05544  0.92970  0.08880  Biso   1.000  C
  C99      1.0000 0.05680  0.95720  0.09090  Biso   1.000  C
  C100     1.0000 0.99188  0.82773  0.11582  Biso   1.000  C
  C101     1.0000 0.98392  0.79951  0.11098  Biso   1.000  C
  C102     1.0000 0.00186  0.78198  0.09996  Biso   1.000  C
  O120     1.0000 0.03406  0.39000  0.59960  Biso   1.000  O
  O121     1.0000 0.02107  0.42458  0.62037  Biso   1.000  O
  O122     1.0000 0.09270  0.51156  0.56130  Biso   1.000  O
  O123     1.0000 0.01278  0.33688  0.60735  Biso   1.000  O
  O124     1.0000 0.97564  0.34235  0.62737  Biso   1.000  O
  O125     1.0000 0.00514  0.21412  0.57890  Biso   1.000  O
  O126     1.0000 0.04056  0.13961  0.57093  Biso   1.000  O
  C103     1.0000 0.03543  0.41400  0.60440  Biso   1.000  C
  C104     1.0000 0.05544  0.42970  0.58880  Biso   1.000  C
  C105     1.0000 0.05680  0.45720  0.59090  Biso   1.000  C
  C106     1.0000 0.99188  0.32773  0.61582  Biso   1.000  C
  C107     1.0000 0.98392  0.29951  0.61098  Biso   1.000  C
  C108     1.0000 0.00186  0.28198  0.59996  Biso   1.000  C
  O127     1.0000 0.53406  0.89000  0.59960  Biso   1.000  O
  O128     1.0000 0.52107  0.92458  0.62037  Biso   1.000  O
  O129     1.0000 0.59270  0.01156  0.56130  Biso   1.000  O
  O130     1.0000 0.51278  0.83688  0.60735  Biso   1.000  O
  O131     1.0000 0.47564  0.84235  0.62737  Biso   1.000  O
  O132     1.0000 0.50514  0.71412  0.57890  Biso   1.000  O
  O133     1.0000 0.54056  0.63961  0.57093  Biso   1.000  O
  C109     1.0000 0.53543  0.91400  0.60440  Biso   1.000  C
  C110     1.0000 0.55544  0.92970  0.58880  Biso   1.000  C
  C111     1.0000 0.55680  0.95720  0.59090  Biso   1.000  C
  C112     1.0000 0.49188  0.82773  0.61582  Biso   1.000  C
  C113     1.0000 0.48392  0.79951  0.61098  Biso   1.000  C
  C114     1.0000 0.50186  0.78198  0.59996  Biso   1.000  C
  O134     1.0000 0.53406  0.39000  0.09960  Biso   1.000  O
  O135     1.0000 0.52107  0.42458  0.12037  Biso   1.000  O
  O136     1.0000 0.59270  0.51156  0.06130  Biso   1.000  O
  O137     1.0000 0.51278  0.33688  0.10735  Biso   1.000  O
  O138     1.0000 0.47564  0.34235  0.12737  Biso   1.000  O
  O139     1.0000 0.50514  0.21412  0.07890  Biso   1.000  O
  O140     1.0000 0.54056  0.13961  0.07093  Biso   1.000  O
  C115     1.0000 0.53543  0.41400  0.10440  Biso   1.000  C
  C116     1.0000 0.55544  0.42970  0.08880  Biso   1.000  C
  C117     1.0000 0.55680  0.45720  0.09090  Biso   1.000  C
  C118     1.0000 0.49188  0.32773  0.11582  Biso   1.000  C
  C119     1.0000 0.48392  0.29951  0.11098  Biso   1.000  C
  C120     1.0000 0.50186  0.28198  0.09996  Biso   1.000  C
  O141     1.0000 0.53406  0.86000  0.15040  Biso   1.000  O
  O142     1.0000 0.52107  0.82542  0.12963  Biso   1.000  O
  O143     1.0000 0.59270  0.73844  0.18870  Biso   1.000  O
  O144     1.0000 0.51278  0.91312  0.14265  Biso   1.000  O
  O145     1.0000 0.47564  0.90765  0.12263  Biso   1.000  O
  O146     1.0000 0.50514  0.03588  0.17110  Biso   1.000  O
  O147     1.0000 0.54056  0.11039  0.17907  Biso   1.000  O
  C121     1.0000 0.53543  0.83600  0.14560  Biso   1.000  C
  C122     1.0000 0.55544  0.82030  0.16120  Biso   1.000  C
  C123     1.0000 0.55680  0.79280  0.15910  Biso   1.000  C
  C124     1.0000 0.49188  0.92227  0.13418  Biso   1.000  C
  C125     1.0000 0.48392  0.95049  0.13902  Biso   1.000  C
  C126     1.0000 0.50186  0.96802  0.15004  Biso   1.000  C
  O148     1.0000 0.53406  0.36000  0.65040  Biso   1.000  O
  O149     1.0000 0.52107  0.32542  0.62963  Biso   1.000  O
  O150     1.0000 0.59270  0.23844  0.68870  Biso   1.000  O
  O151     1.0000 0.51278  0.41312  0.64265  Biso   1.000  O
  O152     1.0000 0.47564  0.40765  0.62263  Biso   1.000  O
  O153     1.0000 0.50514  0.53588  0.67110  Biso   1.000  O
  O154     1.0000 0.54056  0.61039  0.67907  Biso   1.000  O
  C127     1.0000 0.53543  0.33600  0.64560  Biso   1.000  C
  C128     1.0000 0.55544  0.32030  0.66120  Biso   1.000  C
  C129     1.0000 0.55680  0.29280  0.65910  Biso   1.000  C
  C130     1.0000 0.49188  0.42227  0.63418  Biso   1.000  C
  C131     1.0000 0.48392  0.45049  0.63902  Biso   1.000  C
  C132     1.0000 0.50186  0.46802  0.65004  Biso   1.000  C
  O155     1.0000 0.03406  0.86000  0.65040  Biso   1.000  O
  O156     1.0000 0.02107  0.82542  0.62963  Biso   1.000  O
  O157     1.0000 0.09270  0.73844  0.68870  Biso   1.000  O
  O158     1.0000 0.01278  0.91312  0.64265  Biso   1.000  O
  O159     1.0000 0.97564  0.90765  0.62263  Biso   1.000  O
  O160     1.0000 0.00514  0.03588  0.67110  Biso   1.000  O
  O161     1.0000 0.04056  0.11039  0.67907  Biso   1.000  O
  C133     1.0000 0.03543  0.83600  0.64560  Biso   1.000  C
  C134     1.0000 0.05544  0.82030  0.66120  Biso   1.000  C
  C135     1.0000 0.05680  0.79280  0.65910  Biso   1.000  C
  C136     1.0000 0.99188  0.92227  0.63418  Biso   1.000  C
  C137     1.0000 0.98392  0.95049  0.63902  Biso   1.000  C
  C138     1.0000 0.00186  0.96802  0.65004  Biso   1.000  C
  O162     1.0000 0.03406  0.36000  0.15040  Biso   1.000  O
  O163     1.0000 0.02107  0.32542  0.12963  Biso   1.000  O
  O164     1.0000 0.09270  0.23844  0.18870  Biso   1.000  O
  O165     1.0000 0.01278  0.41312  0.14265  Biso   1.000  O
  O166     1.0000 0.97564  0.40765  0.12263  Biso   1.000  O
  O167     1.0000 0.00514  0.53588  0.17110  Biso   1.000  O
  O168     1.0000 0.04056  0.61039  0.17907  Biso   1.000  O
  C139     1.0000 0.03543  0.33600  0.14560  Biso   1.000  C
  C140     1.0000 0.05544  0.32030  0.16120  Biso   1.000  C
  C141     1.0000 0.05680  0.29280  0.15910  Biso   1.000  C
  C142     1.0000 0.99188  0.42227  0.13418  Biso   1.000  C
  C143     1.0000 0.98392  0.45049  0.13902  Biso   1.000  C
  C144     1.0000 0.00186  0.46802  0.15004  Biso   1.000  C
  O169     1.0000 0.71594  0.36000  0.59960  Biso   1.000  O
  O170     1.0000 0.72893  0.32542  0.62037  Biso   1.000  O
  O171     1.0000 0.65730  0.23844  0.56130  Biso   1.000  O
  O172     1.0000 0.73722  0.41312  0.60735  Biso   1.000  O
  O173     1.0000 0.77436  0.40765  0.62737  Biso   1.000  O
  O174     1.0000 0.74486  0.53588  0.57890  Biso   1.000  O
  O175     1.0000 0.70944  0.61039  0.57093  Biso   1.000  O
  C145     1.0000 0.71457  0.33600  0.60440  Biso   1.000  C
  C146     1.0000 0.69456  0.32030  0.58880  Biso   1.000  C
  C147     1.0000 0.69320  0.29280  0.59090  Biso   1.000  C
  C148     1.0000 0.75812  0.42227  0.61582  Biso   1.000  C
  C149     1.0000 0.76608  0.45049  0.61098  Biso   1.000  C
  C150     1.0000 0.74814  0.46802  0.59996  Biso   1.000  C
  O176     1.0000 0.71594  0.86000  0.09960  Biso   1.000  O
  O177     1.0000 0.72893  0.82542  0.12037  Biso   1.000  O
  O178     1.0000 0.65730  0.73844  0.06130  Biso   1.000  O
  O179     1.0000 0.73722  0.91312  0.10735  Biso   1.000  O
  O180     1.0000 0.77436  0.90765  0.12737  Biso   1.000  O
  O181     1.0000 0.74486  0.03588  0.07890  Biso   1.000  O
  O182     1.0000 0.70944  0.11039  0.07093  Biso   1.000  O
  C151     1.0000 0.71457  0.83600  0.10440  Biso   1.000  C
  C152     1.0000 0.69456  0.82030  0.08880  Biso   1.000  C
  C153     1.0000 0.69320  0.79280  0.09090  Biso   1.000  C
  C154     1.0000 0.75812  0.92227  0.11582  Biso   1.000  C
  C155     1.0000 0.76608  0.95049  0.11098  Biso   1.000  C
  C156     1.0000 0.74814  0.96802  0.09996  Biso   1.000  C
  O183     1.0000 0.21594  0.36000  0.09960  Biso   1.000  O
  O184     1.0000 0.22893  0.32542  0.12037  Biso   1.000  O
  O185     1.0000 0.15730  0.23844  0.06130  Biso   1.000  O
  O186     1.0000 0.23722  0.41312  0.10735  Biso   1.000  O
  O187     1.0000 0.27436  0.40765  0.12737  Biso   1.000  O
  O188     1.0000 0.24486  0.53588  0.07890  Biso   1.000  O
  O189     1.0000 0.20944  0.61039  0.07093  Biso   1.000  O
  C157     1.0000 0.21457  0.33600  0.10440  Biso   1.000  C
  C158     1.0000 0.19456  0.32030  0.08880  Biso   1.000  C
  C159     1.0000 0.19320  0.29280  0.09090  Biso   1.000  C
  C160     1.0000 0.25812  0.42227  0.11582  Biso   1.000  C
  C161     1.0000 0.26608  0.45049  0.11098  Biso   1.000  C
  C162     1.0000 0.24814  0.46802  0.09996  Biso   1.000  C
  O190     1.0000 0.21594  0.86000  0.59960  Biso   1.000  O
  O191     1.0000 0.22893  0.82542  0.62037  Biso   1.000  O
  O192     1.0000 0.15730  0.73844  0.56130  Biso   1.000  O
  O193     1.0000 0.23722  0.91312  0.60735  Biso   1.000  O
  O194     1.0000 0.27436  0.90765  0.62737  Biso   1.000  O
  O195     1.0000 0.24486  0.03588  0.57890  Biso   1.000  O
  O196     1.0000 0.20944  0.11039  0.57093  Biso   1.000  O
  C163     1.0000 0.21457  0.83600  0.60440  Biso   1.000  C
  C164     1.0000 0.19456  0.82030  0.58880  Biso   1.000  C
  C165     1.0000 0.19320  0.79280  0.59090  Biso   1.000  C
  C166     1.0000 0.25812  0.92227  0.61582  Biso   1.000  C
  C167     1.0000 0.26608  0.95049  0.61098  Biso   1.000  C
  C168     1.0000 0.24814  0.96802  0.59996  Biso   1.000  C
  O197     1.0000 0.21594  0.39000  0.65040  Biso   1.000  O
  O198     1.0000 0.22893  0.42458  0.62963  Biso   1.000  O
  O199     1.0000 0.15730  0.51156  0.68870  Biso   1.000  O
  O200     1.0000 0.23722  0.33688  0.64265  Biso   1.000  O
  O201     1.0000 0.27436  0.34235  0.62263  Biso   1.000  O
  O202     1.0000 0.24486  0.21412  0.67110  Biso   1.000  O
  O203     1.0000 0.20944  0.13961  0.67907  Biso   1.000  O
  C169     1.0000 0.21457  0.41400  0.64560  Biso   1.000  C
  C170     1.0000 0.19456  0.42970  0.66120  Biso   1.000  C
  C171     1.0000 0.19320  0.45720  0.65910  Biso   1.000  C
  C172     1.0000 0.25812  0.32773  0.63418  Biso   1.000  C
  C173     1.0000 0.26608  0.29951  0.63902  Biso   1.000  C
  C174     1.0000 0.24814  0.28198  0.65004  Biso   1.000  C
  O204     1.0000 0.21594  0.89000  0.15040  Biso   1.000  O
  O205     1.0000 0.22893  0.92458  0.12963  Biso   1.000  O
  O206     1.0000 0.15730  0.01156  0.18870  Biso   1.000  O
  O207     1.0000 0.23722  0.83688  0.14265  Biso   1.000  O
  O208     1.0000 0.27436  0.84235  0.12263  Biso   1.000  O
  O209     1.0000 0.24486  0.71412  0.17110  Biso   1.000  O
  O210     1.0000 0.20944  0.63961  0.17907  Biso   1.000  O
  C175     1.0000 0.21457  0.91400  0.14560  Biso   1.000  C
  C176     1.0000 0.19456  0.92970  0.16120  Biso   1.000  C
  C177     1.0000 0.19320  0.95720  0.15910  Biso   1.000  C
  C178     1.0000 0.25812  0.82773  0.13418  Biso   1.000  C
  C179     1.0000 0.26608  0.79951  0.13902  Biso   1.000  C
  C180     1.0000 0.24814  0.78198  0.15004  Biso   1.000  C
  O211     1.0000 0.71594  0.39000  0.15040  Biso   1.000  O
  O212     1.0000 0.72893  0.42458  0.12963  Biso   1.000  O
  O213     1.0000 0.65730  0.51156  0.18870  Biso   1.000  O
  O214     1.0000 0.73722  0.33688  0.14265  Biso   1.000  O
  O215     1.0000 0.77436  0.34235  0.12263  Biso   1.000  O
  O216     1.0000 0.74486  0.21412  0.17110  Biso   1.000  O
  O217     1.0000 0.70944  0.13961  0.17907  Biso   1.000  O
  C181     1.0000 0.71457  0.41400  0.14560  Biso   1.000  C
  C182     1.0000 0.69456  0.42970  0.16120  Biso   1.000  C
  C183     1.0000 0.69320  0.45720  0.15910  Biso   1.000  C
  C184     1.0000 0.75812  0.32773  0.13418  Biso   1.000  C
  C185     1.0000 0.76608  0.29951  0.13902  Biso   1.000  C
  C186     1.0000 0.74814  0.28198  0.15004  Biso   1.000  C
  O218     1.0000 0.71594  0.89000  0.65040  Biso   1.000  O
  O219     1.0000 0.72893  0.92458  0.62963  Biso   1.000  O
  O220     1.0000 0.65730  0.01156  0.68870  Biso   1.000  O
  O221     1.0000 0.73722  0.83688  0.64265  Biso   1.000  O
  O222     1.0000 0.77436  0.84235  0.62263  Biso   1.000  O
  O223     1.0000 0.74486  0.71412  0.67110  Biso   1.000  O
  O224     1.0000 0.70944  0.63961  0.67907  Biso   1.000  O
  C187     1.0000 0.71457  0.91400  0.64560  Biso   1.000  C
  C188     1.0000 0.69456  0.92970  0.66120  Biso   1.000  C
  C189     1.0000 0.69320  0.95720  0.65910  Biso   1.000  C
  C190     1.0000 0.75812  0.82773  0.63418  Biso   1.000  C
  C191     1.0000 0.76608  0.79951  0.63902  Biso   1.000  C
  C192     1.0000 0.74814  0.78198  0.65004  Biso   1.000  C
  O225     1.0000 0.09960  0.03406  0.89000  Biso   1.000  O
  O226     1.0000 0.12037  0.02107  0.92458  Biso   1.000  O
  O227     1.0000 0.06130  0.09270  0.01156  Biso   1.000  O
  O228     1.0000 0.10735  0.01278  0.83688  Biso   1.000  O
  O229     1.0000 0.12737  0.97564  0.84235  Biso   1.000  O
  O230     1.0000 0.07890  0.00514  0.71412  Biso   1.000  O
  O231     1.0000 0.07093  0.04056  0.63961  Biso   1.000  O
  C193     1.0000 0.10440  0.03543  0.91400  Biso   1.000  C
  C194     1.0000 0.08880  0.05544  0.92970  Biso   1.000  C
  C195     1.0000 0.09090  0.05680  0.95720  Biso   1.000  C
  C196     1.0000 0.11582  0.99188  0.82773  Biso   1.000  C
  C197     1.0000 0.11098  0.98392  0.79951  Biso   1.000  C
  C198     1.0000 0.09996  0.00186  0.78198  Biso   1.000  C
  O232     1.0000 0.09960  0.53406  0.39000  Biso   1.000  O
  O233     1.0000 0.12037  0.52107  0.42458  Biso   1.000  O
  O234     1.0000 0.06130  0.59270  0.51156  Biso   1.000  O
  O235     1.0000 0.10735  0.51278  0.33688  Biso   1.000  O
  O236     1.0000 0.12737  0.47564  0.34235  Biso   1.000  O
  O237     1.0000 0.07890  0.50514  0.21412  Biso   1.000  O
  O238     1.0000 0.07093  0.54056  0.13961  Biso   1.000  O
  C199     1.0000 0.10440  0.53543  0.41400  Biso   1.000  C
  C200     1.0000 0.08880  0.55544  0.42970  Biso   1.000  C
  C201     1.0000 0.09090  0.55680  0.45720  Biso   1.000  C
  C202     1.0000 0.11582  0.49188  0.32773  Biso   1.000  C
  C203     1.0000 0.11098  0.48392  0.29951  Biso   1.000  C
  C204     1.0000 0.09996  0.50186  0.28198  Biso   1.000  C
  O239     1.0000 0.59960  0.03406  0.39000  Biso   1.000  O
  O240     1.0000 0.62037  0.02107  0.42458  Biso   1.000  O
  O241     1.0000 0.56130  0.09270  0.51156  Biso   1.000  O
  O242     1.0000 0.60735  0.01278  0.33688  Biso   1.000  O
  O243     1.0000 0.62737  0.97564  0.34235  Biso   1.000  O
  O244     1.0000 0.57890  0.00514  0.21412  Biso   1.000  O
  O245     1.0000 0.57093  0.04056  0.13961  Biso   1.000  O
  C205     1.0000 0.60440  0.03543  0.41400  Biso   1.000  C
  C206     1.0000 0.58880  0.05544  0.42970  Biso   1.000  C
  C207     1.0000 0.59090  0.05680  0.45720  Biso   1.000  C
  C208     1.0000 0.61582  0.99188  0.32773  Biso   1.000  C
  C209     1.0000 0.61098  0.98392  0.29951  Biso   1.000  C
  C210     1.0000 0.59996  0.00186  0.28198  Biso   1.000  C
  O246     1.0000 0.59960  0.53406  0.89000  Biso   1.000  O
  O247     1.0000 0.62037  0.52107  0.92458  Biso   1.000  O
  O248     1.0000 0.56130  0.59270  0.01156  Biso   1.000  O
  O249     1.0000 0.60735  0.51278  0.83688  Biso   1.000  O
  O250     1.0000 0.62737  0.47564  0.84235  Biso   1.000  O
  O251     1.0000 0.57890  0.50514  0.71412  Biso   1.000  O
  O252     1.0000 0.57093  0.54056  0.63961  Biso   1.000  O
  C211     1.0000 0.60440  0.53543  0.91400  Biso   1.000  C
  C212     1.0000 0.58880  0.55544  0.92970  Biso   1.000  C
  C213     1.0000 0.59090  0.55680  0.95720  Biso   1.000  C
  C214     1.0000 0.61582  0.49188  0.82773  Biso   1.000  C
  C215     1.0000 0.61098  0.48392  0.79951  Biso   1.000  C
  C216     1.0000 0.59996  0.50186  0.78198  Biso   1.000  C
  O253     1.0000 0.15040  0.53406  0.86000  Biso   1.000  O
  O254     1.0000 0.12963  0.52107  0.82542  Biso   1.000  O
  O255     1.0000 0.18870  0.59270  0.73844  Biso   1.000  O
  O256     1.0000 0.14265  0.51278  0.91312  Biso   1.000  O
  O257     1.0000 0.12263  0.47564  0.90765  Biso   1.000  O
  O258     1.0000 0.17110  0.50514  0.03588  Biso   1.000  O
  O259     1.0000 0.17907  0.54056  0.11039  Biso   1.000  O
  C217     1.0000 0.14560  0.53543  0.83600  Biso   1.000  C
  C218     1.0000 0.16120  0.55544  0.82030  Biso   1.000  C
  C219     1.0000 0.15910  0.55680  0.79280  Biso   1.000  C
  C220     1.0000 0.13418  0.49188  0.92227  Biso   1.000  C
  C221     1.0000 0.13902  0.48392  0.95049  Biso   1.000  C
  C222     1.0000 0.15004  0.50186  0.96802  Biso   1.000  C
  O260     1.0000 0.15040  0.03406  0.36000  Biso   1.000  O
  O261     1.0000 0.12963  0.02107  0.32542  Biso   1.000  O
  O262     1.0000 0.18870  0.09270  0.23844  Biso   1.000  O
  O263     1.0000 0.14265  0.01278  0.41312  Biso   1.000  O
  O264     1.0000 0.12263  0.97564  0.40765  Biso   1.000  O
  O265     1.0000 0.17110  0.00514  0.53588  Biso   1.000  O
  O266     1.0000 0.17907  0.04056  0.61039  Biso   1.000  O
  C223     1.0000 0.14560  0.03543  0.33600  Biso   1.000  C
  C224     1.0000 0.16120  0.05544  0.32030  Biso   1.000  C
  C225     1.0000 0.15910  0.05680  0.29280  Biso   1.000  C
  C226     1.0000 0.13418  0.99188  0.42227  Biso   1.000  C
  C227     1.0000 0.13902  0.98392  0.45049  Biso   1.000  C
  C228     1.0000 0.15004  0.00186  0.46802  Biso   1.000  C
  O267     1.0000 0.65040  0.53406  0.36000  Biso   1.000  O
  O268     1.0000 0.62963  0.52107  0.32542  Biso   1.000  O
  O269     1.0000 0.68870  0.59270  0.23844  Biso   1.000  O
  O270     1.0000 0.64265  0.51278  0.41312  Biso   1.000  O
  O271     1.0000 0.62263  0.47564  0.40765  Biso   1.000  O
  O272     1.0000 0.67110  0.50514  0.53588  Biso   1.000  O
  O273     1.0000 0.67907  0.54056  0.61039  Biso   1.000  O
  C229     1.0000 0.64560  0.53543  0.33600  Biso   1.000  C
  C230     1.0000 0.66120  0.55544  0.32030  Biso   1.000  C
  C231     1.0000 0.65910  0.55680  0.29280  Biso   1.000  C
  C232     1.0000 0.63418  0.49188  0.42227  Biso   1.000  C
  C233     1.0000 0.63902  0.48392  0.45049  Biso   1.000  C
  C234     1.0000 0.65004  0.50186  0.46802  Biso   1.000  C
  O274     1.0000 0.65040  0.03406  0.86000  Biso   1.000  O
  O275     1.0000 0.62963  0.02107  0.82542  Biso   1.000  O
  O276     1.0000 0.68870  0.09270  0.73844  Biso   1.000  O
  O277     1.0000 0.64265  0.01278  0.91312  Biso   1.000  O
  O278     1.0000 0.62263  0.97564  0.90765  Biso   1.000  O
  O279     1.0000 0.67110  0.00514  0.03588  Biso   1.000  O
  O280     1.0000 0.67907  0.04056  0.11039  Biso   1.000  O
  C235     1.0000 0.64560  0.03543  0.83600  Biso   1.000  C
  C236     1.0000 0.66120  0.05544  0.82030  Biso   1.000  C
  C237     1.0000 0.65910  0.05680  0.79280  Biso   1.000  C
  C238     1.0000 0.63418  0.99188  0.92227  Biso   1.000  C
  C239     1.0000 0.63902  0.98392  0.95049  Biso   1.000  C
  C240     1.0000 0.65004  0.00186  0.96802  Biso   1.000  C
  O281     1.0000 0.59960  0.71594  0.36000  Biso   1.000  O
  O282     1.0000 0.62037  0.72893  0.32542  Biso   1.000  O
  O283     1.0000 0.56130  0.65730  0.23844  Biso   1.000  O
  O284     1.0000 0.60735  0.73722  0.41312  Biso   1.000  O
  O285     1.0000 0.62737  0.77436  0.40765  Biso   1.000  O
  O286     1.0000 0.57890  0.74486  0.53588  Biso   1.000  O
  O287     1.0000 0.57093  0.70944  0.61039  Biso   1.000  O
  C241     1.0000 0.60440  0.71457  0.33600  Biso   1.000  C
  C242     1.0000 0.58880  0.69456  0.32030  Biso   1.000  C
  C243     1.0000 0.59090  0.69320  0.29280  Biso   1.000  C
  C244     1.0000 0.61582  0.75812  0.42227  Biso   1.000  C
  C245     1.0000 0.61098  0.76608  0.45049  Biso   1.000  C
  C246     1.0000 0.59996  0.74814  0.46802  Biso   1.000  C
  O288     1.0000 0.59960  0.21594  0.86000  Biso   1.000  O
  O289     1.0000 0.62037  0.22893  0.82542  Biso   1.000  O
  O290     1.0000 0.56130  0.15730  0.73844  Biso   1.000  O
  O291     1.0000 0.60735  0.23722  0.91312  Biso   1.000  O
  O292     1.0000 0.62737  0.27436  0.90765  Biso   1.000  O
  O293     1.0000 0.57890  0.24486  0.03588  Biso   1.000  O
  O294     1.0000 0.57093  0.20944  0.11039  Biso   1.000  O
  C247     1.0000 0.60440  0.21457  0.83600  Biso   1.000  C
  C248     1.0000 0.58880  0.19456  0.82030  Biso   1.000  C
  C249     1.0000 0.59090  0.19320  0.79280  Biso   1.000  C
  C250     1.0000 0.61582  0.25812  0.92227  Biso   1.000  C
  C251     1.0000 0.61098  0.26608  0.95049  Biso   1.000  C
  C252     1.0000 0.59996  0.24814  0.96802  Biso   1.000  C
  O295     1.0000 0.09960  0.71594  0.86000  Biso   1.000  O
  O296     1.0000 0.12037  0.72893  0.82542  Biso   1.000  O
  O297     1.0000 0.06130  0.65730  0.73844  Biso   1.000  O
  O298     1.0000 0.10735  0.73722  0.91312  Biso   1.000  O
  O299     1.0000 0.12737  0.77436  0.90765  Biso   1.000  O
  O300     1.0000 0.07890  0.74486  0.03588  Biso   1.000  O
  O301     1.0000 0.07093  0.70944  0.11039  Biso   1.000  O
  C253     1.0000 0.10440  0.71457  0.83600  Biso   1.000  C
  C254     1.0000 0.08880  0.69456  0.82030  Biso   1.000  C
  C255     1.0000 0.09090  0.69320  0.79280  Biso   1.000  C
  C256     1.0000 0.11582  0.75812  0.92227  Biso   1.000  C
  C257     1.0000 0.11098  0.76608  0.95049  Biso   1.000  C
  C258     1.0000 0.09996  0.74814  0.96802  Biso   1.000  C
  O302     1.0000 0.09960  0.21594  0.36000  Biso   1.000  O
  O303     1.0000 0.12037  0.22893  0.32542  Biso   1.000  O
  O304     1.0000 0.06130  0.15730  0.23844  Biso   1.000  O
  O305     1.0000 0.10735  0.23722  0.41312  Biso   1.000  O
  O306     1.0000 0.12737  0.27436  0.40765  Biso   1.000  O
  O307     1.0000 0.07890  0.24486  0.53588  Biso   1.000  O
  O308     1.0000 0.07093  0.20944  0.61039  Biso   1.000  O
  C259     1.0000 0.10440  0.21457  0.33600  Biso   1.000  C
  C260     1.0000 0.08880  0.19456  0.32030  Biso   1.000  C
  C261     1.0000 0.09090  0.19320  0.29280  Biso   1.000  C
  C262     1.0000 0.11582  0.25812  0.42227  Biso   1.000  C
  C263     1.0000 0.11098  0.26608  0.45049  Biso   1.000  C
  C264     1.0000 0.09996  0.24814  0.46802  Biso   1.000  C
  O309     1.0000 0.65040  0.21594  0.39000  Biso   1.000  O
  O310     1.0000 0.62963  0.22893  0.42458  Biso   1.000  O
  O311     1.0000 0.68870  0.15730  0.51156  Biso   1.000  O
  O312     1.0000 0.64265  0.23722  0.33688  Biso   1.000  O
  O313     1.0000 0.62263  0.27436  0.34235  Biso   1.000  O
  O314     1.0000 0.67110  0.24486  0.21412  Biso   1.000  O
  O315     1.0000 0.67907  0.20944  0.13961  Biso   1.000  O
  C265     1.0000 0.64560  0.21457  0.41400  Biso   1.000  C
  C266     1.0000 0.66120  0.19456  0.42970  Biso   1.000  C
  C267     1.0000 0.65910  0.19320  0.45720  Biso   1.000  C
  C268     1.0000 0.63418  0.25812  0.32773  Biso   1.000  C
  C269     1.0000 0.63902  0.26608  0.29951  Biso   1.000  C
  C270     1.0000 0.65004  0.24814  0.28198  Biso   1.000  C
  O316     1.0000 0.65040  0.71594  0.89000  Biso   1.000  O
  O317     1.0000 0.62963  0.72893  0.92458  Biso   1.000  O
  O318     1.0000 0.68870  0.65730  0.01156  Biso   1.000  O
  O319     1.0000 0.64265  0.73722  0.83688  Biso   1.000  O
  O320     1.0000 0.62263  0.77436  0.84235  Biso   1.000  O
  O321     1.0000 0.67110  0.74486  0.71412  Biso   1.000  O
  O322     1.0000 0.67907  0.70944  0.63961  Biso   1.000  O
  C271     1.0000 0.64560  0.71457  0.91400  Biso   1.000  C
  C272     1.0000 0.66120  0.69456  0.92970  Biso   1.000  C
  C273     1.0000 0.65910  0.69320  0.95720  Biso   1.000  C
  C274     1.0000 0.63418  0.75812  0.82773  Biso   1.000  C
  C275     1.0000 0.63902  0.76608  0.79951  Biso   1.000  C
  C276     1.0000 0.65004  0.74814  0.78198  Biso   1.000  C
  O323     1.0000 0.15040  0.21594  0.89000  Biso   1.000  O
  O324     1.0000 0.12963  0.22893  0.92458  Biso   1.000  O
  O325     1.0000 0.18870  0.15730  0.01156  Biso   1.000  O
  O326     1.0000 0.14265  0.23722  0.83688  Biso   1.000  O
  O327     1.0000 0.12263  0.27436  0.84235  Biso   1.000  O
  O328     1.0000 0.17110  0.24486  0.71412  Biso   1.000  O
  O329     1.0000 0.17907  0.20944  0.63961  Biso   1.000  O
  C277     1.0000 0.14560  0.21457  0.91400  Biso   1.000  C
  C278     1.0000 0.16120  0.19456  0.92970  Biso   1.000  C
  C279     1.0000 0.15910  0.19320  0.95720  Biso   1.000  C
  C280     1.0000 0.13418  0.25812  0.82773  Biso   1.000  C
  C281     1.0000 0.13902  0.26608  0.79951  Biso   1.000  C
  C282     1.0000 0.15004  0.24814  0.78198  Biso   1.000  C
  O330     1.0000 0.15040  0.71594  0.39000  Biso   1.000  O
  O331     1.0000 0.12963  0.72893  0.42458  Biso   1.000  O
  O332     1.0000 0.18870  0.65730  0.51156  Biso   1.000  O
  O333     1.0000 0.14265  0.73722  0.33688  Biso   1.000  O
  O334     1.0000 0.12263  0.77436  0.34235  Biso   1.000  O
  O335     1.0000 0.17110  0.74486  0.21412  Biso   1.000  O
  O336     1.0000 0.17907  0.70944  0.13961  Biso   1.000  O
  C283     1.0000 0.14560  0.71457  0.41400  Biso   1.000  C
  C284     1.0000 0.16120  0.69456  0.42970  Biso   1.000  C
  C285     1.0000 0.15910  0.69320  0.45720  Biso   1.000  C
  C286     1.0000 0.13418  0.75812  0.32773  Biso   1.000  C
  C287     1.0000 0.13902  0.76608  0.29951  Biso   1.000  C
  C288     1.0000 0.15004  0.74814  0.28198  Biso   1.000  C
  O337     1.0000 0.84960  0.14000  0.46594  Biso   1.000  O
  O338     1.0000 0.87037  0.17458  0.47893  Biso   1.000  O
  O339     1.0000 0.81130  0.26156  0.40730  Biso   1.000  O
  O340     1.0000 0.85735  0.08688  0.48722  Biso   1.000  O
  O341     1.0000 0.87737  0.09235  0.52436  Biso   1.000  O
  O342     1.0000 0.82890  0.96412  0.49486  Biso   1.000  O
  O343     1.0000 0.82093  0.88961  0.45944  Biso   1.000  O
  C289     1.0000 0.85440  0.16400  0.46457  Biso   1.000  C
  C290     1.0000 0.83880  0.17970  0.44456  Biso   1.000  C
  C291     1.0000 0.84090  0.20720  0.44320  Biso   1.000  C
  C292     1.0000 0.86582  0.07773  0.50812  Biso   1.000  C
  C293     1.0000 0.86098  0.04951  0.51608  Biso   1.000  C
  C294     1.0000 0.84996  0.03198  0.49814  Biso   1.000  C
  O344     1.0000 0.84960  0.64000  0.96594  Biso   1.000  O
  O345     1.0000 0.87037  0.67458  0.97893  Biso   1.000  O
  O346     1.0000 0.81130  0.76156  0.90730  Biso   1.000  O
  O347     1.0000 0.85735  0.58688  0.98722  Biso   1.000  O
  O348     1.0000 0.87737  0.59235  0.02436  Biso   1.000  O
  O349     1.0000 0.82890  0.46412  0.99486  Biso   1.000  O
  O350     1.0000 0.82093  0.38961  0.95944  Biso   1.000  O
  C295     1.0000 0.85440  0.66400  0.96457  Biso   1.000  C
  C296     1.0000 0.83880  0.67970  0.94456  Biso   1.000  C
  C297     1.0000 0.84090  0.70720  0.94320  Biso   1.000  C
  C298     1.0000 0.86582  0.57773  0.00812  Biso   1.000  C
  C299     1.0000 0.86098  0.54951  0.01608  Biso   1.000  C
  C300     1.0000 0.84996  0.53198  0.99814  Biso   1.000  C
  O351     1.0000 0.34960  0.14000  0.96594  Biso   1.000  O
  O352     1.0000 0.37037  0.17458  0.97893  Biso   1.000  O
  O353     1.0000 0.31130  0.26156  0.90730  Biso   1.000  O
  O354     1.0000 0.35735  0.08688  0.98722  Biso   1.000  O
  O355     1.0000 0.37737  0.09235  0.02436  Biso   1.000  O
  O356     1.0000 0.32890  0.96412  0.99486  Biso   1.000  O
  O357     1.0000 0.32093  0.88961  0.95944  Biso   1.000  O
  C301     1.0000 0.35440  0.16400  0.96457  Biso   1.000  C
  C302     1.0000 0.33880  0.17970  0.94456  Biso   1.000  C
  C303     1.0000 0.34090  0.20720  0.94320  Biso   1.000  C
  C304     1.0000 0.36582  0.07773  0.00812  Biso   1.000  C
  C305     1.0000 0.36098  0.04951  0.01608  Biso   1.000  C
  C306     1.0000 0.34996  0.03198  0.99814  Biso   1.000  C
  O358     1.0000 0.34960  0.64000  0.46594  Biso   1.000  O
  O359     1.0000 0.37037  0.67458  0.47893  Biso   1.000  O
  O360     1.0000 0.31130  0.76156  0.40730  Biso   1.000  O
  O361     1.0000 0.35735  0.58688  0.48722  Biso   1.000  O
  O362     1.0000 0.37737  0.59235  0.52436  Biso   1.000  O
  O363     1.0000 0.32890  0.46412  0.49486  Biso   1.000  O
  O364     1.0000 0.32093  0.38961  0.45944  Biso   1.000  O
  C307     1.0000 0.35440  0.66400  0.46457  Biso   1.000  C
  C308     1.0000 0.33880  0.67970  0.44456  Biso   1.000  C
  C309     1.0000 0.34090  0.70720  0.44320  Biso   1.000  C
  C310     1.0000 0.36582  0.57773  0.50812  Biso   1.000  C
  C311     1.0000 0.36098  0.54951  0.51608  Biso   1.000  C
  C312     1.0000 0.34996  0.53198  0.49814  Biso   1.000  C
  O365     1.0000 0.90040  0.11000  0.96594  Biso   1.000  O
  O366     1.0000 0.87963  0.07542  0.97893  Biso   1.000  O
  O367     1.0000 0.93870  0.98844  0.90730  Biso   1.000  O
  O368     1.0000 0.89265  0.16312  0.98722  Biso   1.000  O
  O369     1.0000 0.87263  0.15765  0.02436  Biso   1.000  O
  O370     1.0000 0.92110  0.28588  0.99486  Biso   1.000  O
  O371     1.0000 0.92907  0.36039  0.95944  Biso   1.000  O
  C313     1.0000 0.89560  0.08600  0.96457  Biso   1.000  C
  C314     1.0000 0.91120  0.07030  0.94456  Biso   1.000  C
  C315     1.0000 0.90910  0.04280  0.94320  Biso   1.000  C
  C316     1.0000 0.88418  0.17227  0.00812  Biso   1.000  C
  C317     1.0000 0.88902  0.20049  0.01608  Biso   1.000  C
  C318     1.0000 0.90004  0.21802  0.99814  Biso   1.000  C
  O372     1.0000 0.90040  0.61000  0.46594  Biso   1.000  O
  O373     1.0000 0.87963  0.57542  0.47893  Biso   1.000  O
  O374     1.0000 0.93870  0.48844  0.40730  Biso   1.000  O
  O375     1.0000 0.89265  0.66312  0.48722  Biso   1.000  O
  O376     1.0000 0.87263  0.65765  0.52436  Biso   1.000  O
  O377     1.0000 0.92110  0.78588  0.49486  Biso   1.000  O
  O378     1.0000 0.92907  0.86039  0.45944  Biso   1.000  O
  C319     1.0000 0.89560  0.58600  0.46457  Biso   1.000  C
  C320     1.0000 0.91120  0.57030  0.44456  Biso   1.000  C
  C321     1.0000 0.90910  0.54280  0.44320  Biso   1.000  C
  C322     1.0000 0.88418  0.67227  0.50812  Biso   1.000  C
  C323     1.0000 0.88902  0.70049  0.51608  Biso   1.000  C
  C324     1.0000 0.90004  0.71802  0.49814  Biso   1.000  C
  O379     1.0000 0.40040  0.11000  0.46594  Biso   1.000  O
  O380     1.0000 0.37963  0.07542  0.47893  Biso   1.000  O
  O381     1.0000 0.43870  0.98844  0.40730  Biso   1.000  O
  O382     1.0000 0.39265  0.16312  0.48722  Biso   1.000  O
  O383     1.0000 0.37263  0.15765  0.52436  Biso   1.000  O
  O384     1.0000 0.42110  0.28588  0.49486  Biso   1.000  O
  O385     1.0000 0.42907  0.36039  0.45944  Biso   1.000  O
  C325     1.0000 0.39560  0.08600  0.46457  Biso   1.000  C
  C326     1.0000 0.41120  0.07030  0.44456  Biso   1.000  C
  C327     1.0000 0.40910  0.04280  0.44320  Biso   1.000  C
  C328     1.0000 0.38418  0.17227  0.50812  Biso   1.000  C
  C329     1.0000 0.38902  0.20049  0.51608  Biso   1.000  C
  C330     1.0000 0.40004  0.21802  0.49814  Biso   1.000  C
  O386     1.0000 0.40040  0.61000  0.96594  Biso   1.000  O
  O387     1.0000 0.37963  0.57542  0.97893  Biso   1.000  O
  O388     1.0000 0.43870  0.48844  0.90730  Biso   1.000  O
  O389     1.0000 0.39265  0.66312  0.98722  Biso   1.000  O
  O390     1.0000 0.37263  0.65765  0.02436  Biso   1.000  O
  O391     1.0000 0.42110  0.78588  0.99486  Biso   1.000  O
  O392     1.0000 0.42907  0.86039  0.95944  Biso   1.000  O
  C331     1.0000 0.39560  0.58600  0.96457  Biso   1.000  C
  C332     1.0000 0.41120  0.57030  0.94456  Biso   1.000  C
  C333     1.0000 0.40910  0.54280  0.94320  Biso   1.000  C
  C334     1.0000 0.38418  0.67227  0.00812  Biso   1.000  C
  C335     1.0000 0.38902  0.70049  0.01608  Biso   1.000  C
  C336     1.0000 0.40004  0.71802  0.99814  Biso   1.000  C
  O393     1.0000 0.34960  0.61000  0.78406  Biso   1.000  O
  O394     1.0000 0.37037  0.57542  0.77107  Biso   1.000  O
  O395     1.0000 0.31130  0.48844  0.84270  Biso   1.000  O
  O396     1.0000 0.35735  0.66312  0.76278  Biso   1.000  O
  O397     1.0000 0.37737  0.65765  0.72564  Biso   1.000  O
  O398     1.0000 0.32890  0.78588  0.75514  Biso   1.000  O
  O399     1.0000 0.32093  0.86039  0.79056  Biso   1.000  O
  C337     1.0000 0.35440  0.58600  0.78543  Biso   1.000  C
  C338     1.0000 0.33880  0.57030  0.80544  Biso   1.000  C
  C339     1.0000 0.34090  0.54280  0.80680  Biso   1.000  C
  C340     1.0000 0.36582  0.67227  0.74188  Biso   1.000  C
  C341     1.0000 0.36098  0.70049  0.73392  Biso   1.000  C
  C342     1.0000 0.34996  0.71802  0.75186  Biso   1.000  C
  O400     1.0000 0.34960  0.11000  0.28406  Biso   1.000  O
  O401     1.0000 0.37037  0.07542  0.27107  Biso   1.000  O
  O402     1.0000 0.31130  0.98844  0.34270  Biso   1.000  O
  O403     1.0000 0.35735  0.16312  0.26278  Biso   1.000  O
  O404     1.0000 0.37737  0.15765  0.22564  Biso   1.000  O
  O405     1.0000 0.32890  0.28588  0.25514  Biso   1.000  O
  O406     1.0000 0.32093  0.36039  0.29056  Biso   1.000  O
  C343     1.0000 0.35440  0.08600  0.28543  Biso   1.000  C
  C344     1.0000 0.33880  0.07030  0.30544  Biso   1.000  C
  C345     1.0000 0.34090  0.04280  0.30680  Biso   1.000  C
  C346     1.0000 0.36582  0.17227  0.24188  Biso   1.000  C
  C347     1.0000 0.36098  0.20049  0.23392  Biso   1.000  C
  C348     1.0000 0.34996  0.21802  0.25186  Biso   1.000  C
  O407     1.0000 0.84960  0.61000  0.28406  Biso   1.000  O
  O408     1.0000 0.87037  0.57542  0.27107  Biso   1.000  O
  O409     1.0000 0.81130  0.48844  0.34270  Biso   1.000  O
  O410     1.0000 0.85735  0.66312  0.26278  Biso   1.000  O
  O411     1.0000 0.87737  0.65765  0.22564  Biso   1.000  O
  O412     1.0000 0.82890  0.78588  0.25514  Biso   1.000  O
  O413     1.0000 0.82093  0.86039  0.29056  Biso   1.000  O
  C349     1.0000 0.85440  0.58600  0.28543  Biso   1.000  C
  C350     1.0000 0.83880  0.57030  0.30544  Biso   1.000  C
  C351     1.0000 0.84090  0.54280  0.30680  Biso   1.000  C
  C352     1.0000 0.86582  0.67227  0.24188  Biso   1.000  C
  C353     1.0000 0.86098  0.70049  0.23392  Biso   1.000  C
  C354     1.0000 0.84996  0.71802  0.25186  Biso   1.000  C
  O414     1.0000 0.84960  0.11000  0.78406  Biso   1.000  O
  O415     1.0000 0.87037  0.07542  0.77107  Biso   1.000  O
  O416     1.0000 0.81130  0.98844  0.84270  Biso   1.000  O
  O417     1.0000 0.85735  0.16312  0.76278  Biso   1.000  O
  O418     1.0000 0.87737  0.15765  0.72564  Biso   1.000  O
  O419     1.0000 0.82890  0.28588  0.75514  Biso   1.000  O
  O420     1.0000 0.82093  0.36039  0.79056  Biso   1.000  O
  C355     1.0000 0.85440  0.08600  0.78543  Biso   1.000  C
  C356     1.0000 0.83880  0.07030  0.80544  Biso   1.000  C
  C357     1.0000 0.84090  0.04280  0.80680  Biso   1.000  C
  C358     1.0000 0.86582  0.17227  0.74188  Biso   1.000  C
  C359     1.0000 0.86098  0.20049  0.73392  Biso   1.000  C
  C360     1.0000 0.84996  0.21802  0.75186  Biso   1.000  C
  O421     1.0000 0.40040  0.64000  0.28406  Biso   1.000  O
  O422     1.0000 0.37963  0.67458  0.27107  Biso   1.000  O
  O423     1.0000 0.43870  0.76156  0.34270  Biso   1.000  O
  O424     1.0000 0.39265  0.58688  0.26278  Biso   1.000  O
  O425     1.0000 0.37263  0.59235  0.22564  Biso   1.000  O
  O426     1.0000 0.42110  0.46412  0.25514  Biso   1.000  O
  O427     1.0000 0.42907  0.38961  0.29056  Biso   1.000  O
  C361     1.0000 0.39560  0.66400  0.28543  Biso   1.000  C
  C362     1.0000 0.41120  0.67970  0.30544  Biso   1.000  C
  C363     1.0000 0.40910  0.70720  0.30680  Biso   1.000  C
  C364     1.0000 0.38418  0.57773  0.24188  Biso   1.000  C
  C365     1.0000 0.38902  0.54951  0.23392  Biso   1.000  C
  C366     1.0000 0.40004  0.53198  0.25186  Biso   1.000  C
  O428     1.0000 0.40040  0.14000  0.78406  Biso   1.000  O
  O429     1.0000 0.37963  0.17458  0.77107  Biso   1.000  O
  O430     1.0000 0.43870  0.26156  0.84270  Biso   1.000  O
  O431     1.0000 0.39265  0.08688  0.76278  Biso   1.000  O
  O432     1.0000 0.37263  0.09235  0.72564  Biso   1.000  O
  O433     1.0000 0.42110  0.96412  0.75514  Biso   1.000  O
  O434     1.0000 0.42907  0.88961  0.79056  Biso   1.000  O
  C367     1.0000 0.39560  0.16400  0.78543  Biso   1.000  C
  C368     1.0000 0.41120  0.17970  0.80544  Biso   1.000  C
  C369     1.0000 0.40910  0.20720  0.80680  Biso   1.000  C
  C370     1.0000 0.38418  0.07773  0.74188  Biso   1.000  C
  C371     1.0000 0.38902  0.04951  0.73392  Biso   1.000  C
  C372     1.0000 0.40004  0.03198  0.75186  Biso   1.000  C
  O435     1.0000 0.90040  0.64000  0.78406  Biso   1.000  O
  O436     1.0000 0.87963  0.67458  0.77107  Biso   1.000  O
  O437     1.0000 0.93870  0.76156  0.84270  Biso   1.000  O
  O438     1.0000 0.89265  0.58688  0.76278  Biso   1.000  O
  O439     1.0000 0.87263  0.59235  0.72564  Biso   1.000  O
  O440     1.0000 0.92110  0.46412  0.75514  Biso   1.000  O
  O441     1.0000 0.92907  0.38961  0.79056  Biso   1.000  O
  C373     1.0000 0.89560  0.66400  0.78543  Biso   1.000  C
  C374     1.0000 0.91120  0.67970  0.80544  Biso   1.000  C
  C375     1.0000 0.90910  0.70720  0.80680  Biso   1.000  C
  C376     1.0000 0.88418  0.57773  0.74188  Biso   1.000  C
  C377     1.0000 0.88902  0.54951  0.73392  Biso   1.000  C
  C378     1.0000 0.90004  0.53198  0.75186  Biso   1.000  C
  O442     1.0000 0.90040  0.14000  0.28406  Biso   1.000  O
  O443     1.0000 0.87963  0.17458  0.27107  Biso   1.000  O
  O444     1.0000 0.93870  0.26156  0.34270  Biso   1.000  O
  O445     1.0000 0.89265  0.08688  0.26278  Biso   1.000  O
  O446     1.0000 0.87263  0.09235  0.22564  Biso   1.000  O
  O447     1.0000 0.92110  0.96412  0.25514  Biso   1.000  O
  O448     1.0000 0.92907  0.88961  0.29056  Biso   1.000  O
  C379     1.0000 0.89560  0.16400  0.28543  Biso   1.000  C
  C380     1.0000 0.91120  0.17970  0.30544  Biso   1.000  C
  C381     1.0000 0.90910  0.20720  0.30680  Biso   1.000  C
  C382     1.0000 0.88418  0.07773  0.24188  Biso   1.000  C
  C383     1.0000 0.88902  0.04951  0.23392  Biso   1.000  C
  C384     1.0000 0.90004  0.03198  0.25186  Biso   1.000  C
  O449     1.0000 0.64000  0.28406  0.40040  Biso   1.000  O
  O450     1.0000 0.67458  0.27107  0.37963  Biso   1.000  O
  O451     1.0000 0.76156  0.34270  0.43870  Biso   1.000  O
  O452     1.0000 0.58688  0.26278  0.39265  Biso   1.000  O
  O453     1.0000 0.59235  0.22564  0.37263  Biso   1.000  O
  O454     1.0000 0.46412  0.25514  0.42110  Biso   1.000  O
  O455     1.0000 0.38961  0.29056  0.42907  Biso   1.000  O
  C385     1.0000 0.66400  0.28543  0.39560  Biso   1.000  C
  C386     1.0000 0.67970  0.30544  0.41120  Biso   1.000  C
  C387     1.0000 0.70720  0.30680  0.40910  Biso   1.000  C
  C388     1.0000 0.57773  0.24188  0.38418  Biso   1.000  C
  C389     1.0000 0.54951  0.23392  0.38902  Biso   1.000  C
  C390     1.0000 0.53198  0.25186  0.40004  Biso   1.000  C
  O456     1.0000 0.64000  0.78406  0.90040  Biso   1.000  O
  O457     1.0000 0.67458  0.77107  0.87963  Biso   1.000  O
  O458     1.0000 0.76156  0.84270  0.93870  Biso   1.000  O
  O459     1.0000 0.58688  0.76278  0.89265  Biso   1.000  O
  O460     1.0000 0.59235  0.72564  0.87263  Biso   1.000  O
  O461     1.0000 0.46412  0.75514  0.92110  Biso   1.000  O
  O462     1.0000 0.38961  0.79056  0.92907  Biso   1.000  O
  C391     1.0000 0.66400  0.78543  0.89560  Biso   1.000  C
  C392     1.0000 0.67970  0.80544  0.91120  Biso   1.000  C
  C393     1.0000 0.70720  0.80680  0.90910  Biso   1.000  C
  C394     1.0000 0.57773  0.74188  0.88418  Biso   1.000  C
  C395     1.0000 0.54951  0.73392  0.88902  Biso   1.000  C
  C396     1.0000 0.53198  0.75186  0.90004  Biso   1.000  C
  O463     1.0000 0.14000  0.28406  0.90040  Biso   1.000  O
  O464     1.0000 0.17458  0.27107  0.87963  Biso   1.000  O
  O465     1.0000 0.26156  0.34270  0.93870  Biso   1.000  O
  O466     1.0000 0.08688  0.26278  0.89265  Biso   1.000  O
  O467     1.0000 0.09235  0.22564  0.87263  Biso   1.000  O
  O468     1.0000 0.96412  0.25514  0.92110  Biso   1.000  O
  O469     1.0000 0.88961  0.29056  0.92907  Biso   1.000  O
  C397     1.0000 0.16400  0.28543  0.89560  Biso   1.000  C
  C398     1.0000 0.17970  0.30544  0.91120  Biso   1.000  C
  C399     1.0000 0.20720  0.30680  0.90910  Biso   1.000  C
  C400     1.0000 0.07773  0.24188  0.88418  Biso   1.000  C
  C401     1.0000 0.04951  0.23392  0.88902  Biso   1.000  C
  C402     1.0000 0.03198  0.25186  0.90004  Biso   1.000  C
  O470     1.0000 0.14000  0.78406  0.40040  Biso   1.000  O
  O471     1.0000 0.17458  0.77107  0.37963  Biso   1.000  O
  O472     1.0000 0.26156  0.84270  0.43870  Biso   1.000  O
  O473     1.0000 0.08688  0.76278  0.39265  Biso   1.000  O
  O474     1.0000 0.09235  0.72564  0.37263  Biso   1.000  O
  O475     1.0000 0.96412  0.75514  0.42110  Biso   1.000  O
  O476     1.0000 0.88961  0.79056  0.42907  Biso   1.000  O
  C403     1.0000 0.16400  0.78543  0.39560  Biso   1.000  C
  C404     1.0000 0.17970  0.80544  0.41120  Biso   1.000  C
  C405     1.0000 0.20720  0.80680  0.40910  Biso   1.000  C
  C406     1.0000 0.07773  0.74188  0.38418  Biso   1.000  C
  C407     1.0000 0.04951  0.73392  0.38902  Biso   1.000  C
  C408     1.0000 0.03198  0.75186  0.40004  Biso   1.000  C
  O477     1.0000 0.61000  0.78406  0.34960  Biso   1.000  O
  O478     1.0000 0.57542  0.77107  0.37037  Biso   1.000  O
  O479     1.0000 0.48844  0.84270  0.31130  Biso   1.000  O
  O480     1.0000 0.66312  0.76278  0.35735  Biso   1.000  O
  O481     1.0000 0.65765  0.72564  0.37737  Biso   1.000  O
  O482     1.0000 0.78588  0.75514  0.32890  Biso   1.000  O
  O483     1.0000 0.86039  0.79056  0.32093  Biso   1.000  O
  C409     1.0000 0.58600  0.78543  0.35440  Biso   1.000  C
  C410     1.0000 0.57030  0.80544  0.33880  Biso   1.000  C
  C411     1.0000 0.54280  0.80680  0.34090  Biso   1.000  C
  C412     1.0000 0.67227  0.74188  0.36582  Biso   1.000  C
  C413     1.0000 0.70049  0.73392  0.36098  Biso   1.000  C
  C414     1.0000 0.71802  0.75186  0.34996  Biso   1.000  C
  O484     1.0000 0.61000  0.28406  0.84960  Biso   1.000  O
  O485     1.0000 0.57542  0.27107  0.87037  Biso   1.000  O
  O486     1.0000 0.48844  0.34270  0.81130  Biso   1.000  O
  O487     1.0000 0.66312  0.26278  0.85735  Biso   1.000  O
  O488     1.0000 0.65765  0.22564  0.87737  Biso   1.000  O
  O489     1.0000 0.78588  0.25514  0.82890  Biso   1.000  O
  O490     1.0000 0.86039  0.29056  0.82093  Biso   1.000  O
  C415     1.0000 0.58600  0.28543  0.85440  Biso   1.000  C
  C416     1.0000 0.57030  0.30544  0.83880  Biso   1.000  C
  C417     1.0000 0.54280  0.30680  0.84090  Biso   1.000  C
  C418     1.0000 0.67227  0.24188  0.86582  Biso   1.000  C
  C419     1.0000 0.70049  0.23392  0.86098  Biso   1.000  C
  C420     1.0000 0.71802  0.25186  0.84996  Biso   1.000  C
  O491     1.0000 0.11000  0.78406  0.84960  Biso   1.000  O
  O492     1.0000 0.07542  0.77107  0.87037  Biso   1.000  O
  O493     1.0000 0.98844  0.84270  0.81130  Biso   1.000  O
  O494     1.0000 0.16312  0.76278  0.85735  Biso   1.000  O
  O495     1.0000 0.15765  0.72564  0.87737  Biso   1.000  O
  O496     1.0000 0.28588  0.75514  0.82890  Biso   1.000  O
  O497     1.0000 0.36039  0.79056  0.82093  Biso   1.000  O
  C421     1.0000 0.08600  0.78543  0.85440  Biso   1.000  C
  C422     1.0000 0.07030  0.80544  0.83880  Biso   1.000  C
  C423     1.0000 0.04280  0.80680  0.84090  Biso   1.000  C
  C424     1.0000 0.17227  0.74188  0.86582  Biso   1.000  C
  C425     1.0000 0.20049  0.73392  0.86098  Biso   1.000  C
  C426     1.0000 0.21802  0.75186  0.84996  Biso   1.000  C
  O498     1.0000 0.11000  0.28406  0.34960  Biso   1.000  O
  O499     1.0000 0.07542  0.27107  0.37037  Biso   1.000  O
  O500     1.0000 0.98844  0.34270  0.31130  Biso   1.000  O
  O501     1.0000 0.16312  0.26278  0.35735  Biso   1.000  O
  O502     1.0000 0.15765  0.22564  0.37737  Biso   1.000  O
  O503     1.0000 0.28588  0.25514  0.32890  Biso   1.000  O
  O504     1.0000 0.36039  0.29056  0.32093  Biso   1.000  O
  C427     1.0000 0.08600  0.28543  0.35440  Biso   1.000  C
  C428     1.0000 0.07030  0.30544  0.33880  Biso   1.000  C
  C429     1.0000 0.04280  0.30680  0.34090  Biso   1.000  C
  C430     1.0000 0.17227  0.24188  0.36582  Biso   1.000  C
  C431     1.0000 0.20049  0.23392  0.36098  Biso   1.000  C
  C432     1.0000 0.21802  0.25186  0.34996  Biso   1.000  C
  O505     1.0000 0.11000  0.96594  0.90040  Biso   1.000  O
  O506     1.0000 0.07542  0.97893  0.87963  Biso   1.000  O
  O507     1.0000 0.98844  0.90730  0.93870  Biso   1.000  O
  O508     1.0000 0.16312  0.98722  0.89265  Biso   1.000  O
  O509     1.0000 0.15765  0.02436  0.87263  Biso   1.000  O
  O510     1.0000 0.28588  0.99486  0.92110  Biso   1.000  O
  O511     1.0000 0.36039  0.95944  0.92907  Biso   1.000  O
  C433     1.0000 0.08600  0.96457  0.89560  Biso   1.000  C
  C434     1.0000 0.07030  0.94456  0.91120  Biso   1.000  C
  C435     1.0000 0.04280  0.94320  0.90910  Biso   1.000  C
  C436     1.0000 0.17227  0.00812  0.88418  Biso   1.000  C
  C437     1.0000 0.20049  0.01608  0.88902  Biso   1.000  C
  C438     1.0000 0.21802  0.99814  0.90004  Biso   1.000  C
  O512     1.0000 0.11000  0.46594  0.40040  Biso   1.000  O
  O513     1.0000 0.07542  0.47893  0.37963  Biso   1.000  O
  O514     1.0000 0.98844  0.40730  0.43870  Biso   1.000  O
  O515     1.0000 0.16312  0.48722  0.39265  Biso   1.000  O
  O516     1.0000 0.15765  0.52436  0.37263  Biso   1.000  O
  O517     1.0000 0.28588  0.49486  0.42110  Biso   1.000  O
  O518     1.0000 0.36039  0.45944  0.42907  Biso   1.000  O
  C439     1.0000 0.08600  0.46457  0.39560  Biso   1.000  C
  C440     1.0000 0.07030  0.44456  0.41120  Biso   1.000  C
  C441     1.0000 0.04280  0.44320  0.40910  Biso   1.000  C
  C442     1.0000 0.17227  0.50812  0.38418  Biso   1.000  C
  C443     1.0000 0.20049  0.51608  0.38902  Biso   1.000  C
  C444     1.0000 0.21802  0.49814  0.40004  Biso   1.000  C
  O519     1.0000 0.61000  0.96594  0.40040  Biso   1.000  O
  O520     1.0000 0.57542  0.97893  0.37963  Biso   1.000  O
  O521     1.0000 0.48844  0.90730  0.43870  Biso   1.000  O
  O522     1.0000 0.66312  0.98722  0.39265  Biso   1.000  O
  O523     1.0000 0.65765  0.02436  0.37263  Biso   1.000  O
  O524     1.0000 0.78588  0.99486  0.42110  Biso   1.000  O
  O525     1.0000 0.86039  0.95944  0.42907  Biso   1.000  O
  C445     1.0000 0.58600  0.96457  0.39560  Biso   1.000  C
  C446     1.0000 0.57030  0.94456  0.41120  Biso   1.000  C
  C447     1.0000 0.54280  0.94320  0.40910  Biso   1.000  C
  C448     1.0000 0.67227  0.00812  0.38418  Biso   1.000  C
  C449     1.0000 0.70049  0.01608  0.38902  Biso   1.000  C
  C450     1.0000 0.71802  0.99814  0.40004  Biso   1.000  C
  O526     1.0000 0.61000  0.46594  0.90040  Biso   1.000  O
  O527     1.0000 0.57542  0.47893  0.87963  Biso   1.000  O
  O528     1.0000 0.48844  0.40730  0.93870  Biso   1.000  O
  O529     1.0000 0.66312  0.48722  0.89265  Biso   1.000  O
  O530     1.0000 0.65765  0.52436  0.87263  Biso   1.000  O
  O531     1.0000 0.78588  0.49486  0.92110  Biso   1.000  O
  O532     1.0000 0.86039  0.45944  0.92907  Biso   1.000  O
  C451     1.0000 0.58600  0.46457  0.89560  Biso   1.000  C
  C452     1.0000 0.57030  0.44456  0.91120  Biso   1.000  C
  C453     1.0000 0.54280  0.44320  0.90910  Biso   1.000  C
  C454     1.0000 0.67227  0.50812  0.88418  Biso   1.000  C
  C455     1.0000 0.70049  0.51608  0.88902  Biso   1.000  C
  C456     1.0000 0.71802  0.49814  0.90004  Biso   1.000  C
  O533     1.0000 0.14000  0.46594  0.84960  Biso   1.000  O
  O534     1.0000 0.17458  0.47893  0.87037  Biso   1.000  O
  O535     1.0000 0.26156  0.40730  0.81130  Biso   1.000  O
  O536     1.0000 0.08688  0.48722  0.85735  Biso   1.000  O
  O537     1.0000 0.09235  0.52436  0.87737  Biso   1.000  O
  O538     1.0000 0.96412  0.49486  0.82890  Biso   1.000  O
  O539     1.0000 0.88961  0.45944  0.82093  Biso   1.000  O
  C457     1.0000 0.16400  0.46457  0.85440  Biso   1.000  C
  C458     1.0000 0.17970  0.44456  0.83880  Biso   1.000  C
  C459     1.0000 0.20720  0.44320  0.84090  Biso   1.000  C
  C460     1.0000 0.07773  0.50812  0.86582  Biso   1.000  C
  C461     1.0000 0.04951  0.51608  0.86098  Biso   1.000  C
  C462     1.0000 0.03198  0.49814  0.84996  Biso   1.000  C
  O540     1.0000 0.14000  0.96594  0.34960  Biso   1.000  O
  O541     1.0000 0.17458  0.97893  0.37037  Biso   1.000  O
  O542     1.0000 0.26156  0.90730  0.31130  Biso   1.000  O
  O543     1.0000 0.08688  0.98722  0.35735  Biso   1.000  O
  O544     1.0000 0.09235  0.02436  0.37737  Biso   1.000  O
  O545     1.0000 0.96412  0.99486  0.32890  Biso   1.000  O
  O546     1.0000 0.88961  0.95944  0.32093  Biso   1.000  O
  C463     1.0000 0.16400  0.96457  0.35440  Biso   1.000  C
  C464     1.0000 0.17970  0.94456  0.33880  Biso   1.000  C
  C465     1.0000 0.20720  0.94320  0.34090  Biso   1.000  C
  C466     1.0000 0.07773  0.00812  0.36582  Biso   1.000  C
  C467     1.0000 0.04951  0.01608  0.36098  Biso   1.000  C
  C468     1.0000 0.03198  0.99814  0.34996  Biso   1.000  C
  O547     1.0000 0.64000  0.46594  0.34960  Biso   1.000  O
  O548     1.0000 0.67458  0.47893  0.37037  Biso   1.000  O
  O549     1.0000 0.76156  0.40730  0.31130  Biso   1.000  O
  O550     1.0000 0.58688  0.48722  0.35735  Biso   1.000  O
  O551     1.0000 0.59235  0.52436  0.37737  Biso   1.000  O
  O552     1.0000 0.46412  0.49486  0.32890  Biso   1.000  O
  O553     1.0000 0.38961  0.45944  0.32093  Biso   1.000  O
  C469     1.0000 0.66400  0.46457  0.35440  Biso   1.000  C
  C470     1.0000 0.67970  0.44456  0.33880  Biso   1.000  C
  C471     1.0000 0.70720  0.44320  0.34090  Biso   1.000  C
  C472     1.0000 0.57773  0.50812  0.36582  Biso   1.000  C
  C473     1.0000 0.54951  0.51608  0.36098  Biso   1.000  C
  C474     1.0000 0.53198  0.49814  0.34996  Biso   1.000  C
  O554     1.0000 0.64000  0.96594  0.84960  Biso   1.000  O
  O555     1.0000 0.67458  0.97893  0.87037  Biso   1.000  O
  O556     1.0000 0.76156  0.90730  0.81130  Biso   1.000  O
  O557     1.0000 0.58688  0.98722  0.85735  Biso   1.000  O
  O558     1.0000 0.59235  0.02436  0.87737  Biso   1.000  O
  O559     1.0000 0.46412  0.99486  0.82890  Biso   1.000  O
  O560     1.0000 0.38961  0.95944  0.82093  Biso   1.000  O
  C475     1.0000 0.66400  0.96457  0.85440  Biso   1.000  C
  C476     1.0000 0.67970  0.94456  0.83880  Biso   1.000  C
  C477     1.0000 0.70720  0.94320  0.84090  Biso   1.000  C
  C478     1.0000 0.57773  0.00812  0.86582  Biso   1.000  C
  C479     1.0000 0.54951  0.01608  0.86098  Biso   1.000  C
  C480     1.0000 0.53198  0.99814  0.84996  Biso   1.000  C
  O561     1.0000 0.78406  0.34960  0.61000  Biso   1.000  O
  O562     1.0000 0.77107  0.37037  0.57542  Biso   1.000  O
  O563     1.0000 0.84270  0.31130  0.48844  Biso   1.000  O
  O564     1.0000 0.76278  0.35735  0.66312  Biso   1.000  O
  O565     1.0000 0.72564  0.37737  0.65765  Biso   1.000  O
  O566     1.0000 0.75514  0.32890  0.78588  Biso   1.000  O
  O567     1.0000 0.79056  0.32093  0.86039  Biso   1.000  O
  C481     1.0000 0.78543  0.35440  0.58600  Biso   1.000  C
  C482     1.0000 0.80544  0.33880  0.57030  Biso   1.000  C
  C483     1.0000 0.80680  0.34090  0.54280  Biso   1.000  C
  C484     1.0000 0.74188  0.36582  0.67227  Biso   1.000  C
  C485     1.0000 0.73392  0.36098  0.70049  Biso   1.000  C
  C486     1.0000 0.75186  0.34996  0.71802  Biso   1.000  C
  O568     1.0000 0.78406  0.84960  0.11000  Biso   1.000  O
  O569     1.0000 0.77107  0.87037  0.07542  Biso   1.000  O
  O570     1.0000 0.84270  0.81130  0.98844  Biso   1.000  O
  O571     1.0000 0.76278  0.85735  0.16312  Biso   1.000  O
  O572     1.0000 0.72564  0.87737  0.15765  Biso   1.000  O
  O573     1.0000 0.75514  0.82890  0.28588  Biso   1.000  O
  O574     1.0000 0.79056  0.82093  0.36039  Biso   1.000  O
  C487     1.0000 0.78543  0.85440  0.08600  Biso   1.000  C
  C488     1.0000 0.80544  0.83880  0.07030  Biso   1.000  C
  C489     1.0000 0.80680  0.84090  0.04280  Biso   1.000  C
  C490     1.0000 0.74188  0.86582  0.17227  Biso   1.000  C
  C491     1.0000 0.73392  0.86098  0.20049  Biso   1.000  C
  C492     1.0000 0.75186  0.84996  0.21802  Biso   1.000  C
  O575     1.0000 0.28406  0.34960  0.11000  Biso   1.000  O
  O576     1.0000 0.27107  0.37037  0.07542  Biso   1.000  O
  O577     1.0000 0.34270  0.31130  0.98844  Biso   1.000  O
  O578     1.0000 0.26278  0.35735  0.16312  Biso   1.000  O
  O579     1.0000 0.22564  0.37737  0.15765  Biso   1.000  O
  O580     1.0000 0.25514  0.32890  0.28588  Biso   1.000  O
  O581     1.0000 0.29056  0.32093  0.36039  Biso   1.000  O
  C493     1.0000 0.28543  0.35440  0.08600  Biso   1.000  C
  C494     1.0000 0.30544  0.33880  0.07030  Biso   1.000  C
  C495     1.0000 0.30680  0.34090  0.04280  Biso   1.000  C
  C496     1.0000 0.24188  0.36582  0.17227  Biso   1.000  C
  C497     1.0000 0.23392  0.36098  0.20049  Biso   1.000  C
  C498     1.0000 0.25186  0.34996  0.21802  Biso   1.000  C
  O582     1.0000 0.28406  0.84960  0.61000  Biso   1.000  O
  O583     1.0000 0.27107  0.87037  0.57542  Biso   1.000  O
  O584     1.0000 0.34270  0.81130  0.48844  Biso   1.000  O
  O585     1.0000 0.26278  0.85735  0.66312  Biso   1.000  O
  O586     1.0000 0.22564  0.87737  0.65765  Biso   1.000  O
  O587     1.0000 0.25514  0.82890  0.78588  Biso   1.000  O
  O588     1.0000 0.29056  0.82093  0.86039  Biso   1.000  O
  C499     1.0000 0.28543  0.85440  0.58600  Biso   1.000  C
  C500     1.0000 0.30544  0.83880  0.57030  Biso   1.000  C
  C501     1.0000 0.30680  0.84090  0.54280  Biso   1.000  C
  C502     1.0000 0.24188  0.86582  0.67227  Biso   1.000  C
  C503     1.0000 0.23392  0.86098  0.70049  Biso   1.000  C
  C504     1.0000 0.25186  0.84996  0.71802  Biso   1.000  C
  O589     1.0000 0.28406  0.40040  0.64000  Biso   1.000  O
  O590     1.0000 0.27107  0.37963  0.67458  Biso   1.000  O
  O591     1.0000 0.34270  0.43870  0.76156  Biso   1.000  O
  O592     1.0000 0.26278  0.39265  0.58688  Biso   1.000  O
  O593     1.0000 0.22564  0.37263  0.59235  Biso   1.000  O
  O594     1.0000 0.25514  0.42110  0.46412  Biso   1.000  O
  O595     1.0000 0.29056  0.42907  0.38961  Biso   1.000  O
  C505     1.0000 0.28543  0.39560  0.66400  Biso   1.000  C
  C506     1.0000 0.30544  0.41120  0.67970  Biso   1.000  C
  C507     1.0000 0.30680  0.40910  0.70720  Biso   1.000  C
  C508     1.0000 0.24188  0.38418  0.57773  Biso   1.000  C
  C509     1.0000 0.23392  0.38902  0.54951  Biso   1.000  C
  C510     1.0000 0.25186  0.40004  0.53198  Biso   1.000  C
  O596     1.0000 0.28406  0.90040  0.14000  Biso   1.000  O
  O597     1.0000 0.27107  0.87963  0.17458  Biso   1.000  O
  O598     1.0000 0.34270  0.93870  0.26156  Biso   1.000  O
  O599     1.0000 0.26278  0.89265  0.08688  Biso   1.000  O
  O600     1.0000 0.22564  0.87263  0.09235  Biso   1.000  O
  O601     1.0000 0.25514  0.92110  0.96412  Biso   1.000  O
  O602     1.0000 0.29056  0.92907  0.88961  Biso   1.000  O
  C511     1.0000 0.28543  0.89560  0.16400  Biso   1.000  C
  C512     1.0000 0.30544  0.91120  0.17970  Biso   1.000  C
  C513     1.0000 0.30680  0.90910  0.20720  Biso   1.000  C
  C514     1.0000 0.24188  0.88418  0.07773  Biso   1.000  C
  C515     1.0000 0.23392  0.88902  0.04951  Biso   1.000  C
  C516     1.0000 0.25186  0.90004  0.03198  Biso   1.000  C
  O603     1.0000 0.78406  0.40040  0.14000  Biso   1.000  O
  O604     1.0000 0.77107  0.37963  0.17458  Biso   1.000  O
  O605     1.0000 0.84270  0.43870  0.26156  Biso   1.000  O
  O606     1.0000 0.76278  0.39265  0.08688  Biso   1.000  O
  O607     1.0000 0.72564  0.37263  0.09235  Biso   1.000  O
  O608     1.0000 0.75514  0.42110  0.96412  Biso   1.000  O
  O609     1.0000 0.79056  0.42907  0.88961  Biso   1.000  O
  C517     1.0000 0.78543  0.39560  0.16400  Biso   1.000  C
  C518     1.0000 0.80544  0.41120  0.17970  Biso   1.000  C
  C519     1.0000 0.80680  0.40910  0.20720  Biso   1.000  C
  C520     1.0000 0.74188  0.38418  0.07773  Biso   1.000  C
  C521     1.0000 0.73392  0.38902  0.04951  Biso   1.000  C
  C522     1.0000 0.75186  0.40004  0.03198  Biso   1.000  C
  O610     1.0000 0.78406  0.90040  0.64000  Biso   1.000  O
  O611     1.0000 0.77107  0.87963  0.67458  Biso   1.000  O
  O612     1.0000 0.84270  0.93870  0.76156  Biso   1.000  O
  O613     1.0000 0.76278  0.89265  0.58688  Biso   1.000  O
  O614     1.0000 0.72564  0.87263  0.59235  Biso   1.000  O
  O615     1.0000 0.75514  0.92110  0.46412  Biso   1.000  O
  O616     1.0000 0.79056  0.92907  0.38961  Biso   1.000  O
  C523     1.0000 0.78543  0.89560  0.66400  Biso   1.000  C
  C524     1.0000 0.80544  0.91120  0.67970  Biso   1.000  C
  C525     1.0000 0.80680  0.90910  0.70720  Biso   1.000  C
  C526     1.0000 0.74188  0.88418  0.57773  Biso   1.000  C
  C527     1.0000 0.73392  0.88902  0.54951  Biso   1.000  C
  C528     1.0000 0.75186  0.90004  0.53198  Biso   1.000  C
  O617     1.0000 0.46594  0.84960  0.14000  Biso   1.000  O
  O618     1.0000 0.47893  0.87037  0.17458  Biso   1.000  O
  O619     1.0000 0.40730  0.81130  0.26156  Biso   1.000  O
  O620     1.0000 0.48722  0.85735  0.08688  Biso   1.000  O
  O621     1.0000 0.52436  0.87737  0.09235  Biso   1.000  O
  O622     1.0000 0.49486  0.82890  0.96412  Biso   1.000  O
  O623     1.0000 0.45944  0.82093  0.88961  Biso   1.000  O
  C529     1.0000 0.46457  0.85440  0.16400  Biso   1.000  C
  C530     1.0000 0.44456  0.83880  0.17970  Biso   1.000  C
  C531     1.0000 0.44320  0.84090  0.20720  Biso   1.000  C
  C532     1.0000 0.50812  0.86582  0.07773  Biso   1.000  C
  C533     1.0000 0.51608  0.86098  0.04951  Biso   1.000  C
  C534     1.0000 0.49814  0.84996  0.03198  Biso   1.000  C
  O624     1.0000 0.46594  0.34960  0.64000  Biso   1.000  O
  O625     1.0000 0.47893  0.37037  0.67458  Biso   1.000  O
  O626     1.0000 0.40730  0.31130  0.76156  Biso   1.000  O
  O627     1.0000 0.48722  0.35735  0.58688  Biso   1.000  O
  O628     1.0000 0.52436  0.37737  0.59235  Biso   1.000  O
  O629     1.0000 0.49486  0.32890  0.46412  Biso   1.000  O
  O630     1.0000 0.45944  0.32093  0.38961  Biso   1.000  O
  C535     1.0000 0.46457  0.35440  0.66400  Biso   1.000  C
  C536     1.0000 0.44456  0.33880  0.67970  Biso   1.000  C
  C537     1.0000 0.44320  0.34090  0.70720  Biso   1.000  C
  C538     1.0000 0.50812  0.36582  0.57773  Biso   1.000  C
  C539     1.0000 0.51608  0.36098  0.54951  Biso   1.000  C
  C540     1.0000 0.49814  0.34996  0.53198  Biso   1.000  C
  O631     1.0000 0.96594  0.84960  0.64000  Biso   1.000  O
  O632     1.0000 0.97893  0.87037  0.67458  Biso   1.000  O
  O633     1.0000 0.90730  0.81130  0.76156  Biso   1.000  O
  O634     1.0000 0.98722  0.85735  0.58688  Biso   1.000  O
  O635     1.0000 0.02436  0.87737  0.59235  Biso   1.000  O
  O636     1.0000 0.99486  0.82890  0.46412  Biso   1.000  O
  O637     1.0000 0.95944  0.82093  0.38961  Biso   1.000  O
  C541     1.0000 0.96457  0.85440  0.66400  Biso   1.000  C
  C542     1.0000 0.94456  0.83880  0.67970  Biso   1.000  C
  C543     1.0000 0.94320  0.84090  0.70720  Biso   1.000  C
  C544     1.0000 0.00812  0.86582  0.57773  Biso   1.000  C
  C545     1.0000 0.01608  0.86098  0.54951  Biso   1.000  C
  C546     1.0000 0.99814  0.84996  0.53198  Biso   1.000  C
  O638     1.0000 0.96594  0.34960  0.14000  Biso   1.000  O
  O639     1.0000 0.97893  0.37037  0.17458  Biso   1.000  O
  O640     1.0000 0.90730  0.31130  0.26156  Biso   1.000  O
  O641     1.0000 0.98722  0.35735  0.08688  Biso   1.000  O
  O642     1.0000 0.02436  0.37737  0.09235  Biso   1.000  O
  O643     1.0000 0.99486  0.32890  0.96412  Biso   1.000  O
  O644     1.0000 0.95944  0.32093  0.88961  Biso   1.000  O
  C547     1.0000 0.96457  0.35440  0.16400  Biso   1.000  C
  C548     1.0000 0.94456  0.33880  0.17970  Biso   1.000  C
  C549     1.0000 0.94320  0.34090  0.20720  Biso   1.000  C
  C550     1.0000 0.00812  0.36582  0.07773  Biso   1.000  C
  C551     1.0000 0.01608  0.36098  0.04951  Biso   1.000  C
  C552     1.0000 0.99814  0.34996  0.03198  Biso   1.000  C
  O645     1.0000 0.96594  0.90040  0.11000  Biso   1.000  O
  O646     1.0000 0.97893  0.87963  0.07542  Biso   1.000  O
  O647     1.0000 0.90730  0.93870  0.98844  Biso   1.000  O
  O648     1.0000 0.98722  0.89265  0.16312  Biso   1.000  O
  O649     1.0000 0.02436  0.87263  0.15765  Biso   1.000  O
  O650     1.0000 0.99486  0.92110  0.28588  Biso   1.000  O
  O651     1.0000 0.95944  0.92907  0.36039  Biso   1.000  O
  C553     1.0000 0.96457  0.89560  0.08600  Biso   1.000  C
  C554     1.0000 0.94456  0.91120  0.07030  Biso   1.000  C
  C555     1.0000 0.94320  0.90910  0.04280  Biso   1.000  C
  C556     1.0000 0.00812  0.88418  0.17227  Biso   1.000  C
  C557     1.0000 0.01608  0.88902  0.20049  Biso   1.000  C
  C558     1.0000 0.99814  0.90004  0.21802  Biso   1.000  C
  O652     1.0000 0.96594  0.40040  0.61000  Biso   1.000  O
  O653     1.0000 0.97893  0.37963  0.57542  Biso   1.000  O
  O654     1.0000 0.90730  0.43870  0.48844  Biso   1.000  O
  O655     1.0000 0.98722  0.39265  0.66312  Biso   1.000  O
  O656     1.0000 0.02436  0.37263  0.65765  Biso   1.000  O
  O657     1.0000 0.99486  0.42110  0.78588  Biso   1.000  O
  O658     1.0000 0.95944  0.42907  0.86039  Biso   1.000  O
  C559     1.0000 0.96457  0.39560  0.58600  Biso   1.000  C
  C560     1.0000 0.94456  0.41120  0.57030  Biso   1.000  C
  C561     1.0000 0.94320  0.40910  0.54280  Biso   1.000  C
  C562     1.0000 0.00812  0.38418  0.67227  Biso   1.000  C
  C563     1.0000 0.01608  0.38902  0.70049  Biso   1.000  C
  C564     1.0000 0.99814  0.40004  0.71802  Biso   1.000  C
  O659     1.0000 0.46594  0.90040  0.61000  Biso   1.000  O
  O660     1.0000 0.47893  0.87963  0.57542  Biso   1.000  O
  O661     1.0000 0.40730  0.93870  0.48844  Biso   1.000  O
  O662     1.0000 0.48722  0.89265  0.66312  Biso   1.000  O
  O663     1.0000 0.52436  0.87263  0.65765  Biso   1.000  O
  O664     1.0000 0.49486  0.92110  0.78588  Biso   1.000  O
  O665     1.0000 0.45944  0.92907  0.86039  Biso   1.000  O
  C565     1.0000 0.46457  0.89560  0.58600  Biso   1.000  C
  C566     1.0000 0.44456  0.91120  0.57030  Biso   1.000  C
  C567     1.0000 0.44320  0.90910  0.54280  Biso   1.000  C
  C568     1.0000 0.50812  0.88418  0.67227  Biso   1.000  C
  C569     1.0000 0.51608  0.88902  0.70049  Biso   1.000  C
  C570     1.0000 0.49814  0.90004  0.71802  Biso   1.000  C
  O666     1.0000 0.46594  0.40040  0.11000  Biso   1.000  O
  O667     1.0000 0.47893  0.37963  0.07542  Biso   1.000  O
  O668     1.0000 0.40730  0.43870  0.98844  Biso   1.000  O
  O669     1.0000 0.48722  0.39265  0.16312  Biso   1.000  O
  O670     1.0000 0.52436  0.37263  0.15765  Biso   1.000  O
  O671     1.0000 0.49486  0.42110  0.28588  Biso   1.000  O
  O672     1.0000 0.45944  0.42907  0.36039  Biso   1.000  O
  C571     1.0000 0.46457  0.39560  0.08600  Biso   1.000  C
  C572     1.0000 0.44456  0.41120  0.07030  Biso   1.000  C
  C573     1.0000 0.44320  0.40910  0.04280  Biso   1.000  C
  C574     1.0000 0.50812  0.38418  0.17227  Biso   1.000  C
  C575     1.0000 0.51608  0.38902  0.20049  Biso   1.000  C
  C576     1.0000 0.49814  0.40004  0.21802  Biso   1.000  C
  O673     1.0000 0.11000  0.90040  0.96594  Biso   1.000  O
  O674     1.0000 0.07542  0.87963  0.97893  Biso   1.000  O
  O675     1.0000 0.98844  0.93870  0.90730  Biso   1.000  O
  O676     1.0000 0.16312  0.89265  0.98722  Biso   1.000  O
  O677     1.0000 0.15765  0.87263  0.02436  Biso   1.000  O
  O678     1.0000 0.28588  0.92110  0.99486  Biso   1.000  O
  O679     1.0000 0.36039  0.92907  0.95944  Biso   1.000  O
  C577     1.0000 0.08600  0.89560  0.96457  Biso   1.000  C
  C578     1.0000 0.07030  0.91120  0.94456  Biso   1.000  C
  C579     1.0000 0.04280  0.90910  0.94320  Biso   1.000  C
  C580     1.0000 0.17227  0.88418  0.00812  Biso   1.000  C
  C581     1.0000 0.20049  0.88902  0.01608  Biso   1.000  C
  C582     1.0000 0.21802  0.90004  0.99814  Biso   1.000  C
  O680     1.0000 0.11000  0.40040  0.46594  Biso   1.000  O
  O681     1.0000 0.07542  0.37963  0.47893  Biso   1.000  O
  O682     1.0000 0.98844  0.43870  0.40730  Biso   1.000  O
  O683     1.0000 0.16312  0.39265  0.48722  Biso   1.000  O
  O684     1.0000 0.15765  0.37263  0.52436  Biso   1.000  O
  O685     1.0000 0.28588  0.42110  0.49486  Biso   1.000  O
  O686     1.0000 0.36039  0.42907  0.45944  Biso   1.000  O
  C583     1.0000 0.08600  0.39560  0.46457  Biso   1.000  C
  C584     1.0000 0.07030  0.41120  0.44456  Biso   1.000  C
  C585     1.0000 0.04280  0.40910  0.44320  Biso   1.000  C
  C586     1.0000 0.17227  0.38418  0.50812  Biso   1.000  C
  C587     1.0000 0.20049  0.38902  0.51608  Biso   1.000  C
  C588     1.0000 0.21802  0.40004  0.49814  Biso   1.000  C
  O687     1.0000 0.61000  0.90040  0.46594  Biso   1.000  O
  O688     1.0000 0.57542  0.87963  0.47893  Biso   1.000  O
  O689     1.0000 0.48844  0.93870  0.40730  Biso   1.000  O
  O690     1.0000 0.66312  0.89265  0.48722  Biso   1.000  O
  O691     1.0000 0.65765  0.87263  0.52436  Biso   1.000  O
  O692     1.0000 0.78588  0.92110  0.49486  Biso   1.000  O
  O693     1.0000 0.86039  0.92907  0.45944  Biso   1.000  O
  C589     1.0000 0.58600  0.89560  0.46457  Biso   1.000  C
  C590     1.0000 0.57030  0.91120  0.44456  Biso   1.000  C
  C591     1.0000 0.54280  0.90910  0.44320  Biso   1.000  C
  C592     1.0000 0.67227  0.88418  0.50812  Biso   1.000  C
  C593     1.0000 0.70049  0.88902  0.51608  Biso   1.000  C
  C594     1.0000 0.71802  0.90004  0.49814  Biso   1.000  C
  O694     1.0000 0.61000  0.40040  0.96594  Biso   1.000  O
  O695     1.0000 0.57542  0.37963  0.97893  Biso   1.000  O
  O696     1.0000 0.48844  0.43870  0.90730  Biso   1.000  O
  O697     1.0000 0.66312  0.39265  0.98722  Biso   1.000  O
  O698     1.0000 0.65765  0.37263  0.02436  Biso   1.000  O
  O699     1.0000 0.78588  0.42110  0.99486  Biso   1.000  O
  O700     1.0000 0.86039  0.42907  0.95944  Biso   1.000  O
  C595     1.0000 0.58600  0.39560  0.96457  Biso   1.000  C
  C596     1.0000 0.57030  0.41120  0.94456  Biso   1.000  C
  C597     1.0000 0.54280  0.40910  0.94320  Biso   1.000  C
  C598     1.0000 0.67227  0.38418  0.00812  Biso   1.000  C
  C599     1.0000 0.70049  0.38902  0.01608  Biso   1.000  C
  C600     1.0000 0.71802  0.40004  0.99814  Biso   1.000  C
  O701     1.0000 0.14000  0.84960  0.46594  Biso   1.000  O
  O702     1.0000 0.17458  0.87037  0.47893  Biso   1.000  O
  O703     1.0000 0.26156  0.81130  0.40730  Biso   1.000  O
  O704     1.0000 0.08688  0.85735  0.48722  Biso   1.000  O
  O705     1.0000 0.09235  0.87737  0.52436  Biso   1.000  O
  O706     1.0000 0.96412  0.82890  0.49486  Biso   1.000  O
  O707     1.0000 0.88961  0.82093  0.45944  Biso   1.000  O
  C601     1.0000 0.16400  0.85440  0.46457  Biso   1.000  C
  C602     1.0000 0.17970  0.83880  0.44456  Biso   1.000  C
  C603     1.0000 0.20720  0.84090  0.44320  Biso   1.000  C
  C604     1.0000 0.07773  0.86582  0.50812  Biso   1.000  C
  C605     1.0000 0.04951  0.86098  0.51608  Biso   1.000  C
  C606     1.0000 0.03198  0.84996  0.49814  Biso   1.000  C
  O708     1.0000 0.14000  0.34960  0.96594  Biso   1.000  O
  O709     1.0000 0.17458  0.37037  0.97893  Biso   1.000  O
  O710     1.0000 0.26156  0.31130  0.90730  Biso   1.000  O
  O711     1.0000 0.08688  0.35735  0.98722  Biso   1.000  O
  O712     1.0000 0.09235  0.37737  0.02436  Biso   1.000  O
  O713     1.0000 0.96412  0.32890  0.99486  Biso   1.000  O
  O714     1.0000 0.88961  0.32093  0.95944  Biso   1.000  O
  C607     1.0000 0.16400  0.35440  0.96457  Biso   1.000  C
  C608     1.0000 0.17970  0.33880  0.94456  Biso   1.000  C
  C609     1.0000 0.20720  0.34090  0.94320  Biso   1.000  C
  C610     1.0000 0.07773  0.36582  0.00812  Biso   1.000  C
  C611     1.0000 0.04951  0.36098  0.01608  Biso   1.000  C
  C612     1.0000 0.03198  0.34996  0.99814  Biso   1.000  C
  O715     1.0000 0.64000  0.84960  0.96594  Biso   1.000  O
  O716     1.0000 0.67458  0.87037  0.97893  Biso   1.000  O
  O717     1.0000 0.76156  0.81130  0.90730  Biso   1.000  O
  O718     1.0000 0.58688  0.85735  0.98722  Biso   1.000  O
  O719     1.0000 0.59235  0.87737  0.02436  Biso   1.000  O
  O720     1.0000 0.46412  0.82890  0.99486  Biso   1.000  O
  O721     1.0000 0.38961  0.82093  0.95944  Biso   1.000  O
  C613     1.0000 0.66400  0.85440  0.96457  Biso   1.000  C
  C614     1.0000 0.67970  0.83880  0.94456  Biso   1.000  C
  C615     1.0000 0.70720  0.84090  0.94320  Biso   1.000  C
  C616     1.0000 0.57773  0.86582  0.00812  Biso   1.000  C
  C617     1.0000 0.54951  0.86098  0.01608  Biso   1.000  C
  C618     1.0000 0.53198  0.84996  0.99814  Biso   1.000  C
  O722     1.0000 0.64000  0.34960  0.46594  Biso   1.000  O
  O723     1.0000 0.67458  0.37037  0.47893  Biso   1.000  O
  O724     1.0000 0.76156  0.31130  0.40730  Biso   1.000  O
  O725     1.0000 0.58688  0.35735  0.48722  Biso   1.000  O
  O726     1.0000 0.59235  0.37737  0.52436  Biso   1.000  O
  O727     1.0000 0.46412  0.32890  0.49486  Biso   1.000  O
  O728     1.0000 0.38961  0.32093  0.45944  Biso   1.000  O
  C619     1.0000 0.66400  0.35440  0.46457  Biso   1.000  C
  C620     1.0000 0.67970  0.33880  0.44456  Biso   1.000  C
  C621     1.0000 0.70720  0.34090  0.44320  Biso   1.000  C
  C622     1.0000 0.57773  0.36582  0.50812  Biso   1.000  C
  C623     1.0000 0.54951  0.36098  0.51608  Biso   1.000  C
  C624     1.0000 0.53198  0.34996  0.49814  Biso   1.000  C
  O729     1.0000 0.64000  0.40040  0.28406  Biso   1.000  O
  O730     1.0000 0.67458  0.37963  0.27107  Biso   1.000  O
  O731     1.0000 0.76156  0.43870  0.34270  Biso   1.000  O
  O732     1.0000 0.58688  0.39265  0.26278  Biso   1.000  O
  O733     1.0000 0.59235  0.37263  0.22564  Biso   1.000  O
  O734     1.0000 0.46412  0.42110  0.25514  Biso   1.000  O
  O735     1.0000 0.38961  0.42907  0.29056  Biso   1.000  O
  C625     1.0000 0.66400  0.39560  0.28543  Biso   1.000  C
  C626     1.0000 0.67970  0.41120  0.30544  Biso   1.000  C
  C627     1.0000 0.70720  0.40910  0.30680  Biso   1.000  C
  C628     1.0000 0.57773  0.38418  0.24188  Biso   1.000  C
  C629     1.0000 0.54951  0.38902  0.23392  Biso   1.000  C
  C630     1.0000 0.53198  0.40004  0.25186  Biso   1.000  C
  O736     1.0000 0.64000  0.90040  0.78406  Biso   1.000  O
  O737     1.0000 0.67458  0.87963  0.77107  Biso   1.000  O
  O738     1.0000 0.76156  0.93870  0.84270  Biso   1.000  O
  O739     1.0000 0.58688  0.89265  0.76278  Biso   1.000  O
  O740     1.0000 0.59235  0.87263  0.72564  Biso   1.000  O
  O741     1.0000 0.46412  0.92110  0.75514  Biso   1.000  O
  O742     1.0000 0.38961  0.92907  0.79056  Biso   1.000  O
  C631     1.0000 0.66400  0.89560  0.78543  Biso   1.000  C
  C632     1.0000 0.67970  0.91120  0.80544  Biso   1.000  C
  C633     1.0000 0.70720  0.90910  0.80680  Biso   1.000  C
  C634     1.0000 0.57773  0.88418  0.74188  Biso   1.000  C
  C635     1.0000 0.54951  0.88902  0.73392  Biso   1.000  C
  C636     1.0000 0.53198  0.90004  0.75186  Biso   1.000  C
  O743     1.0000 0.14000  0.40040  0.78406  Biso   1.000  O
  O744     1.0000 0.17458  0.37963  0.77107  Biso   1.000  O
  O745     1.0000 0.26156  0.43870  0.84270  Biso   1.000  O
  O746     1.0000 0.08688  0.39265  0.76278  Biso   1.000  O
  O747     1.0000 0.09235  0.37263  0.72564  Biso   1.000  O
  O748     1.0000 0.96412  0.42110  0.75514  Biso   1.000  O
  O749     1.0000 0.88961  0.42907  0.79056  Biso   1.000  O
  C637     1.0000 0.16400  0.39560  0.78543  Biso   1.000  C
  C638     1.0000 0.17970  0.41120  0.80544  Biso   1.000  C
  C639     1.0000 0.20720  0.40910  0.80680  Biso   1.000  C
  C640     1.0000 0.07773  0.38418  0.74188  Biso   1.000  C
  C641     1.0000 0.04951  0.38902  0.73392  Biso   1.000  C
  C642     1.0000 0.03198  0.40004  0.75186  Biso   1.000  C
  O750     1.0000 0.14000  0.90040  0.28406  Biso   1.000  O
  O751     1.0000 0.17458  0.87963  0.27107  Biso   1.000  O
  O752     1.0000 0.26156  0.93870  0.34270  Biso   1.000  O
  O753     1.0000 0.08688  0.89265  0.26278  Biso   1.000  O
  O754     1.0000 0.09235  0.87263  0.22564  Biso   1.000  O
  O755     1.0000 0.96412  0.92110  0.25514  Biso   1.000  O
  O756     1.0000 0.88961  0.92907  0.29056  Biso   1.000  O
  C643     1.0000 0.16400  0.89560  0.28543  Biso   1.000  C
  C644     1.0000 0.17970  0.91120  0.30544  Biso   1.000  C
  C645     1.0000 0.20720  0.90910  0.30680  Biso   1.000  C
  C646     1.0000 0.07773  0.88418  0.24188  Biso   1.000  C
  C647     1.0000 0.04951  0.88902  0.23392  Biso   1.000  C
  C648     1.0000 0.03198  0.90004  0.25186  Biso   1.000  C
  O757     1.0000 0.61000  0.34960  0.78406  Biso   1.000  O
  O758     1.0000 0.57542  0.37037  0.77107  Biso   1.000  O
  O759     1.0000 0.48844  0.31130  0.84270  Biso   1.000  O
  O760     1.0000 0.66312  0.35735  0.76278  Biso   1.000  O
  O761     1.0000 0.65765  0.37737  0.72564  Biso   1.000  O
  O762     1.0000 0.78588  0.32890  0.75514  Biso   1.000  O
  O763     1.0000 0.86039  0.32093  0.79056  Biso   1.000  O
  C649     1.0000 0.58600  0.35440  0.78543  Biso   1.000  C
  C650     1.0000 0.57030  0.33880  0.80544  Biso   1.000  C
  C651     1.0000 0.54280  0.34090  0.80680  Biso   1.000  C
  C652     1.0000 0.67227  0.36582  0.74188  Biso   1.000  C
  C653     1.0000 0.70049  0.36098  0.73392  Biso   1.000  C
  C654     1.0000 0.71802  0.34996  0.75186  Biso   1.000  C
  O764     1.0000 0.61000  0.84960  0.28406  Biso   1.000  O
  O765     1.0000 0.57542  0.87037  0.27107  Biso   1.000  O
  O766     1.0000 0.48844  0.81130  0.34270  Biso   1.000  O
  O767     1.0000 0.66312  0.85735  0.26278  Biso   1.000  O
  O768     1.0000 0.65765  0.87737  0.22564  Biso   1.000  O
  O769     1.0000 0.78588  0.82890  0.25514  Biso   1.000  O
  O770     1.0000 0.86039  0.82093  0.29056  Biso   1.000  O
  C655     1.0000 0.58600  0.85440  0.28543  Biso   1.000  C
  C656     1.0000 0.57030  0.83880  0.30544  Biso   1.000  C
  C657     1.0000 0.54280  0.84090  0.30680  Biso   1.000  C
  C658     1.0000 0.67227  0.86582  0.24188  Biso   1.000  C
  C659     1.0000 0.70049  0.86098  0.23392  Biso   1.000  C
  C660     1.0000 0.71802  0.84996  0.25186  Biso   1.000  C
  O771     1.0000 0.11000  0.34960  0.28406  Biso   1.000  O
  O772     1.0000 0.07542  0.37037  0.27107  Biso   1.000  O
  O773     1.0000 0.98844  0.31130  0.34270  Biso   1.000  O
  O774     1.0000 0.16312  0.35735  0.26278  Biso   1.000  O
  O775     1.0000 0.15765  0.37737  0.22564  Biso   1.000  O
  O776     1.0000 0.28588  0.32890  0.25514  Biso   1.000  O
  O777     1.0000 0.36039  0.32093  0.29056  Biso   1.000  O
  C661     1.0000 0.08600  0.35440  0.28543  Biso   1.000  C
  C662     1.0000 0.07030  0.33880  0.30544  Biso   1.000  C
  C663     1.0000 0.04280  0.34090  0.30680  Biso   1.000  C
  C664     1.0000 0.17227  0.36582  0.24188  Biso   1.000  C
  C665     1.0000 0.20049  0.36098  0.23392  Biso   1.000  C
  C666     1.0000 0.21802  0.34996  0.25186  Biso   1.000  C
  O778     1.0000 0.11000  0.84960  0.78406  Biso   1.000  O
  O779     1.0000 0.07542  0.87037  0.77107  Biso   1.000  O
  O780     1.0000 0.98844  0.81130  0.84270  Biso   1.000  O
  O781     1.0000 0.16312  0.85735  0.76278  Biso   1.000  O
  O782     1.0000 0.15765  0.87737  0.72564  Biso   1.000  O
  O783     1.0000 0.28588  0.82890  0.75514  Biso   1.000  O
  O784     1.0000 0.36039  0.82093  0.79056  Biso   1.000  O
  C667     1.0000 0.08600  0.85440  0.78543  Biso   1.000  C
  C668     1.0000 0.07030  0.83880  0.80544  Biso   1.000  C
  C669     1.0000 0.04280  0.84090  0.80680  Biso   1.000  C
  C670     1.0000 0.17227  0.86582  0.74188  Biso   1.000  C
  C671     1.0000 0.20049  0.86098  0.73392  Biso   1.000  C
  C672     1.0000 0.21802  0.84996  0.75186  Biso   1.000  C
  O785     1.0000 0.96594  0.11000  0.90040  Biso   1.000  O
  O786     1.0000 0.97893  0.07542  0.87963  Biso   1.000  O
  O787     1.0000 0.90730  0.98844  0.93870  Biso   1.000  O
  O788     1.0000 0.98722  0.16312  0.89265  Biso   1.000  O
  O789     1.0000 0.02436  0.15765  0.87263  Biso   1.000  O
  O790     1.0000 0.99486  0.28588  0.92110  Biso   1.000  O
  O791     1.0000 0.95944  0.36039  0.92907  Biso   1.000  O
  C673     1.0000 0.96457  0.08600  0.89560  Biso   1.000  C
  C674     1.0000 0.94456  0.07030  0.91120  Biso   1.000  C
  C675     1.0000 0.94320  0.04280  0.90910  Biso   1.000  C
  C676     1.0000 0.00812  0.17227  0.88418  Biso   1.000  C
  C677     1.0000 0.01608  0.20049  0.88902  Biso   1.000  C
  C678     1.0000 0.99814  0.21802  0.90004  Biso   1.000  C
  O792     1.0000 0.96594  0.61000  0.40040  Biso   1.000  O
  O793     1.0000 0.97893  0.57542  0.37963  Biso   1.000  O
  O794     1.0000 0.90730  0.48844  0.43870  Biso   1.000  O
  O795     1.0000 0.98722  0.66312  0.39265  Biso   1.000  O
  O796     1.0000 0.02436  0.65765  0.37263  Biso   1.000  O
  O797     1.0000 0.99486  0.78588  0.42110  Biso   1.000  O
  O798     1.0000 0.95944  0.86039  0.42907  Biso   1.000  O
  C679     1.0000 0.96457  0.58600  0.39560  Biso   1.000  C
  C680     1.0000 0.94456  0.57030  0.41120  Biso   1.000  C
  C681     1.0000 0.94320  0.54280  0.40910  Biso   1.000  C
  C682     1.0000 0.00812  0.67227  0.38418  Biso   1.000  C
  C683     1.0000 0.01608  0.70049  0.38902  Biso   1.000  C
  C684     1.0000 0.99814  0.71802  0.40004  Biso   1.000  C
  O799     1.0000 0.46594  0.11000  0.40040  Biso   1.000  O
  O800     1.0000 0.47893  0.07542  0.37963  Biso   1.000  O
  O801     1.0000 0.40730  0.98844  0.43870  Biso   1.000  O
  O802     1.0000 0.48722  0.16312  0.39265  Biso   1.000  O
  O803     1.0000 0.52436  0.15765  0.37263  Biso   1.000  O
  O804     1.0000 0.49486  0.28588  0.42110  Biso   1.000  O
  O805     1.0000 0.45944  0.36039  0.42907  Biso   1.000  O
  C685     1.0000 0.46457  0.08600  0.39560  Biso   1.000  C
  C686     1.0000 0.44456  0.07030  0.41120  Biso   1.000  C
  C687     1.0000 0.44320  0.04280  0.40910  Biso   1.000  C
  C688     1.0000 0.50812  0.17227  0.38418  Biso   1.000  C
  C689     1.0000 0.51608  0.20049  0.38902  Biso   1.000  C
  C690     1.0000 0.49814  0.21802  0.40004  Biso   1.000  C
  O806     1.0000 0.46594  0.61000  0.90040  Biso   1.000  O
  O807     1.0000 0.47893  0.57542  0.87963  Biso   1.000  O
  O808     1.0000 0.40730  0.48844  0.93870  Biso   1.000  O
  O809     1.0000 0.48722  0.66312  0.89265  Biso   1.000  O
  O810     1.0000 0.52436  0.65765  0.87263  Biso   1.000  O
  O811     1.0000 0.49486  0.78588  0.92110  Biso   1.000  O
  O812     1.0000 0.45944  0.86039  0.92907  Biso   1.000  O
  C691     1.0000 0.46457  0.58600  0.89560  Biso   1.000  C
  C692     1.0000 0.44456  0.57030  0.91120  Biso   1.000  C
  C693     1.0000 0.44320  0.54280  0.90910  Biso   1.000  C
  C694     1.0000 0.50812  0.67227  0.88418  Biso   1.000  C
  C695     1.0000 0.51608  0.70049  0.88902  Biso   1.000  C
  C696     1.0000 0.49814  0.71802  0.90004  Biso   1.000  C
  O813     1.0000 0.46594  0.14000  0.84960  Biso   1.000  O
  O814     1.0000 0.47893  0.17458  0.87037  Biso   1.000  O
  O815     1.0000 0.40730  0.26156  0.81130  Biso   1.000  O
  O816     1.0000 0.48722  0.08688  0.85735  Biso   1.000  O
  O817     1.0000 0.52436  0.09235  0.87737  Biso   1.000  O
  O818     1.0000 0.49486  0.96412  0.82890  Biso   1.000  O
  O819     1.0000 0.45944  0.88961  0.82093  Biso   1.000  O
  C697     1.0000 0.46457  0.16400  0.85440  Biso   1.000  C
  C698     1.0000 0.44456  0.17970  0.83880  Biso   1.000  C
  C699     1.0000 0.44320  0.20720  0.84090  Biso   1.000  C
  C700     1.0000 0.50812  0.07773  0.86582  Biso   1.000  C
  C701     1.0000 0.51608  0.04951  0.86098  Biso   1.000  C
  C702     1.0000 0.49814  0.03198  0.84996  Biso   1.000  C
  O820     1.0000 0.46594  0.64000  0.34960  Biso   1.000  O
  O821     1.0000 0.47893  0.67458  0.37037  Biso   1.000  O
  O822     1.0000 0.40730  0.76156  0.31130  Biso   1.000  O
  O823     1.0000 0.48722  0.58688  0.35735  Biso   1.000  O
  O824     1.0000 0.52436  0.59235  0.37737  Biso   1.000  O
  O825     1.0000 0.49486  0.46412  0.32890  Biso   1.000  O
  O826     1.0000 0.45944  0.38961  0.32093  Biso   1.000  O
  C703     1.0000 0.46457  0.66400  0.35440  Biso   1.000  C
  C704     1.0000 0.44456  0.67970  0.33880  Biso   1.000  C
  C705     1.0000 0.44320  0.70720  0.34090  Biso   1.000  C
  C706     1.0000 0.50812  0.57773  0.36582  Biso   1.000  C
  C707     1.0000 0.51608  0.54951  0.36098  Biso   1.000  C
  C708     1.0000 0.49814  0.53198  0.34996  Biso   1.000  C
  O827     1.0000 0.96594  0.14000  0.34960  Biso   1.000  O
  O828     1.0000 0.97893  0.17458  0.37037  Biso   1.000  O
  O829     1.0000 0.90730  0.26156  0.31130  Biso   1.000  O
  O830     1.0000 0.98722  0.08688  0.35735  Biso   1.000  O
  O831     1.0000 0.02436  0.09235  0.37737  Biso   1.000  O
  O832     1.0000 0.99486  0.96412  0.32890  Biso   1.000  O
  O833     1.0000 0.95944  0.88961  0.32093  Biso   1.000  O
  C709     1.0000 0.96457  0.16400  0.35440  Biso   1.000  C
  C710     1.0000 0.94456  0.17970  0.33880  Biso   1.000  C
  C711     1.0000 0.94320  0.20720  0.34090  Biso   1.000  C
  C712     1.0000 0.00812  0.07773  0.36582  Biso   1.000  C
  C713     1.0000 0.01608  0.04951  0.36098  Biso   1.000  C
  C714     1.0000 0.99814  0.03198  0.34996  Biso   1.000  C
  O834     1.0000 0.96594  0.64000  0.84960  Biso   1.000  O
  O835     1.0000 0.97893  0.67458  0.87037  Biso   1.000  O
  O836     1.0000 0.90730  0.76156  0.81130  Biso   1.000  O
  O837     1.0000 0.98722  0.58688  0.85735  Biso   1.000  O
  O838     1.0000 0.02436  0.59235  0.87737  Biso   1.000  O
  O839     1.0000 0.99486  0.46412  0.82890  Biso   1.000  O
  O840     1.0000 0.95944  0.38961  0.82093  Biso   1.000  O
  C715     1.0000 0.96457  0.66400  0.85440  Biso   1.000  C
  C716     1.0000 0.94456  0.67970  0.83880  Biso   1.000  C
  C717     1.0000 0.94320  0.70720  0.84090  Biso   1.000  C
  C718     1.0000 0.00812  0.57773  0.86582  Biso   1.000  C
  C719     1.0000 0.01608  0.54951  0.86098  Biso   1.000  C
  C720     1.0000 0.99814  0.53198  0.84996  Biso   1.000  C
  O841     1.0000 0.28406  0.64000  0.40040  Biso   1.000  O
  O842     1.0000 0.27107  0.67458  0.37963  Biso   1.000  O
  O843     1.0000 0.34270  0.76156  0.43870  Biso   1.000  O
  O844     1.0000 0.26278  0.58688  0.39265  Biso   1.000  O
  O845     1.0000 0.22564  0.59235  0.37263  Biso   1.000  O
  O846     1.0000 0.25514  0.46412  0.42110  Biso   1.000  O
  O847     1.0000 0.29056  0.38961  0.42907  Biso   1.000  O
  C721     1.0000 0.28543  0.66400  0.39560  Biso   1.000  C
  C722     1.0000 0.30544  0.67970  0.41120  Biso   1.000  C
  C723     1.0000 0.30680  0.70720  0.40910  Biso   1.000  C
  C724     1.0000 0.24188  0.57773  0.38418  Biso   1.000  C
  C725     1.0000 0.23392  0.54951  0.38902  Biso   1.000  C
  C726     1.0000 0.25186  0.53198  0.40004  Biso   1.000  C
  O848     1.0000 0.28406  0.14000  0.90040  Biso   1.000  O
  O849     1.0000 0.27107  0.17458  0.87963  Biso   1.000  O
  O850     1.0000 0.34270  0.26156  0.93870  Biso   1.000  O
  O851     1.0000 0.26278  0.08688  0.89265  Biso   1.000  O
  O852     1.0000 0.22564  0.09235  0.87263  Biso   1.000  O
  O853     1.0000 0.25514  0.96412  0.92110  Biso   1.000  O
  O854     1.0000 0.29056  0.88961  0.92907  Biso   1.000  O
  C727     1.0000 0.28543  0.16400  0.89560  Biso   1.000  C
  C728     1.0000 0.30544  0.17970  0.91120  Biso   1.000  C
  C729     1.0000 0.30680  0.20720  0.90910  Biso   1.000  C
  C730     1.0000 0.24188  0.07773  0.88418  Biso   1.000  C
  C731     1.0000 0.23392  0.04951  0.88902  Biso   1.000  C
  C732     1.0000 0.25186  0.03198  0.90004  Biso   1.000  C
  O855     1.0000 0.78406  0.64000  0.90040  Biso   1.000  O
  O856     1.0000 0.77107  0.67458  0.87963  Biso   1.000  O
  O857     1.0000 0.84270  0.76156  0.93870  Biso   1.000  O
  O858     1.0000 0.76278  0.58688  0.89265  Biso   1.000  O
  O859     1.0000 0.72564  0.59235  0.87263  Biso   1.000  O
  O860     1.0000 0.75514  0.46412  0.92110  Biso   1.000  O
  O861     1.0000 0.79056  0.38961  0.92907  Biso   1.000  O
  C733     1.0000 0.78543  0.66400  0.89560  Biso   1.000  C
  C734     1.0000 0.80544  0.67970  0.91120  Biso   1.000  C
  C735     1.0000 0.80680  0.70720  0.90910  Biso   1.000  C
  C736     1.0000 0.74188  0.57773  0.88418  Biso   1.000  C
  C737     1.0000 0.73392  0.54951  0.88902  Biso   1.000  C
  C738     1.0000 0.75186  0.53198  0.90004  Biso   1.000  C
  O862     1.0000 0.78406  0.14000  0.40040  Biso   1.000  O
  O863     1.0000 0.77107  0.17458  0.37963  Biso   1.000  O
  O864     1.0000 0.84270  0.26156  0.43870  Biso   1.000  O
  O865     1.0000 0.76278  0.08688  0.39265  Biso   1.000  O
  O866     1.0000 0.72564  0.09235  0.37263  Biso   1.000  O
  O867     1.0000 0.75514  0.96412  0.42110  Biso   1.000  O
  O868     1.0000 0.79056  0.88961  0.42907  Biso   1.000  O
  C739     1.0000 0.78543  0.16400  0.39560  Biso   1.000  C
  C740     1.0000 0.80544  0.17970  0.41120  Biso   1.000  C
  C741     1.0000 0.80680  0.20720  0.40910  Biso   1.000  C
  C742     1.0000 0.74188  0.07773  0.38418  Biso   1.000  C
  C743     1.0000 0.73392  0.04951  0.38902  Biso   1.000  C
  C744     1.0000 0.75186  0.03198  0.40004  Biso   1.000  C
  O869     1.0000 0.78406  0.61000  0.34960  Biso   1.000  O
  O870     1.0000 0.77107  0.57542  0.37037  Biso   1.000  O
  O871     1.0000 0.84270  0.48844  0.31130  Biso   1.000  O
  O872     1.0000 0.76278  0.66312  0.35735  Biso   1.000  O
  O873     1.0000 0.72564  0.65765  0.37737  Biso   1.000  O
  O874     1.0000 0.75514  0.78588  0.32890  Biso   1.000  O
  O875     1.0000 0.79056  0.86039  0.32093  Biso   1.000  O
  C745     1.0000 0.78543  0.58600  0.35440  Biso   1.000  C
  C746     1.0000 0.80544  0.57030  0.33880  Biso   1.000  C
  C747     1.0000 0.80680  0.54280  0.34090  Biso   1.000  C
  C748     1.0000 0.74188  0.67227  0.36582  Biso   1.000  C
  C749     1.0000 0.73392  0.70049  0.36098  Biso   1.000  C
  C750     1.0000 0.75186  0.71802  0.34996  Biso   1.000  C
  O876     1.0000 0.78406  0.11000  0.84960  Biso   1.000  O
  O877     1.0000 0.77107  0.07542  0.87037  Biso   1.000  O
  O878     1.0000 0.84270  0.98844  0.81130  Biso   1.000  O
  O879     1.0000 0.76278  0.16312  0.85735  Biso   1.000  O
  O880     1.0000 0.72564  0.15765  0.87737  Biso   1.000  O
  O881     1.0000 0.75514  0.28588  0.82890  Biso   1.000  O
  O882     1.0000 0.79056  0.36039  0.82093  Biso   1.000  O
  C751     1.0000 0.78543  0.08600  0.85440  Biso   1.000  C
  C752     1.0000 0.80544  0.07030  0.83880  Biso   1.000  C
  C753     1.0000 0.80680  0.04280  0.84090  Biso   1.000  C
  C754     1.0000 0.74188  0.17227  0.86582  Biso   1.000  C
  C755     1.0000 0.73392  0.20049  0.86098  Biso   1.000  C
  C756     1.0000 0.75186  0.21802  0.84996  Biso   1.000  C
  O883     1.0000 0.28406  0.61000  0.84960  Biso   1.000  O
  O884     1.0000 0.27107  0.57542  0.87037  Biso   1.000  O
  O885     1.0000 0.34270  0.48844  0.81130  Biso   1.000  O
  O886     1.0000 0.26278  0.66312  0.85735  Biso   1.000  O
  O887     1.0000 0.22564  0.65765  0.87737  Biso   1.000  O
  O888     1.0000 0.25514  0.78588  0.82890  Biso   1.000  O
  O889     1.0000 0.29056  0.86039  0.82093  Biso   1.000  O
  C757     1.0000 0.28543  0.58600  0.85440  Biso   1.000  C
  C758     1.0000 0.30544  0.57030  0.83880  Biso   1.000  C
  C759     1.0000 0.30680  0.54280  0.84090  Biso   1.000  C
  C760     1.0000 0.24188  0.67227  0.86582  Biso   1.000  C
  C761     1.0000 0.23392  0.70049  0.86098  Biso   1.000  C
  C762     1.0000 0.25186  0.71802  0.84996  Biso   1.000  C
  O890     1.0000 0.28406  0.11000  0.34960  Biso   1.000  O
  O891     1.0000 0.27107  0.07542  0.37037  Biso   1.000  O
  O892     1.0000 0.34270  0.98844  0.31130  Biso   1.000  O
  O893     1.0000 0.26278  0.16312  0.35735  Biso   1.000  O
  O894     1.0000 0.22564  0.15765  0.37737  Biso   1.000  O
  O895     1.0000 0.25514  0.28588  0.32890  Biso   1.000  O
  O896     1.0000 0.29056  0.36039  0.32093  Biso   1.000  O
  C763     1.0000 0.28543  0.08600  0.35440  Biso   1.000  C
  C764     1.0000 0.30544  0.07030  0.33880  Biso   1.000  C
  C765     1.0000 0.30680  0.04280  0.34090  Biso   1.000  C
  C766     1.0000 0.24188  0.17227  0.36582  Biso   1.000  C
  C767     1.0000 0.23392  0.20049  0.36098  Biso   1.000  C
  C768     1.0000 0.25186  0.21802  0.34996  Biso   1.000  C
  O897     1.0000 0.90040  0.96594  0.11000  Biso   1.000  O
  O898     1.0000 0.87963  0.97893  0.07542  Biso   1.000  O
  O899     1.0000 0.93870  0.90730  0.98844  Biso   1.000  O
  O900     1.0000 0.89265  0.98722  0.16312  Biso   1.000  O
  O901     1.0000 0.87263  0.02436  0.15765  Biso   1.000  O
  O902     1.0000 0.92110  0.99486  0.28588  Biso   1.000  O
  O903     1.0000 0.92907  0.95944  0.36039  Biso   1.000  O
  C769     1.0000 0.89560  0.96457  0.08600  Biso   1.000  C
  C770     1.0000 0.91120  0.94456  0.07030  Biso   1.000  C
  C771     1.0000 0.90910  0.94320  0.04280  Biso   1.000  C
  C772     1.0000 0.88418  0.00812  0.17227  Biso   1.000  C
  C773     1.0000 0.88902  0.01608  0.20049  Biso   1.000  C
  C774     1.0000 0.90004  0.99814  0.21802  Biso   1.000  C
  O904     1.0000 0.90040  0.46594  0.61000  Biso   1.000  O
  O905     1.0000 0.87963  0.47893  0.57542  Biso   1.000  O
  O906     1.0000 0.93870  0.40730  0.48844  Biso   1.000  O
  O907     1.0000 0.89265  0.48722  0.66312  Biso   1.000  O
  O908     1.0000 0.87263  0.52436  0.65765  Biso   1.000  O
  O909     1.0000 0.92110  0.49486  0.78588  Biso   1.000  O
  O910     1.0000 0.92907  0.45944  0.86039  Biso   1.000  O
  C775     1.0000 0.89560  0.46457  0.58600  Biso   1.000  C
  C776     1.0000 0.91120  0.44456  0.57030  Biso   1.000  C
  C777     1.0000 0.90910  0.44320  0.54280  Biso   1.000  C
  C778     1.0000 0.88418  0.50812  0.67227  Biso   1.000  C
  C779     1.0000 0.88902  0.51608  0.70049  Biso   1.000  C
  C780     1.0000 0.90004  0.49814  0.71802  Biso   1.000  C
  O911     1.0000 0.40040  0.96594  0.61000  Biso   1.000  O
  O912     1.0000 0.37963  0.97893  0.57542  Biso   1.000  O
  O913     1.0000 0.43870  0.90730  0.48844  Biso   1.000  O
  O914     1.0000 0.39265  0.98722  0.66312  Biso   1.000  O
  O915     1.0000 0.37263  0.02436  0.65765  Biso   1.000  O
  O916     1.0000 0.42110  0.99486  0.78588  Biso   1.000  O
  O917     1.0000 0.42907  0.95944  0.86039  Biso   1.000  O
  C781     1.0000 0.39560  0.96457  0.58600  Biso   1.000  C
  C782     1.0000 0.41120  0.94456  0.57030  Biso   1.000  C
  C783     1.0000 0.40910  0.94320  0.54280  Biso   1.000  C
  C784     1.0000 0.38418  0.00812  0.67227  Biso   1.000  C
  C785     1.0000 0.38902  0.01608  0.70049  Biso   1.000  C
  C786     1.0000 0.40004  0.99814  0.71802  Biso   1.000  C
  O918     1.0000 0.40040  0.46594  0.11000  Biso   1.000  O
  O919     1.0000 0.37963  0.47893  0.07542  Biso   1.000  O
  O920     1.0000 0.43870  0.40730  0.98844  Biso   1.000  O
  O921     1.0000 0.39265  0.48722  0.16312  Biso   1.000  O
  O922     1.0000 0.37263  0.52436  0.15765  Biso   1.000  O
  O923     1.0000 0.42110  0.49486  0.28588  Biso   1.000  O
  O924     1.0000 0.42907  0.45944  0.36039  Biso   1.000  O
  C787     1.0000 0.39560  0.46457  0.08600  Biso   1.000  C
  C788     1.0000 0.41120  0.44456  0.07030  Biso   1.000  C
  C789     1.0000 0.40910  0.44320  0.04280  Biso   1.000  C
  C790     1.0000 0.38418  0.50812  0.17227  Biso   1.000  C
  C791     1.0000 0.38902  0.51608  0.20049  Biso   1.000  C
  C792     1.0000 0.40004  0.49814  0.21802  Biso   1.000  C
  O925     1.0000 0.84960  0.46594  0.14000  Biso   1.000  O
  O926     1.0000 0.87037  0.47893  0.17458  Biso   1.000  O
  O927     1.0000 0.81130  0.40730  0.26156  Biso   1.000  O
  O928     1.0000 0.85735  0.48722  0.08688  Biso   1.000  O
  O929     1.0000 0.87737  0.52436  0.09235  Biso   1.000  O
  O930     1.0000 0.82890  0.49486  0.96412  Biso   1.000  O
  O931     1.0000 0.82093  0.45944  0.88961  Biso   1.000  O
  C793     1.0000 0.85440  0.46457  0.16400  Biso   1.000  C
  C794     1.0000 0.83880  0.44456  0.17970  Biso   1.000  C
  C795     1.0000 0.84090  0.44320  0.20720  Biso   1.000  C
  C796     1.0000 0.86582  0.50812  0.07773  Biso   1.000  C
  C797     1.0000 0.86098  0.51608  0.04951  Biso   1.000  C
  C798     1.0000 0.84996  0.49814  0.03198  Biso   1.000  C
  O932     1.0000 0.84960  0.96594  0.64000  Biso   1.000  O
  O933     1.0000 0.87037  0.97893  0.67458  Biso   1.000  O
  O934     1.0000 0.81130  0.90730  0.76156  Biso   1.000  O
  O935     1.0000 0.85735  0.98722  0.58688  Biso   1.000  O
  O936     1.0000 0.87737  0.02436  0.59235  Biso   1.000  O
  O937     1.0000 0.82890  0.99486  0.46412  Biso   1.000  O
  O938     1.0000 0.82093  0.95944  0.38961  Biso   1.000  O
  C799     1.0000 0.85440  0.96457  0.66400  Biso   1.000  C
  C800     1.0000 0.83880  0.94456  0.67970  Biso   1.000  C
  C801     1.0000 0.84090  0.94320  0.70720  Biso   1.000  C
  C802     1.0000 0.86582  0.00812  0.57773  Biso   1.000  C
  C803     1.0000 0.86098  0.01608  0.54951  Biso   1.000  C
  C804     1.0000 0.84996  0.99814  0.53198  Biso   1.000  C
  O939     1.0000 0.34960  0.46594  0.64000  Biso   1.000  O
  O940     1.0000 0.37037  0.47893  0.67458  Biso   1.000  O
  O941     1.0000 0.31130  0.40730  0.76156  Biso   1.000  O
  O942     1.0000 0.35735  0.48722  0.58688  Biso   1.000  O
  O943     1.0000 0.37737  0.52436  0.59235  Biso   1.000  O
  O944     1.0000 0.32890  0.49486  0.46412  Biso   1.000  O
  O945     1.0000 0.32093  0.45944  0.38961  Biso   1.000  O
  C805     1.0000 0.35440  0.46457  0.66400  Biso   1.000  C
  C806     1.0000 0.33880  0.44456  0.67970  Biso   1.000  C
  C807     1.0000 0.34090  0.44320  0.70720  Biso   1.000  C
  C808     1.0000 0.36582  0.50812  0.57773  Biso   1.000  C
  C809     1.0000 0.36098  0.51608  0.54951  Biso   1.000  C
  C810     1.0000 0.34996  0.49814  0.53198  Biso   1.000  C
  O946     1.0000 0.34960  0.96594  0.14000  Biso   1.000  O
  O947     1.0000 0.37037  0.97893  0.17458  Biso   1.000  O
  O948     1.0000 0.31130  0.90730  0.26156  Biso   1.000  O
  O949     1.0000 0.35735  0.98722  0.08688  Biso   1.000  O
  O950     1.0000 0.37737  0.02436  0.09235  Biso   1.000  O
  O951     1.0000 0.32890  0.99486  0.96412  Biso   1.000  O
  O952     1.0000 0.32093  0.95944  0.88961  Biso   1.000  O
  C811     1.0000 0.35440  0.96457  0.16400  Biso   1.000  C
  C812     1.0000 0.33880  0.94456  0.17970  Biso   1.000  C
  C813     1.0000 0.34090  0.94320  0.20720  Biso   1.000  C
  C814     1.0000 0.36582  0.00812  0.07773  Biso   1.000  C
  C815     1.0000 0.36098  0.01608  0.04951  Biso   1.000  C
  C816     1.0000 0.34996  0.99814  0.03198  Biso   1.000  C
  O953     1.0000 0.40040  0.28406  0.64000  Biso   1.000  O
  O954     1.0000 0.37963  0.27107  0.67458  Biso   1.000  O
  O955     1.0000 0.43870  0.34270  0.76156  Biso   1.000  O
  O956     1.0000 0.39265  0.26278  0.58688  Biso   1.000  O
  O957     1.0000 0.37263  0.22564  0.59235  Biso   1.000  O
  O958     1.0000 0.42110  0.25514  0.46412  Biso   1.000  O
  O959     1.0000 0.42907  0.29056  0.38961  Biso   1.000  O
  C817     1.0000 0.39560  0.28543  0.66400  Biso   1.000  C
  C818     1.0000 0.41120  0.30544  0.67970  Biso   1.000  C
  C819     1.0000 0.40910  0.30680  0.70720  Biso   1.000  C
  C820     1.0000 0.38418  0.24188  0.57773  Biso   1.000  C
  C821     1.0000 0.38902  0.23392  0.54951  Biso   1.000  C
  C822     1.0000 0.40004  0.25186  0.53198  Biso   1.000  C
  O960     1.0000 0.40040  0.78406  0.14000  Biso   1.000  O
  O961     1.0000 0.37963  0.77107  0.17458  Biso   1.000  O
  O962     1.0000 0.43870  0.84270  0.26156  Biso   1.000  O
  O963     1.0000 0.39265  0.76278  0.08688  Biso   1.000  O
  O964     1.0000 0.37263  0.72564  0.09235  Biso   1.000  O
  O965     1.0000 0.42110  0.75514  0.96412  Biso   1.000  O
  O966     1.0000 0.42907  0.79056  0.88961  Biso   1.000  O
  C823     1.0000 0.39560  0.78543  0.16400  Biso   1.000  C
  C824     1.0000 0.41120  0.80544  0.17970  Biso   1.000  C
  C825     1.0000 0.40910  0.80680  0.20720  Biso   1.000  C
  C826     1.0000 0.38418  0.74188  0.07773  Biso   1.000  C
  C827     1.0000 0.38902  0.73392  0.04951  Biso   1.000  C
  C828     1.0000 0.40004  0.75186  0.03198  Biso   1.000  C
  O967     1.0000 0.90040  0.28406  0.14000  Biso   1.000  O
  O968     1.0000 0.87963  0.27107  0.17458  Biso   1.000  O
  O969     1.0000 0.93870  0.34270  0.26156  Biso   1.000  O
  O970     1.0000 0.89265  0.26278  0.08688  Biso   1.000  O
  O971     1.0000 0.87263  0.22564  0.09235  Biso   1.000  O
  O972     1.0000 0.92110  0.25514  0.96412  Biso   1.000  O
  O973     1.0000 0.92907  0.29056  0.88961  Biso   1.000  O
  C829     1.0000 0.89560  0.28543  0.16400  Biso   1.000  C
  C830     1.0000 0.91120  0.30544  0.17970  Biso   1.000  C
  C831     1.0000 0.90910  0.30680  0.20720  Biso   1.000  C
  C832     1.0000 0.88418  0.24188  0.07773  Biso   1.000  C
  C833     1.0000 0.88902  0.23392  0.04951  Biso   1.000  C
  C834     1.0000 0.90004  0.25186  0.03198  Biso   1.000  C
  O974     1.0000 0.90040  0.78406  0.64000  Biso   1.000  O
  O975     1.0000 0.87963  0.77107  0.67458  Biso   1.000  O
  O976     1.0000 0.93870  0.84270  0.76156  Biso   1.000  O
  O977     1.0000 0.89265  0.76278  0.58688  Biso   1.000  O
  O978     1.0000 0.87263  0.72564  0.59235  Biso   1.000  O
  O979     1.0000 0.92110  0.75514  0.46412  Biso   1.000  O
  O980     1.0000 0.92907  0.79056  0.38961  Biso   1.000  O
  C835     1.0000 0.89560  0.78543  0.66400  Biso   1.000  C
  C836     1.0000 0.91120  0.80544  0.67970  Biso   1.000  C
  C837     1.0000 0.90910  0.80680  0.70720  Biso   1.000  C
  C838     1.0000 0.88418  0.74188  0.57773  Biso   1.000  C
  C839     1.0000 0.88902  0.73392  0.54951  Biso   1.000  C
  C840     1.0000 0.90004  0.75186  0.53198  Biso   1.000  C
  O981     1.0000 0.34960  0.78406  0.61000  Biso   1.000  O
  O982     1.0000 0.37037  0.77107  0.57542  Biso   1.000  O
  O983     1.0000 0.31130  0.84270  0.48844  Biso   1.000  O
  O984     1.0000 0.35735  0.76278  0.66312  Biso   1.000  O
  O985     1.0000 0.37737  0.72564  0.65765  Biso   1.000  O
  O986     1.0000 0.32890  0.75514  0.78588  Biso   1.000  O
  O987     1.0000 0.32093  0.79056  0.86039  Biso   1.000  O
  C841     1.0000 0.35440  0.78543  0.58600  Biso   1.000  C
  C842     1.0000 0.33880  0.80544  0.57030  Biso   1.000  C
  C843     1.0000 0.34090  0.80680  0.54280  Biso   1.000  C
  C844     1.0000 0.36582  0.74188  0.67227  Biso   1.000  C
  C845     1.0000 0.36098  0.73392  0.70049  Biso   1.000  C
  C846     1.0000 0.34996  0.75186  0.71802  Biso   1.000  C
  O988     1.0000 0.34960  0.28406  0.11000  Biso   1.000  O
  O989     1.0000 0.37037  0.27107  0.07542  Biso   1.000  O
  O990     1.0000 0.31130  0.34270  0.98844  Biso   1.000  O
  O991     1.0000 0.35735  0.26278  0.16312  Biso   1.000  O
  O992     1.0000 0.37737  0.22564  0.15765  Biso   1.000  O
  O993     1.0000 0.32890  0.25514  0.28588  Biso   1.000  O
  O994     1.0000 0.32093  0.29056  0.36039  Biso   1.000  O
  C847     1.0000 0.35440  0.28543  0.08600  Biso   1.000  C
  C848     1.0000 0.33880  0.30544  0.07030  Biso   1.000  C
  C849     1.0000 0.34090  0.30680  0.04280  Biso   1.000  C
  C850     1.0000 0.36582  0.24188  0.17227  Biso   1.000  C
  C851     1.0000 0.36098  0.23392  0.20049  Biso   1.000  C
  C852     1.0000 0.34996  0.25186  0.21802  Biso   1.000  C
  O995     1.0000 0.84960  0.78406  0.11000  Biso   1.000  O
  O996     1.0000 0.87037  0.77107  0.07542  Biso   1.000  O
  O997     1.0000 0.81130  0.84270  0.98844  Biso   1.000  O
  O998     1.0000 0.85735  0.76278  0.16312  Biso   1.000  O
  O999     1.0000 0.87737  0.72564  0.15765  Biso   1.000  O
  O1000    1.0000 0.82890  0.75514  0.28588  Biso   1.000  O
  O1001    1.0000 0.82093  0.79056  0.36039  Biso   1.000  O
  C853     1.0000 0.85440  0.78543  0.08600  Biso   1.000  C
  C854     1.0000 0.83880  0.80544  0.07030  Biso   1.000  C
  C855     1.0000 0.84090  0.80680  0.04280  Biso   1.000  C
  C856     1.0000 0.86582  0.74188  0.17227  Biso   1.000  C
  C857     1.0000 0.86098  0.73392  0.20049  Biso   1.000  C
  C858     1.0000 0.84996  0.75186  0.21802  Biso   1.000  C
  O1002    1.0000 0.84960  0.28406  0.61000  Biso   1.000  O
  O1003    1.0000 0.87037  0.27107  0.57542  Biso   1.000  O
  O1004    1.0000 0.81130  0.34270  0.48844  Biso   1.000  O
  O1005    1.0000 0.85735  0.26278  0.66312  Biso   1.000  O
  O1006    1.0000 0.87737  0.22564  0.65765  Biso   1.000  O
  O1007    1.0000 0.82890  0.25514  0.78588  Biso   1.000  O
  O1008    1.0000 0.82093  0.29056  0.86039  Biso   1.000  O
  C859     1.0000 0.85440  0.28543  0.58600  Biso   1.000  C
  C860     1.0000 0.83880  0.30544  0.57030  Biso   1.000  C
  C861     1.0000 0.84090  0.30680  0.54280  Biso   1.000  C
  C862     1.0000 0.86582  0.24188  0.67227  Biso   1.000  C
  C863     1.0000 0.86098  0.23392  0.70049  Biso   1.000  C
  C864     1.0000 0.84996  0.25186  0.71802  Biso   1.000  C
  O1009    1.0000 0.15040  0.86000  0.53406  Biso   1.000  O
  O1010    1.0000 0.12963  0.82542  0.52107  Biso   1.000  O
  O1011    1.0000 0.18870  0.73844  0.59270  Biso   1.000  O
  O1012    1.0000 0.14265  0.91312  0.51278  Biso   1.000  O
  O1013    1.0000 0.12263  0.90765  0.47564  Biso   1.000  O
  O1014    1.0000 0.17110  0.03588  0.50514  Biso   1.000  O
  O1015    1.0000 0.17907  0.11039  0.54056  Biso   1.000  O
  C865     1.0000 0.14560  0.83600  0.53543  Biso   1.000  C
  C866     1.0000 0.16120  0.82030  0.55544  Biso   1.000  C
  C867     1.0000 0.15910  0.79280  0.55680  Biso   1.000  C
  C868     1.0000 0.13418  0.92227  0.49188  Biso   1.000  C
  C869     1.0000 0.13902  0.95049  0.48392  Biso   1.000  C
  C870     1.0000 0.15004  0.96802  0.50186  Biso   1.000  C
  O1016    1.0000 0.15040  0.36000  0.03406  Biso   1.000  O
  O1017    1.0000 0.12963  0.32542  0.02107  Biso   1.000  O
  O1018    1.0000 0.18870  0.23844  0.09270  Biso   1.000  O
  O1019    1.0000 0.14265  0.41312  0.01278  Biso   1.000  O
  O1020    1.0000 0.12263  0.40765  0.97564  Biso   1.000  O
  O1021    1.0000 0.17110  0.53588  0.00514  Biso   1.000  O
  O1022    1.0000 0.17907  0.61039  0.04056  Biso   1.000  O
  C871     1.0000 0.14560  0.33600  0.03543  Biso   1.000  C
  C872     1.0000 0.16120  0.32030  0.05544  Biso   1.000  C
  C873     1.0000 0.15910  0.29280  0.05680  Biso   1.000  C
  C874     1.0000 0.13418  0.42227  0.99188  Biso   1.000  C
  C875     1.0000 0.13902  0.45049  0.98392  Biso   1.000  C
  C876     1.0000 0.15004  0.46802  0.00186  Biso   1.000  C
  O1023    1.0000 0.65040  0.86000  0.03406  Biso   1.000  O
  O1024    1.0000 0.62963  0.82542  0.02107  Biso   1.000  O
  O1025    1.0000 0.68870  0.73844  0.09270  Biso   1.000  O
  O1026    1.0000 0.64265  0.91312  0.01278  Biso   1.000  O
  O1027    1.0000 0.62263  0.90765  0.97564  Biso   1.000  O
  O1028    1.0000 0.67110  0.03588  0.00514  Biso   1.000  O
  O1029    1.0000 0.67907  0.11039  0.04056  Biso   1.000  O
  C877     1.0000 0.64560  0.83600  0.03543  Biso   1.000  C
  C878     1.0000 0.66120  0.82030  0.05544  Biso   1.000  C
  C879     1.0000 0.65910  0.79280  0.05680  Biso   1.000  C
  C880     1.0000 0.63418  0.92227  0.99188  Biso   1.000  C
  C881     1.0000 0.63902  0.95049  0.98392  Biso   1.000  C
  C882     1.0000 0.65004  0.96802  0.00186  Biso   1.000  C
  O1030    1.0000 0.65040  0.36000  0.53406  Biso   1.000  O
  O1031    1.0000 0.62963  0.32542  0.52107  Biso   1.000  O
  O1032    1.0000 0.68870  0.23844  0.59270  Biso   1.000  O
  O1033    1.0000 0.64265  0.41312  0.51278  Biso   1.000  O
  O1034    1.0000 0.62263  0.40765  0.47564  Biso   1.000  O
  O1035    1.0000 0.67110  0.53588  0.50514  Biso   1.000  O
  O1036    1.0000 0.67907  0.61039  0.54056  Biso   1.000  O
  C883     1.0000 0.64560  0.33600  0.53543  Biso   1.000  C
  C884     1.0000 0.66120  0.32030  0.55544  Biso   1.000  C
  C885     1.0000 0.65910  0.29280  0.55680  Biso   1.000  C
  C886     1.0000 0.63418  0.42227  0.49188  Biso   1.000  C
  C887     1.0000 0.63902  0.45049  0.48392  Biso   1.000  C
  C888     1.0000 0.65004  0.46802  0.50186  Biso   1.000  C
  O1037    1.0000 0.09960  0.89000  0.03406  Biso   1.000  O
  O1038    1.0000 0.12037  0.92458  0.02107  Biso   1.000  O
  O1039    1.0000 0.06130  0.01156  0.09270  Biso   1.000  O
  O1040    1.0000 0.10735  0.83688  0.01278  Biso   1.000  O
  O1041    1.0000 0.12737  0.84235  0.97564  Biso   1.000  O
  O1042    1.0000 0.07890  0.71412  0.00514  Biso   1.000  O
  O1043    1.0000 0.07093  0.63961  0.04056  Biso   1.000  O
  C889     1.0000 0.10440  0.91400  0.03543  Biso   1.000  C
  C890     1.0000 0.08880  0.92970  0.05544  Biso   1.000  C
  C891     1.0000 0.09090  0.95720  0.05680  Biso   1.000  C
  C892     1.0000 0.11582  0.82773  0.99188  Biso   1.000  C
  C893     1.0000 0.11098  0.79951  0.98392  Biso   1.000  C
  C894     1.0000 0.09996  0.78198  0.00186  Biso   1.000  C
  O1044    1.0000 0.09960  0.39000  0.53406  Biso   1.000  O
  O1045    1.0000 0.12037  0.42458  0.52107  Biso   1.000  O
  O1046    1.0000 0.06130  0.51156  0.59270  Biso   1.000  O
  O1047    1.0000 0.10735  0.33688  0.51278  Biso   1.000  O
  O1048    1.0000 0.12737  0.34235  0.47564  Biso   1.000  O
  O1049    1.0000 0.07890  0.21412  0.50514  Biso   1.000  O
  O1050    1.0000 0.07093  0.13961  0.54056  Biso   1.000  O
  C895     1.0000 0.10440  0.41400  0.53543  Biso   1.000  C
  C896     1.0000 0.08880  0.42970  0.55544  Biso   1.000  C
  C897     1.0000 0.09090  0.45720  0.55680  Biso   1.000  C
  C898     1.0000 0.11582  0.32773  0.49188  Biso   1.000  C
  C899     1.0000 0.11098  0.29951  0.48392  Biso   1.000  C
  C900     1.0000 0.09996  0.28198  0.50186  Biso   1.000  C
  O1051    1.0000 0.59960  0.89000  0.53406  Biso   1.000  O
  O1052    1.0000 0.62037  0.92458  0.52107  Biso   1.000  O
  O1053    1.0000 0.56130  0.01156  0.59270  Biso   1.000  O
  O1054    1.0000 0.60735  0.83688  0.51278  Biso   1.000  O
  O1055    1.0000 0.62737  0.84235  0.47564  Biso   1.000  O
  O1056    1.0000 0.57890  0.71412  0.50514  Biso   1.000  O
  O1057    1.0000 0.57093  0.63961  0.54056  Biso   1.000  O
  C901     1.0000 0.60440  0.91400  0.53543  Biso   1.000  C
  C902     1.0000 0.58880  0.92970  0.55544  Biso   1.000  C
  C903     1.0000 0.59090  0.95720  0.55680  Biso   1.000  C
  C904     1.0000 0.61582  0.82773  0.49188  Biso   1.000  C
  C905     1.0000 0.61098  0.79951  0.48392  Biso   1.000  C
  C906     1.0000 0.59996  0.78198  0.50186  Biso   1.000  C
  O1058    1.0000 0.59960  0.39000  0.03406  Biso   1.000  O
  O1059    1.0000 0.62037  0.42458  0.02107  Biso   1.000  O
  O1060    1.0000 0.56130  0.51156  0.09270  Biso   1.000  O
  O1061    1.0000 0.60735  0.33688  0.01278  Biso   1.000  O
  O1062    1.0000 0.62737  0.34235  0.97564  Biso   1.000  O
  O1063    1.0000 0.57890  0.21412  0.00514  Biso   1.000  O
  O1064    1.0000 0.57093  0.13961  0.04056  Biso   1.000  O
  C907     1.0000 0.60440  0.41400  0.03543  Biso   1.000  C
  C908     1.0000 0.58880  0.42970  0.05544  Biso   1.000  C
  C909     1.0000 0.59090  0.45720  0.05680  Biso   1.000  C
  C910     1.0000 0.61582  0.32773  0.99188  Biso   1.000  C
  C911     1.0000 0.61098  0.29951  0.98392  Biso   1.000  C
  C912     1.0000 0.59996  0.28198  0.00186  Biso   1.000  C
  O1065    1.0000 0.65040  0.39000  0.21594  Biso   1.000  O
  O1066    1.0000 0.62963  0.42458  0.22893  Biso   1.000  O
  O1067    1.0000 0.68870  0.51156  0.15730  Biso   1.000  O
  O1068    1.0000 0.64265  0.33688  0.23722  Biso   1.000  O
  O1069    1.0000 0.62263  0.34235  0.27436  Biso   1.000  O
  O1070    1.0000 0.67110  0.21412  0.24486  Biso   1.000  O
  O1071    1.0000 0.67907  0.13961  0.20944  Biso   1.000  O
  C913     1.0000 0.64560  0.41400  0.21457  Biso   1.000  C
  C914     1.0000 0.66120  0.42970  0.19456  Biso   1.000  C
  C915     1.0000 0.65910  0.45720  0.19320  Biso   1.000  C
  C916     1.0000 0.63418  0.32773  0.25812  Biso   1.000  C
  C917     1.0000 0.63902  0.29951  0.26608  Biso   1.000  C
  C918     1.0000 0.65004  0.28198  0.24814  Biso   1.000  C
  O1072    1.0000 0.65040  0.89000  0.71594  Biso   1.000  O
  O1073    1.0000 0.62963  0.92458  0.72893  Biso   1.000  O
  O1074    1.0000 0.68870  0.01156  0.65730  Biso   1.000  O
  O1075    1.0000 0.64265  0.83688  0.73722  Biso   1.000  O
  O1076    1.0000 0.62263  0.84235  0.77436  Biso   1.000  O
  O1077    1.0000 0.67110  0.71412  0.74486  Biso   1.000  O
  O1078    1.0000 0.67907  0.63961  0.70944  Biso   1.000  O
  C919     1.0000 0.64560  0.91400  0.71457  Biso   1.000  C
  C920     1.0000 0.66120  0.92970  0.69456  Biso   1.000  C
  C921     1.0000 0.65910  0.95720  0.69320  Biso   1.000  C
  C922     1.0000 0.63418  0.82773  0.75812  Biso   1.000  C
  C923     1.0000 0.63902  0.79951  0.76608  Biso   1.000  C
  C924     1.0000 0.65004  0.78198  0.74814  Biso   1.000  C
  O1079    1.0000 0.15040  0.39000  0.71594  Biso   1.000  O
  O1080    1.0000 0.12963  0.42458  0.72893  Biso   1.000  O
  O1081    1.0000 0.18870  0.51156  0.65730  Biso   1.000  O
  O1082    1.0000 0.14265  0.33688  0.73722  Biso   1.000  O
  O1083    1.0000 0.12263  0.34235  0.77436  Biso   1.000  O
  O1084    1.0000 0.17110  0.21412  0.74486  Biso   1.000  O
  O1085    1.0000 0.17907  0.13961  0.70944  Biso   1.000  O
  C925     1.0000 0.14560  0.41400  0.71457  Biso   1.000  C
  C926     1.0000 0.16120  0.42970  0.69456  Biso   1.000  C
  C927     1.0000 0.15910  0.45720  0.69320  Biso   1.000  C
  C928     1.0000 0.13418  0.32773  0.75812  Biso   1.000  C
  C929     1.0000 0.13902  0.29951  0.76608  Biso   1.000  C
  C930     1.0000 0.15004  0.28198  0.74814  Biso   1.000  C
  O1086    1.0000 0.15040  0.89000  0.21594  Biso   1.000  O
  O1087    1.0000 0.12963  0.92458  0.22893  Biso   1.000  O
  O1088    1.0000 0.18870  0.01156  0.15730  Biso   1.000  O
  O1089    1.0000 0.14265  0.83688  0.23722  Biso   1.000  O
  O1090    1.0000 0.12263  0.84235  0.27436  Biso   1.000  O
  O1091    1.0000 0.17110  0.71412  0.24486  Biso   1.000  O
  O1092    1.0000 0.17907  0.63961  0.20944  Biso   1.000  O
  C931     1.0000 0.14560  0.91400  0.21457  Biso   1.000  C
  C932     1.0000 0.16120  0.92970  0.19456  Biso   1.000  C
  C933     1.0000 0.15910  0.95720  0.19320  Biso   1.000  C
  C934     1.0000 0.13418  0.82773  0.25812  Biso   1.000  C
  C935     1.0000 0.13902  0.79951  0.26608  Biso   1.000  C
  C936     1.0000 0.15004  0.78198  0.24814  Biso   1.000  C
  O1093    1.0000 0.59960  0.36000  0.71594  Biso   1.000  O
  O1094    1.0000 0.62037  0.32542  0.72893  Biso   1.000  O
  O1095    1.0000 0.56130  0.23844  0.65730  Biso   1.000  O
  O1096    1.0000 0.60735  0.41312  0.73722  Biso   1.000  O
  O1097    1.0000 0.62737  0.40765  0.77436  Biso   1.000  O
  O1098    1.0000 0.57890  0.53588  0.74486  Biso   1.000  O
  O1099    1.0000 0.57093  0.61039  0.70944  Biso   1.000  O
  C937     1.0000 0.60440  0.33600  0.71457  Biso   1.000  C
  C938     1.0000 0.58880  0.32030  0.69456  Biso   1.000  C
  C939     1.0000 0.59090  0.29280  0.69320  Biso   1.000  C
  C940     1.0000 0.61582  0.42227  0.75812  Biso   1.000  C
  C941     1.0000 0.61098  0.45049  0.76608  Biso   1.000  C
  C942     1.0000 0.59996  0.46802  0.74814  Biso   1.000  C
  O1100    1.0000 0.59960  0.86000  0.21594  Biso   1.000  O
  O1101    1.0000 0.62037  0.82542  0.22893  Biso   1.000  O
  O1102    1.0000 0.56130  0.73844  0.15730  Biso   1.000  O
  O1103    1.0000 0.60735  0.91312  0.23722  Biso   1.000  O
  O1104    1.0000 0.62737  0.90765  0.27436  Biso   1.000  O
  O1105    1.0000 0.57890  0.03588  0.24486  Biso   1.000  O
  O1106    1.0000 0.57093  0.11039  0.20944  Biso   1.000  O
  C943     1.0000 0.60440  0.83600  0.21457  Biso   1.000  C
  C944     1.0000 0.58880  0.82030  0.19456  Biso   1.000  C
  C945     1.0000 0.59090  0.79280  0.19320  Biso   1.000  C
  C946     1.0000 0.61582  0.92227  0.25812  Biso   1.000  C
  C947     1.0000 0.61098  0.95049  0.26608  Biso   1.000  C
  C948     1.0000 0.59996  0.96802  0.24814  Biso   1.000  C
  O1107    1.0000 0.09960  0.36000  0.21594  Biso   1.000  O
  O1108    1.0000 0.12037  0.32542  0.22893  Biso   1.000  O
  O1109    1.0000 0.06130  0.23844  0.15730  Biso   1.000  O
  O1110    1.0000 0.10735  0.41312  0.23722  Biso   1.000  O
  O1111    1.0000 0.12737  0.40765  0.27436  Biso   1.000  O
  O1112    1.0000 0.07890  0.53588  0.24486  Biso   1.000  O
  O1113    1.0000 0.07093  0.61039  0.20944  Biso   1.000  O
  C949     1.0000 0.10440  0.33600  0.21457  Biso   1.000  C
  C950     1.0000 0.08880  0.32030  0.19456  Biso   1.000  C
  C951     1.0000 0.09090  0.29280  0.19320  Biso   1.000  C
  C952     1.0000 0.11582  0.42227  0.25812  Biso   1.000  C
  C953     1.0000 0.11098  0.45049  0.26608  Biso   1.000  C
  C954     1.0000 0.09996  0.46802  0.24814  Biso   1.000  C
  O1114    1.0000 0.09960  0.86000  0.71594  Biso   1.000  O
  O1115    1.0000 0.12037  0.82542  0.72893  Biso   1.000  O
  O1116    1.0000 0.06130  0.73844  0.65730  Biso   1.000  O
  O1117    1.0000 0.10735  0.91312  0.73722  Biso   1.000  O
  O1118    1.0000 0.12737  0.90765  0.77436  Biso   1.000  O
  O1119    1.0000 0.07890  0.03588  0.74486  Biso   1.000  O
  O1120    1.0000 0.07093  0.11039  0.70944  Biso   1.000  O
  C955     1.0000 0.10440  0.83600  0.71457  Biso   1.000  C
  C956     1.0000 0.08880  0.82030  0.69456  Biso   1.000  C
  C957     1.0000 0.09090  0.79280  0.69320  Biso   1.000  C
  C958     1.0000 0.11582  0.92227  0.75812  Biso   1.000  C
  C959     1.0000 0.11098  0.95049  0.76608  Biso   1.000  C
  C960     1.0000 0.09996  0.96802  0.74814  Biso   1.000  C
  O1121    1.0000 0.36000  0.71594  0.59960  Biso   1.000  O
  O1122    1.0000 0.32542  0.72893  0.62037  Biso   1.000  O
  O1123    1.0000 0.23844  0.65730  0.56130  Biso   1.000  O
  O1124    1.0000 0.41312  0.73722  0.60735  Biso   1.000  O
  O1125    1.0000 0.40765  0.77436  0.62737  Biso   1.000  O
  O1126    1.0000 0.53588  0.74486  0.57890  Biso   1.000  O
  O1127    1.0000 0.61039  0.70944  0.57093  Biso   1.000  O
  C961     1.0000 0.33600  0.71457  0.60440  Biso   1.000  C
  C962     1.0000 0.32030  0.69456  0.58880  Biso   1.000  C
  C963     1.0000 0.29280  0.69320  0.59090  Biso   1.000  C
  C964     1.0000 0.42227  0.75812  0.61582  Biso   1.000  C
  C965     1.0000 0.45049  0.76608  0.61098  Biso   1.000  C
  C966     1.0000 0.46802  0.74814  0.59996  Biso   1.000  C
  O1128    1.0000 0.36000  0.21594  0.09960  Biso   1.000  O
  O1129    1.0000 0.32542  0.22893  0.12037  Biso   1.000  O
  O1130    1.0000 0.23844  0.15730  0.06130  Biso   1.000  O
  O1131    1.0000 0.41312  0.23722  0.10735  Biso   1.000  O
  O1132    1.0000 0.40765  0.27436  0.12737  Biso   1.000  O
  O1133    1.0000 0.53588  0.24486  0.07890  Biso   1.000  O
  O1134    1.0000 0.61039  0.20944  0.07093  Biso   1.000  O
  C967     1.0000 0.33600  0.21457  0.10440  Biso   1.000  C
  C968     1.0000 0.32030  0.19456  0.08880  Biso   1.000  C
  C969     1.0000 0.29280  0.19320  0.09090  Biso   1.000  C
  C970     1.0000 0.42227  0.25812  0.11582  Biso   1.000  C
  C971     1.0000 0.45049  0.26608  0.11098  Biso   1.000  C
  C972     1.0000 0.46802  0.24814  0.09996  Biso   1.000  C
  O1135    1.0000 0.86000  0.71594  0.09960  Biso   1.000  O
  O1136    1.0000 0.82542  0.72893  0.12037  Biso   1.000  O
  O1137    1.0000 0.73844  0.65730  0.06130  Biso   1.000  O
  O1138    1.0000 0.91312  0.73722  0.10735  Biso   1.000  O
  O1139    1.0000 0.90765  0.77436  0.12737  Biso   1.000  O
  O1140    1.0000 0.03588  0.74486  0.07890  Biso   1.000  O
  O1141    1.0000 0.11039  0.70944  0.07093  Biso   1.000  O
  C973     1.0000 0.83600  0.71457  0.10440  Biso   1.000  C
  C974     1.0000 0.82030  0.69456  0.08880  Biso   1.000  C
  C975     1.0000 0.79280  0.69320  0.09090  Biso   1.000  C
  C976     1.0000 0.92227  0.75812  0.11582  Biso   1.000  C
  C977     1.0000 0.95049  0.76608  0.11098  Biso   1.000  C
  C978     1.0000 0.96802  0.74814  0.09996  Biso   1.000  C
  O1142    1.0000 0.86000  0.21594  0.59960  Biso   1.000  O
  O1143    1.0000 0.82542  0.22893  0.62037  Biso   1.000  O
  O1144    1.0000 0.73844  0.15730  0.56130  Biso   1.000  O
  O1145    1.0000 0.91312  0.23722  0.60735  Biso   1.000  O
  O1146    1.0000 0.90765  0.27436  0.62737  Biso   1.000  O
  O1147    1.0000 0.03588  0.24486  0.57890  Biso   1.000  O
  O1148    1.0000 0.11039  0.20944  0.57093  Biso   1.000  O
  C979     1.0000 0.83600  0.21457  0.60440  Biso   1.000  C
  C980     1.0000 0.82030  0.19456  0.58880  Biso   1.000  C
  C981     1.0000 0.79280  0.19320  0.59090  Biso   1.000  C
  C982     1.0000 0.92227  0.25812  0.61582  Biso   1.000  C
  C983     1.0000 0.95049  0.26608  0.61098  Biso   1.000  C
  C984     1.0000 0.96802  0.24814  0.59996  Biso   1.000  C
  O1149    1.0000 0.39000  0.21594  0.65040  Biso   1.000  O
  O1150    1.0000 0.42458  0.22893  0.62963  Biso   1.000  O
  O1151    1.0000 0.51156  0.15730  0.68870  Biso   1.000  O
  O1152    1.0000 0.33688  0.23722  0.64265  Biso   1.000  O
  O1153    1.0000 0.34235  0.27436  0.62263  Biso   1.000  O
  O1154    1.0000 0.21412  0.24486  0.67110  Biso   1.000  O
  O1155    1.0000 0.13961  0.20944  0.67907  Biso   1.000  O
  C985     1.0000 0.41400  0.21457  0.64560  Biso   1.000  C
  C986     1.0000 0.42970  0.19456  0.66120  Biso   1.000  C
  C987     1.0000 0.45720  0.19320  0.65910  Biso   1.000  C
  C988     1.0000 0.32773  0.25812  0.63418  Biso   1.000  C
  C989     1.0000 0.29951  0.26608  0.63902  Biso   1.000  C
  C990     1.0000 0.28198  0.24814  0.65004  Biso   1.000  C
  O1156    1.0000 0.39000  0.71594  0.15040  Biso   1.000  O
  O1157    1.0000 0.42458  0.72893  0.12963  Biso   1.000  O
  O1158    1.0000 0.51156  0.65730  0.18870  Biso   1.000  O
  O1159    1.0000 0.33688  0.73722  0.14265  Biso   1.000  O
  O1160    1.0000 0.34235  0.77436  0.12263  Biso   1.000  O
  O1161    1.0000 0.21412  0.74486  0.17110  Biso   1.000  O
  O1162    1.0000 0.13961  0.70944  0.17907  Biso   1.000  O
  C991     1.0000 0.41400  0.71457  0.14560  Biso   1.000  C
  C992     1.0000 0.42970  0.69456  0.16120  Biso   1.000  C
  C993     1.0000 0.45720  0.69320  0.15910  Biso   1.000  C
  C994     1.0000 0.32773  0.75812  0.13418  Biso   1.000  C
  C995     1.0000 0.29951  0.76608  0.13902  Biso   1.000  C
  C996     1.0000 0.28198  0.74814  0.15004  Biso   1.000  C
  O1163    1.0000 0.89000  0.21594  0.15040  Biso   1.000  O
  O1164    1.0000 0.92458  0.22893  0.12963  Biso   1.000  O
  O1165    1.0000 0.01156  0.15730  0.18870  Biso   1.000  O
  O1166    1.0000 0.83688  0.23722  0.14265  Biso   1.000  O
  O1167    1.0000 0.84235  0.27436  0.12263  Biso   1.000  O
  O1168    1.0000 0.71412  0.24486  0.17110  Biso   1.000  O
  O1169    1.0000 0.63961  0.20944  0.17907  Biso   1.000  O
  C997     1.0000 0.91400  0.21457  0.14560  Biso   1.000  C
  C998     1.0000 0.92970  0.19456  0.16120  Biso   1.000  C
  C999     1.0000 0.95720  0.19320  0.15910  Biso   1.000  C
  C1000    1.0000 0.82773  0.25812  0.13418  Biso   1.000  C
  C1001    1.0000 0.79951  0.26608  0.13902  Biso   1.000  C
  C1002    1.0000 0.78198  0.24814  0.15004  Biso   1.000  C
  O1170    1.0000 0.89000  0.71594  0.65040  Biso   1.000  O
  O1171    1.0000 0.92458  0.72893  0.62963  Biso   1.000  O
  O1172    1.0000 0.01156  0.65730  0.68870  Biso   1.000  O
  O1173    1.0000 0.83688  0.73722  0.64265  Biso   1.000  O
  O1174    1.0000 0.84235  0.77436  0.62263  Biso   1.000  O
  O1175    1.0000 0.71412  0.74486  0.67110  Biso   1.000  O
  O1176    1.0000 0.63961  0.70944  0.67907  Biso   1.000  O
  C1003    1.0000 0.91400  0.71457  0.64560  Biso   1.000  C
  C1004    1.0000 0.92970  0.69456  0.66120  Biso   1.000  C
  C1005    1.0000 0.95720  0.69320  0.65910  Biso   1.000  C
  C1006    1.0000 0.82773  0.75812  0.63418  Biso   1.000  C
  C1007    1.0000 0.79951  0.76608  0.63902  Biso   1.000  C
  C1008    1.0000 0.78198  0.74814  0.65004  Biso   1.000  C
  O1177    1.0000 0.89000  0.03406  0.09960  Biso   1.000  O
  O1178    1.0000 0.92458  0.02107  0.12037  Biso   1.000  O
  O1179    1.0000 0.01156  0.09270  0.06130  Biso   1.000  O
  O1180    1.0000 0.83688  0.01278  0.10735  Biso   1.000  O
  O1181    1.0000 0.84235  0.97564  0.12737  Biso   1.000  O
  O1182    1.0000 0.71412  0.00514  0.07890  Biso   1.000  O
  O1183    1.0000 0.63961  0.04056  0.07093  Biso   1.000  O
  C1009    1.0000 0.91400  0.03543  0.10440  Biso   1.000  C
  C1010    1.0000 0.92970  0.05544  0.08880  Biso   1.000  C
  C1011    1.0000 0.95720  0.05680  0.09090  Biso   1.000  C
  C1012    1.0000 0.82773  0.99188  0.11582  Biso   1.000  C
  C1013    1.0000 0.79951  0.98392  0.11098  Biso   1.000  C
  C1014    1.0000 0.78198  0.00186  0.09996  Biso   1.000  C
  O1184    1.0000 0.89000  0.53406  0.59960  Biso   1.000  O
  O1185    1.0000 0.92458  0.52107  0.62037  Biso   1.000  O
  O1186    1.0000 0.01156  0.59270  0.56130  Biso   1.000  O
  O1187    1.0000 0.83688  0.51278  0.60735  Biso   1.000  O
  O1188    1.0000 0.84235  0.47564  0.62737  Biso   1.000  O
  O1189    1.0000 0.71412  0.50514  0.57890  Biso   1.000  O
  O1190    1.0000 0.63961  0.54056  0.57093  Biso   1.000  O
  C1015    1.0000 0.91400  0.53543  0.60440  Biso   1.000  C
  C1016    1.0000 0.92970  0.55544  0.58880  Biso   1.000  C
  C1017    1.0000 0.95720  0.55680  0.59090  Biso   1.000  C
  C1018    1.0000 0.82773  0.49188  0.61582  Biso   1.000  C
  C1019    1.0000 0.79951  0.48392  0.61098  Biso   1.000  C
  C1020    1.0000 0.78198  0.50186  0.59996  Biso   1.000  C
  O1191    1.0000 0.39000  0.03406  0.59960  Biso   1.000  O
  O1192    1.0000 0.42458  0.02107  0.62037  Biso   1.000  O
  O1193    1.0000 0.51156  0.09270  0.56130  Biso   1.000  O
  O1194    1.0000 0.33688  0.01278  0.60735  Biso   1.000  O
  O1195    1.0000 0.34235  0.97564  0.62737  Biso   1.000  O
  O1196    1.0000 0.21412  0.00514  0.57890  Biso   1.000  O
  O1197    1.0000 0.13961  0.04056  0.57093  Biso   1.000  O
  C1021    1.0000 0.41400  0.03543  0.60440  Biso   1.000  C
  C1022    1.0000 0.42970  0.05544  0.58880  Biso   1.000  C
  C1023    1.0000 0.45720  0.05680  0.59090  Biso   1.000  C
  C1024    1.0000 0.32773  0.99188  0.61582  Biso   1.000  C
  C1025    1.0000 0.29951  0.98392  0.61098  Biso   1.000  C
  C1026    1.0000 0.28198  0.00186  0.59996  Biso   1.000  C
  O1198    1.0000 0.39000  0.53406  0.09960  Biso   1.000  O
  O1199    1.0000 0.42458  0.52107  0.12037  Biso   1.000  O
  O1200    1.0000 0.51156  0.59270  0.06130  Biso   1.000  O
  O1201    1.0000 0.33688  0.51278  0.10735  Biso   1.000  O
  O1202    1.0000 0.34235  0.47564  0.12737  Biso   1.000  O
  O1203    1.0000 0.21412  0.50514  0.07890  Biso   1.000  O
  O1204    1.0000 0.13961  0.54056  0.07093  Biso   1.000  O
  C1027    1.0000 0.41400  0.53543  0.10440  Biso   1.000  C
  C1028    1.0000 0.42970  0.55544  0.08880  Biso   1.000  C
  C1029    1.0000 0.45720  0.55680  0.09090  Biso   1.000  C
  C1030    1.0000 0.32773  0.49188  0.11582  Biso   1.000  C
  C1031    1.0000 0.29951  0.48392  0.11098  Biso   1.000  C
  C1032    1.0000 0.28198  0.50186  0.09996  Biso   1.000  C
  O1205    1.0000 0.86000  0.53406  0.15040  Biso   1.000  O
  O1206    1.0000 0.82542  0.52107  0.12963  Biso   1.000  O
  O1207    1.0000 0.73844  0.59270  0.18870  Biso   1.000  O
  O1208    1.0000 0.91312  0.51278  0.14265  Biso   1.000  O
  O1209    1.0000 0.90765  0.47564  0.12263  Biso   1.000  O
  O1210    1.0000 0.03588  0.50514  0.17110  Biso   1.000  O
  O1211    1.0000 0.11039  0.54056  0.17907  Biso   1.000  O
  C1033    1.0000 0.83600  0.53543  0.14560  Biso   1.000  C
  C1034    1.0000 0.82030  0.55544  0.16120  Biso   1.000  C
  C1035    1.0000 0.79280  0.55680  0.15910  Biso   1.000  C
  C1036    1.0000 0.92227  0.49188  0.13418  Biso   1.000  C
  C1037    1.0000 0.95049  0.48392  0.13902  Biso   1.000  C
  C1038    1.0000 0.96802  0.50186  0.15004  Biso   1.000  C
  O1212    1.0000 0.86000  0.03406  0.65040  Biso   1.000  O
  O1213    1.0000 0.82542  0.02107  0.62963  Biso   1.000  O
  O1214    1.0000 0.73844  0.09270  0.68870  Biso   1.000  O
  O1215    1.0000 0.91312  0.01278  0.64265  Biso   1.000  O
  O1216    1.0000 0.90765  0.97564  0.62263  Biso   1.000  O
  O1217    1.0000 0.03588  0.00514  0.67110  Biso   1.000  O
  O1218    1.0000 0.11039  0.04056  0.67907  Biso   1.000  O
  C1039    1.0000 0.83600  0.03543  0.64560  Biso   1.000  C
  C1040    1.0000 0.82030  0.05544  0.66120  Biso   1.000  C
  C1041    1.0000 0.79280  0.05680  0.65910  Biso   1.000  C
  C1042    1.0000 0.92227  0.99188  0.63418  Biso   1.000  C
  C1043    1.0000 0.95049  0.98392  0.63902  Biso   1.000  C
  C1044    1.0000 0.96802  0.00186  0.65004  Biso   1.000  C
  O1219    1.0000 0.36000  0.53406  0.65040  Biso   1.000  O
  O1220    1.0000 0.32542  0.52107  0.62963  Biso   1.000  O
  O1221    1.0000 0.23844  0.59270  0.68870  Biso   1.000  O
  O1222    1.0000 0.41312  0.51278  0.64265  Biso   1.000  O
  O1223    1.0000 0.40765  0.47564  0.62263  Biso   1.000  O
  O1224    1.0000 0.53588  0.50514  0.67110  Biso   1.000  O
  O1225    1.0000 0.61039  0.54056  0.67907  Biso   1.000  O
  C1045    1.0000 0.33600  0.53543  0.64560  Biso   1.000  C
  C1046    1.0000 0.32030  0.55544  0.66120  Biso   1.000  C
  C1047    1.0000 0.29280  0.55680  0.65910  Biso   1.000  C
  C1048    1.0000 0.42227  0.49188  0.63418  Biso   1.000  C
  C1049    1.0000 0.45049  0.48392  0.63902  Biso   1.000  C
  C1050    1.0000 0.46802  0.50186  0.65004  Biso   1.000  C
  O1226    1.0000 0.36000  0.03406  0.15040  Biso   1.000  O
  O1227    1.0000 0.32542  0.02107  0.12963  Biso   1.000  O
  O1228    1.0000 0.23844  0.09270  0.18870  Biso   1.000  O
  O1229    1.0000 0.41312  0.01278  0.14265  Biso   1.000  O
  O1230    1.0000 0.40765  0.97564  0.12263  Biso   1.000  O
  O1231    1.0000 0.53588  0.00514  0.17110  Biso   1.000  O
  O1232    1.0000 0.61039  0.04056  0.17907  Biso   1.000  O
  C1051    1.0000 0.33600  0.03543  0.14560  Biso   1.000  C
  C1052    1.0000 0.32030  0.05544  0.16120  Biso   1.000  C
  C1053    1.0000 0.29280  0.05680  0.15910  Biso   1.000  C
  C1054    1.0000 0.42227  0.99188  0.13418  Biso   1.000  C
  C1055    1.0000 0.45049  0.98392  0.13902  Biso   1.000  C
  C1056    1.0000 0.46802  0.00186  0.15004  Biso   1.000  C
  O1233    1.0000 0.21594  0.65040  0.39000  Biso   1.000  O
  O1234    1.0000 0.22893  0.62963  0.42458  Biso   1.000  O
  O1235    1.0000 0.15730  0.68870  0.51156  Biso   1.000  O
  O1236    1.0000 0.23722  0.64265  0.33688  Biso   1.000  O
  O1237    1.0000 0.27436  0.62263  0.34235  Biso   1.000  O
  O1238    1.0000 0.24486  0.67110  0.21412  Biso   1.000  O
  O1239    1.0000 0.20944  0.67907  0.13961  Biso   1.000  O
  C1057    1.0000 0.21457  0.64560  0.41400  Biso   1.000  C
  C1058    1.0000 0.19456  0.66120  0.42970  Biso   1.000  C
  C1059    1.0000 0.19320  0.65910  0.45720  Biso   1.000  C
  C1060    1.0000 0.25812  0.63418  0.32773  Biso   1.000  C
  C1061    1.0000 0.26608  0.63902  0.29951  Biso   1.000  C
  C1062    1.0000 0.24814  0.65004  0.28198  Biso   1.000  C
  O1240    1.0000 0.21594  0.15040  0.89000  Biso   1.000  O
  O1241    1.0000 0.22893  0.12963  0.92458  Biso   1.000  O
  O1242    1.0000 0.15730  0.18870  0.01156  Biso   1.000  O
  O1243    1.0000 0.23722  0.14265  0.83688  Biso   1.000  O
  O1244    1.0000 0.27436  0.12263  0.84235  Biso   1.000  O
  O1245    1.0000 0.24486  0.17110  0.71412  Biso   1.000  O
  O1246    1.0000 0.20944  0.17907  0.63961  Biso   1.000  O
  C1063    1.0000 0.21457  0.14560  0.91400  Biso   1.000  C
  C1064    1.0000 0.19456  0.16120  0.92970  Biso   1.000  C
  C1065    1.0000 0.19320  0.15910  0.95720  Biso   1.000  C
  C1066    1.0000 0.25812  0.13418  0.82773  Biso   1.000  C
  C1067    1.0000 0.26608  0.13902  0.79951  Biso   1.000  C
  C1068    1.0000 0.24814  0.15004  0.78198  Biso   1.000  C
  O1247    1.0000 0.71594  0.65040  0.89000  Biso   1.000  O
  O1248    1.0000 0.72893  0.62963  0.92458  Biso   1.000  O
  O1249    1.0000 0.65730  0.68870  0.01156  Biso   1.000  O
  O1250    1.0000 0.73722  0.64265  0.83688  Biso   1.000  O
  O1251    1.0000 0.77436  0.62263  0.84235  Biso   1.000  O
  O1252    1.0000 0.74486  0.67110  0.71412  Biso   1.000  O
  O1253    1.0000 0.70944  0.67907  0.63961  Biso   1.000  O
  C1069    1.0000 0.71457  0.64560  0.91400  Biso   1.000  C
  C1070    1.0000 0.69456  0.66120  0.92970  Biso   1.000  C
  C1071    1.0000 0.69320  0.65910  0.95720  Biso   1.000  C
  C1072    1.0000 0.75812  0.63418  0.82773  Biso   1.000  C
  C1073    1.0000 0.76608  0.63902  0.79951  Biso   1.000  C
  C1074    1.0000 0.74814  0.65004  0.78198  Biso   1.000  C
  O1254    1.0000 0.71594  0.15040  0.39000  Biso   1.000  O
  O1255    1.0000 0.72893  0.12963  0.42458  Biso   1.000  O
  O1256    1.0000 0.65730  0.18870  0.51156  Biso   1.000  O
  O1257    1.0000 0.73722  0.14265  0.33688  Biso   1.000  O
  O1258    1.0000 0.77436  0.12263  0.34235  Biso   1.000  O
  O1259    1.0000 0.74486  0.17110  0.21412  Biso   1.000  O
  O1260    1.0000 0.70944  0.17907  0.13961  Biso   1.000  O
  C1075    1.0000 0.71457  0.14560  0.41400  Biso   1.000  C
  C1076    1.0000 0.69456  0.16120  0.42970  Biso   1.000  C
  C1077    1.0000 0.69320  0.15910  0.45720  Biso   1.000  C
  C1078    1.0000 0.75812  0.13418  0.32773  Biso   1.000  C
  C1079    1.0000 0.76608  0.13902  0.29951  Biso   1.000  C
  C1080    1.0000 0.74814  0.15004  0.28198  Biso   1.000  C
  O1261    1.0000 0.71594  0.59960  0.36000  Biso   1.000  O
  O1262    1.0000 0.72893  0.62037  0.32542  Biso   1.000  O
  O1263    1.0000 0.65730  0.56130  0.23844  Biso   1.000  O
  O1264    1.0000 0.73722  0.60735  0.41312  Biso   1.000  O
  O1265    1.0000 0.77436  0.62737  0.40765  Biso   1.000  O
  O1266    1.0000 0.74486  0.57890  0.53588  Biso   1.000  O
  O1267    1.0000 0.70944  0.57093  0.61039  Biso   1.000  O
  C1081    1.0000 0.71457  0.60440  0.33600  Biso   1.000  C
  C1082    1.0000 0.69456  0.58880  0.32030  Biso   1.000  C
  C1083    1.0000 0.69320  0.59090  0.29280  Biso   1.000  C
  C1084    1.0000 0.75812  0.61582  0.42227  Biso   1.000  C
  C1085    1.0000 0.76608  0.61098  0.45049  Biso   1.000  C
  C1086    1.0000 0.74814  0.59996  0.46802  Biso   1.000  C
  O1268    1.0000 0.71594  0.09960  0.86000  Biso   1.000  O
  O1269    1.0000 0.72893  0.12037  0.82542  Biso   1.000  O
  O1270    1.0000 0.65730  0.06130  0.73844  Biso   1.000  O
  O1271    1.0000 0.73722  0.10735  0.91312  Biso   1.000  O
  O1272    1.0000 0.77436  0.12737  0.90765  Biso   1.000  O
  O1273    1.0000 0.74486  0.07890  0.03588  Biso   1.000  O
  O1274    1.0000 0.70944  0.07093  0.11039  Biso   1.000  O
  C1087    1.0000 0.71457  0.10440  0.83600  Biso   1.000  C
  C1088    1.0000 0.69456  0.08880  0.82030  Biso   1.000  C
  C1089    1.0000 0.69320  0.09090  0.79280  Biso   1.000  C
  C1090    1.0000 0.75812  0.11582  0.92227  Biso   1.000  C
  C1091    1.0000 0.76608  0.11098  0.95049  Biso   1.000  C
  C1092    1.0000 0.74814  0.09996  0.96802  Biso   1.000  C
  O1275    1.0000 0.21594  0.59960  0.86000  Biso   1.000  O
  O1276    1.0000 0.22893  0.62037  0.82542  Biso   1.000  O
  O1277    1.0000 0.15730  0.56130  0.73844  Biso   1.000  O
  O1278    1.0000 0.23722  0.60735  0.91312  Biso   1.000  O
  O1279    1.0000 0.27436  0.62737  0.90765  Biso   1.000  O
  O1280    1.0000 0.24486  0.57890  0.03588  Biso   1.000  O
  O1281    1.0000 0.20944  0.57093  0.11039  Biso   1.000  O
  C1093    1.0000 0.21457  0.60440  0.83600  Biso   1.000  C
  C1094    1.0000 0.19456  0.58880  0.82030  Biso   1.000  C
  C1095    1.0000 0.19320  0.59090  0.79280  Biso   1.000  C
  C1096    1.0000 0.25812  0.61582  0.92227  Biso   1.000  C
  C1097    1.0000 0.26608  0.61098  0.95049  Biso   1.000  C
  C1098    1.0000 0.24814  0.59996  0.96802  Biso   1.000  C
  O1282    1.0000 0.21594  0.09960  0.36000  Biso   1.000  O
  O1283    1.0000 0.22893  0.12037  0.32542  Biso   1.000  O
  O1284    1.0000 0.15730  0.06130  0.23844  Biso   1.000  O
  O1285    1.0000 0.23722  0.10735  0.41312  Biso   1.000  O
  O1286    1.0000 0.27436  0.12737  0.40765  Biso   1.000  O
  O1287    1.0000 0.24486  0.07890  0.53588  Biso   1.000  O
  O1288    1.0000 0.20944  0.07093  0.61039  Biso   1.000  O
  C1099    1.0000 0.21457  0.10440  0.33600  Biso   1.000  C
  C1100    1.0000 0.19456  0.08880  0.32030  Biso   1.000  C
  C1101    1.0000 0.19320  0.09090  0.29280  Biso   1.000  C
  C1102    1.0000 0.25812  0.11582  0.42227  Biso   1.000  C
  C1103    1.0000 0.26608  0.11098  0.45049  Biso   1.000  C
  C1104    1.0000 0.24814  0.09996  0.46802  Biso   1.000  C
  O1289    1.0000 0.53406  0.15040  0.86000  Biso   1.000  O
  O1290    1.0000 0.52107  0.12963  0.82542  Biso   1.000  O
  O1291    1.0000 0.59270  0.18870  0.73844  Biso   1.000  O
  O1292    1.0000 0.51278  0.14265  0.91312  Biso   1.000  O
  O1293    1.0000 0.47564  0.12263  0.90765  Biso   1.000  O
  O1294    1.0000 0.50514  0.17110  0.03588  Biso   1.000  O
  O1295    1.0000 0.54056  0.17907  0.11039  Biso   1.000  O
  C1105    1.0000 0.53543  0.14560  0.83600  Biso   1.000  C
  C1106    1.0000 0.55544  0.16120  0.82030  Biso   1.000  C
  C1107    1.0000 0.55680  0.15910  0.79280  Biso   1.000  C
  C1108    1.0000 0.49188  0.13418  0.92227  Biso   1.000  C
  C1109    1.0000 0.48392  0.13902  0.95049  Biso   1.000  C
  C1110    1.0000 0.50186  0.15004  0.96802  Biso   1.000  C
  O1296    1.0000 0.53406  0.65040  0.36000  Biso   1.000  O
  O1297    1.0000 0.52107  0.62963  0.32542  Biso   1.000  O
  O1298    1.0000 0.59270  0.68870  0.23844  Biso   1.000  O
  O1299    1.0000 0.51278  0.64265  0.41312  Biso   1.000  O
  O1300    1.0000 0.47564  0.62263  0.40765  Biso   1.000  O
  O1301    1.0000 0.50514  0.67110  0.53588  Biso   1.000  O
  O1302    1.0000 0.54056  0.67907  0.61039  Biso   1.000  O
  C1111    1.0000 0.53543  0.64560  0.33600  Biso   1.000  C
  C1112    1.0000 0.55544  0.66120  0.32030  Biso   1.000  C
  C1113    1.0000 0.55680  0.65910  0.29280  Biso   1.000  C
  C1114    1.0000 0.49188  0.63418  0.42227  Biso   1.000  C
  C1115    1.0000 0.48392  0.63902  0.45049  Biso   1.000  C
  C1116    1.0000 0.50186  0.65004  0.46802  Biso   1.000  C
  O1303    1.0000 0.03406  0.15040  0.36000  Biso   1.000  O
  O1304    1.0000 0.02107  0.12963  0.32542  Biso   1.000  O
  O1305    1.0000 0.09270  0.18870  0.23844  Biso   1.000  O
  O1306    1.0000 0.01278  0.14265  0.41312  Biso   1.000  O
  O1307    1.0000 0.97564  0.12263  0.40765  Biso   1.000  O
  O1308    1.0000 0.00514  0.17110  0.53588  Biso   1.000  O
  O1309    1.0000 0.04056  0.17907  0.61039  Biso   1.000  O
  C1117    1.0000 0.03543  0.14560  0.33600  Biso   1.000  C
  C1118    1.0000 0.05544  0.16120  0.32030  Biso   1.000  C
  C1119    1.0000 0.05680  0.15910  0.29280  Biso   1.000  C
  C1120    1.0000 0.99188  0.13418  0.42227  Biso   1.000  C
  C1121    1.0000 0.98392  0.13902  0.45049  Biso   1.000  C
  C1122    1.0000 0.00186  0.15004  0.46802  Biso   1.000  C
  O1310    1.0000 0.03406  0.65040  0.86000  Biso   1.000  O
  O1311    1.0000 0.02107  0.62963  0.82542  Biso   1.000  O
  O1312    1.0000 0.09270  0.68870  0.73844  Biso   1.000  O
  O1313    1.0000 0.01278  0.64265  0.91312  Biso   1.000  O
  O1314    1.0000 0.97564  0.62263  0.90765  Biso   1.000  O
  O1315    1.0000 0.00514  0.67110  0.03588  Biso   1.000  O
  O1316    1.0000 0.04056  0.67907  0.11039  Biso   1.000  O
  C1123    1.0000 0.03543  0.64560  0.83600  Biso   1.000  C
  C1124    1.0000 0.05544  0.66120  0.82030  Biso   1.000  C
  C1125    1.0000 0.05680  0.65910  0.79280  Biso   1.000  C
  C1126    1.0000 0.99188  0.63418  0.92227  Biso   1.000  C
  C1127    1.0000 0.98392  0.63902  0.95049  Biso   1.000  C
  C1128    1.0000 0.00186  0.65004  0.96802  Biso   1.000  C
  O1317    1.0000 0.03406  0.09960  0.89000  Biso   1.000  O
  O1318    1.0000 0.02107  0.12037  0.92458  Biso   1.000  O
  O1319    1.0000 0.09270  0.06130  0.01156  Biso   1.000  O
  O1320    1.0000 0.01278  0.10735  0.83688  Biso   1.000  O
  O1321    1.0000 0.97564  0.12737  0.84235  Biso   1.000  O
  O1322    1.0000 0.00514  0.07890  0.71412  Biso   1.000  O
  O1323    1.0000 0.04056  0.07093  0.63961  Biso   1.000  O
  C1129    1.0000 0.03543  0.10440  0.91400  Biso   1.000  C
  C1130    1.0000 0.05544  0.08880  0.92970  Biso   1.000  C
  C1131    1.0000 0.05680  0.09090  0.95720  Biso   1.000  C
  C1132    1.0000 0.99188  0.11582  0.82773  Biso   1.000  C
  C1133    1.0000 0.98392  0.11098  0.79951  Biso   1.000  C
  C1134    1.0000 0.00186  0.09996  0.78198  Biso   1.000  C
  O1324    1.0000 0.03406  0.59960  0.39000  Biso   1.000  O
  O1325    1.0000 0.02107  0.62037  0.42458  Biso   1.000  O
  O1326    1.0000 0.09270  0.56130  0.51156  Biso   1.000  O
  O1327    1.0000 0.01278  0.60735  0.33688  Biso   1.000  O
  O1328    1.0000 0.97564  0.62737  0.34235  Biso   1.000  O
  O1329    1.0000 0.00514  0.57890  0.21412  Biso   1.000  O
  O1330    1.0000 0.04056  0.57093  0.13961  Biso   1.000  O
  C1135    1.0000 0.03543  0.60440  0.41400  Biso   1.000  C
  C1136    1.0000 0.05544  0.58880  0.42970  Biso   1.000  C
  C1137    1.0000 0.05680  0.59090  0.45720  Biso   1.000  C
  C1138    1.0000 0.99188  0.61582  0.32773  Biso   1.000  C
  C1139    1.0000 0.98392  0.61098  0.29951  Biso   1.000  C
  C1140    1.0000 0.00186  0.59996  0.28198  Biso   1.000  C
  O1331    1.0000 0.53406  0.09960  0.39000  Biso   1.000  O
  O1332    1.0000 0.52107  0.12037  0.42458  Biso   1.000  O
  O1333    1.0000 0.59270  0.06130  0.51156  Biso   1.000  O
  O1334    1.0000 0.51278  0.10735  0.33688  Biso   1.000  O
  O1335    1.0000 0.47564  0.12737  0.34235  Biso   1.000  O
  O1336    1.0000 0.50514  0.07890  0.21412  Biso   1.000  O
  O1337    1.0000 0.54056  0.07093  0.13961  Biso   1.000  O
  C1141    1.0000 0.53543  0.10440  0.41400  Biso   1.000  C
  C1142    1.0000 0.55544  0.08880  0.42970  Biso   1.000  C
  C1143    1.0000 0.55680  0.09090  0.45720  Biso   1.000  C
  C1144    1.0000 0.49188  0.11582  0.32773  Biso   1.000  C
  C1145    1.0000 0.48392  0.11098  0.29951  Biso   1.000  C
  C1146    1.0000 0.50186  0.09996  0.28198  Biso   1.000  C
  O1338    1.0000 0.53406  0.59960  0.89000  Biso   1.000  O
  O1339    1.0000 0.52107  0.62037  0.92458  Biso   1.000  O
  O1340    1.0000 0.59270  0.56130  0.01156  Biso   1.000  O
  O1341    1.0000 0.51278  0.60735  0.83688  Biso   1.000  O
  O1342    1.0000 0.47564  0.62737  0.84235  Biso   1.000  O
  O1343    1.0000 0.50514  0.57890  0.71412  Biso   1.000  O
  O1344    1.0000 0.54056  0.57093  0.63961  Biso   1.000  O
  C1147    1.0000 0.53543  0.60440  0.91400  Biso   1.000  C
  C1148    1.0000 0.55544  0.58880  0.92970  Biso   1.000  C
  C1149    1.0000 0.55680  0.59090  0.95720  Biso   1.000  C
  C1150    1.0000 0.49188  0.61582  0.82773  Biso   1.000  C
  C1151    1.0000 0.48392  0.61098  0.79951  Biso   1.000  C
  C1152    1.0000 0.50186  0.59996  0.78198  Biso   1.000  C
  In1      1.0000 0.87812  0.12188  0.00000  Biso   1.000  In
  In2      1.0000 0.87812  0.62188  0.50000  Biso   1.000  In
  In3      1.0000 0.37812  0.12188  0.50000  Biso   1.000  In
  In4      1.0000 0.37812  0.62188  0.00000  Biso   1.000  In
  In5      1.0000 0.87188  0.12812  0.50000  Biso   1.000  In
  In6      1.0000 0.87188  0.62812  0.00000  Biso   1.000  In
  In7      1.0000 0.37188  0.12812  0.00000  Biso   1.000  In
  In8      1.0000 0.37188  0.62812  0.50000  Biso   1.000  In
  In9      1.0000 0.37188  0.62188  0.75000  Biso   1.000  In
  In10     1.0000 0.37188  0.12188  0.25000  Biso   1.000  In
  In11     1.0000 0.87188  0.62188  0.25000  Biso   1.000  In
  In12     1.0000 0.87188  0.12188  0.75000  Biso   1.000  In
  In13     1.0000 0.37812  0.62812  0.25000  Biso   1.000  In
  In14     1.0000 0.37812  0.12812  0.75000  Biso   1.000  In
  In15     1.0000 0.87812  0.62812  0.75000  Biso   1.000  In
  In16     1.0000 0.87812  0.12812  0.25000  Biso   1.000  In
  In17     1.0000 0.00000  0.87812  0.12188  Biso   1.000  In
  In18     1.0000 0.00000  0.37812  0.62188  Biso   1.000  In
  In19     1.0000 0.50000  0.87812  0.62188  Biso   1.000  In
  In20     1.0000 0.50000  0.37812  0.12188  Biso   1.000  In
  In21     1.0000 0.50000  0.87188  0.12812  Biso   1.000  In
  In22     1.0000 0.50000  0.37188  0.62812  Biso   1.000  In
  In23     1.0000 0.00000  0.87188  0.62812  Biso   1.000  In
  In24     1.0000 0.00000  0.37188  0.12812  Biso   1.000  In
  In25     1.0000 0.75000  0.37188  0.62188  Biso   1.000  In
  In26     1.0000 0.75000  0.87188  0.12188  Biso   1.000  In
  In27     1.0000 0.25000  0.37188  0.12188  Biso   1.000  In
  In28     1.0000 0.25000  0.87188  0.62188  Biso   1.000  In
  In29     1.0000 0.25000  0.37812  0.62812  Biso   1.000  In
  In30     1.0000 0.25000  0.87812  0.12812  Biso   1.000  In
  In31     1.0000 0.75000  0.37812  0.12812  Biso   1.000  In
  In32     1.0000 0.75000  0.87812  0.62812  Biso   1.000  In
  In33     1.0000 0.12188  0.00000  0.87812  Biso   1.000  In
  In34     1.0000 0.12188  0.50000  0.37812  Biso   1.000  In
  In35     1.0000 0.62188  0.00000  0.37812  Biso   1.000  In
  In36     1.0000 0.62188  0.50000  0.87812  Biso   1.000  In
  In37     1.0000 0.12812  0.50000  0.87188  Biso   1.000  In
  In38     1.0000 0.12812  0.00000  0.37188  Biso   1.000  In
  In39     1.0000 0.62812  0.50000  0.37188  Biso   1.000  In
  In40     1.0000 0.62812  0.00000  0.87188  Biso   1.000  In
  In41     1.0000 0.62188  0.75000  0.37188  Biso   1.000  In
  In42     1.0000 0.62188  0.25000  0.87188  Biso   1.000  In
  In43     1.0000 0.12188  0.75000  0.87188  Biso   1.000  In
  In44     1.0000 0.12188  0.25000  0.37188  Biso   1.000  In
  In45     1.0000 0.62812  0.25000  0.37812  Biso   1.000  In
  In46     1.0000 0.62812  0.75000  0.87812  Biso   1.000  In
  In47     1.0000 0.12812  0.25000  0.87812  Biso   1.000  In
  In48     1.0000 0.12812  0.75000  0.37812  Biso   1.000  In
  In49     1.0000 0.12188  0.87812  0.00000  Biso   1.000  In
  In50     1.0000 0.12188  0.37812  0.50000  Biso   1.000  In
  In51     1.0000 0.62188  0.87812  0.50000  Biso   1.000  In
  In52     1.0000 0.62188  0.37812  0.00000  Biso   1.000  In
  In53     1.0000 0.12812  0.87188  0.50000  Biso   1.000  In
  In54     1.0000 0.12812  0.37188  0.00000  Biso   1.000  In
  In55     1.0000 0.62812  0.87188  0.00000  Biso   1.000  In
  In56     1.0000 0.62812  0.37188  0.50000  Biso   1.000  In
  In57     1.0000 0.62812  0.37812  0.25000  Biso   1.000  In
  In58     1.0000 0.62812  0.87812  0.75000  Biso   1.000  In
  In59     1.0000 0.12812  0.37812  0.75000  Biso   1.000  In
  In60     1.0000 0.12812  0.87812  0.25000  Biso   1.000  In
  In61     1.0000 0.62188  0.37188  0.75000  Biso   1.000  In
  In62     1.0000 0.62188  0.87188  0.25000  Biso   1.000  In
  In63     1.0000 0.12188  0.37188  0.25000  Biso   1.000  In
  In64     1.0000 0.12188  0.87188  0.75000  Biso   1.000  In
  In65     1.0000 0.00000  0.12188  0.87812  Biso   1.000  In
  In66     1.0000 0.00000  0.62188  0.37812  Biso   1.000  In
  In67     1.0000 0.50000  0.12188  0.37812  Biso   1.000  In
  In68     1.0000 0.50000  0.62188  0.87812  Biso   1.000  In
  In69     1.0000 0.50000  0.12812  0.87188  Biso   1.000  In
  In70     1.0000 0.50000  0.62812  0.37188  Biso   1.000  In
  In71     1.0000 0.00000  0.12812  0.37188  Biso   1.000  In
  In72     1.0000 0.00000  0.62812  0.87188  Biso   1.000  In
  In73     1.0000 0.25000  0.62812  0.37812  Biso   1.000  In
  In74     1.0000 0.25000  0.12812  0.87812  Biso   1.000  In
  In75     1.0000 0.75000  0.62812  0.87812  Biso   1.000  In
  In76     1.0000 0.75000  0.12812  0.37812  Biso   1.000  In
  In77     1.0000 0.75000  0.62188  0.37188  Biso   1.000  In
  In78     1.0000 0.75000  0.12188  0.87188  Biso   1.000  In
  In79     1.0000 0.25000  0.62188  0.87188  Biso   1.000  In
  In80     1.0000 0.25000  0.12188  0.37188  Biso   1.000  In
  In81     1.0000 0.87812  0.00000  0.12188  Biso   1.000  In
  In82     1.0000 0.87812  0.50000  0.62188  Biso   1.000  In
  In83     1.0000 0.37812  0.00000  0.62188  Biso   1.000  In
  In84     1.0000 0.37812  0.50000  0.12188  Biso   1.000  In
  In85     1.0000 0.87188  0.50000  0.12812  Biso   1.000  In
  In86     1.0000 0.87188  0.00000  0.62812  Biso   1.000  In
  In87     1.0000 0.37188  0.50000  0.62812  Biso   1.000  In
  In88     1.0000 0.37188  0.00000  0.12812  Biso   1.000  In
  In89     1.0000 0.37812  0.25000  0.62812  Biso   1.000  In
  In90     1.0000 0.37812  0.75000  0.12812  Biso   1.000  In
  In91     1.0000 0.87812  0.25000  0.12812  Biso   1.000  In
  In92     1.0000 0.87812  0.75000  0.62812  Biso   1.000  In
  In93     1.0000 0.37188  0.75000  0.62188  Biso   1.000  In
  In94     1.0000 0.37188  0.25000  0.12188  Biso   1.000  In
  In95     1.0000 0.87188  0.75000  0.12188  Biso   1.000  In
  In96     1.0000 0.87188  0.25000  0.62188  Biso   1.000  In
  Ni1      1.0000 0.67677  0.07323  0.02346  Biso   1.000  Ni
  Ni2      1.0000 0.67677  0.57323  0.52346  Biso   1.000  Ni
  Ni3      1.0000 0.07323  0.17677  0.52346  Biso   1.000  Ni
  Ni4      1.0000 0.57323  0.17677  0.02346  Biso   1.000  Ni
  Ni5      1.0000 0.57323  0.67677  0.52346  Biso   1.000  Ni
  Ni6      1.0000 0.57323  0.57323  0.72654  Biso   1.000  Ni
  Ni7      1.0000 0.57323  0.07323  0.22654  Biso   1.000  Ni
  Ni8      1.0000 0.07323  0.57323  0.22654  Biso   1.000  Ni
  Ni9      1.0000 0.07323  0.07323  0.72654  Biso   1.000  Ni
  Ni10     1.0000 0.17677  0.67677  0.22654  Biso   1.000  Ni
  Ni11     1.0000 0.17677  0.17677  0.72654  Biso   1.000  Ni
  Ni12     1.0000 0.02346  0.67677  0.07323  Biso   1.000  Ni
  Ni13     1.0000 0.02346  0.17677  0.57323  Biso   1.000  Ni
  Ni14     1.0000 0.52346  0.67677  0.57323  Biso   1.000  Ni
  Ni15     1.0000 0.52346  0.07323  0.17677  Biso   1.000  Ni
  Ni16     1.0000 0.52346  0.57323  0.67677  Biso   1.000  Ni
  Ni17     1.0000 0.72654  0.57323  0.57323  Biso   1.000  Ni
  Ni18     1.0000 0.72654  0.07323  0.07323  Biso   1.000  Ni
  Ni19     1.0000 0.22654  0.57323  0.07323  Biso   1.000  Ni
  Ni20     1.0000 0.22654  0.07323  0.57323  Biso   1.000  Ni
  Ni21     1.0000 0.22654  0.17677  0.67677  Biso   1.000  Ni
  Ni22     1.0000 0.72654  0.17677  0.17677  Biso   1.000  Ni
  Ni23     1.0000 0.07323  0.02346  0.67677  Biso   1.000  Ni
  Ni24     1.0000 0.57323  0.02346  0.17677  Biso   1.000  Ni
  Ni25     1.0000 0.57323  0.52346  0.67677  Biso   1.000  Ni
  Ni26     1.0000 0.17677  0.52346  0.07323  Biso   1.000  Ni
  Ni27     1.0000 0.17677  0.02346  0.57323  Biso   1.000  Ni
  Ni28     1.0000 0.67677  0.52346  0.57323  Biso   1.000  Ni
  Ni29     1.0000 0.57323  0.72654  0.57323  Biso   1.000  Ni
  Ni30     1.0000 0.57323  0.22654  0.07323  Biso   1.000  Ni
  Ni31     1.0000 0.07323  0.72654  0.07323  Biso   1.000  Ni
  Ni32     1.0000 0.07323  0.22654  0.57323  Biso   1.000  Ni
  Ni33     1.0000 0.67677  0.22654  0.17677  Biso   1.000  Ni
  Ni34     1.0000 0.67677  0.72654  0.67677  Biso   1.000  Ni
  Ni35     1.0000 0.17677  0.72654  0.17677  Biso   1.000  Ni
  Ni36     1.0000 0.82323  0.92677  0.47654  Biso   1.000  Ni
  Ni37     1.0000 0.82323  0.42677  0.97654  Biso   1.000  Ni
  Ni38     1.0000 0.92677  0.32323  0.97654  Biso   1.000  Ni
  Ni39     1.0000 0.42677  0.32323  0.47654  Biso   1.000  Ni
  Ni40     1.0000 0.32323  0.82323  0.77345  Biso   1.000  Ni
  Ni41     1.0000 0.32323  0.32323  0.27346  Biso   1.000  Ni
  Ni42     1.0000 0.42677  0.42677  0.27346  Biso   1.000  Ni
  Ni43     1.0000 0.42677  0.92677  0.77345  Biso   1.000  Ni
  Ni44     1.0000 0.92677  0.42677  0.77345  Biso   1.000  Ni
  Ni45     1.0000 0.92677  0.92677  0.27346  Biso   1.000  Ni
  Ni46     1.0000 0.42677  0.27346  0.42677  Biso   1.000  Ni
  Ni47     1.0000 0.42677  0.77345  0.92677  Biso   1.000  Ni
  Ni48     1.0000 0.92677  0.27346  0.92677  Biso   1.000  Ni
  Ni49     1.0000 0.92677  0.77345  0.42677  Biso   1.000  Ni
  Ni50     1.0000 0.82323  0.77345  0.32323  Biso   1.000  Ni
  Ni51     1.0000 0.82323  0.27346  0.82323  Biso   1.000  Ni
  Ni52     1.0000 0.32323  0.27346  0.32323  Biso   1.000  Ni
  Ni53     1.0000 0.32323  0.97654  0.92677  Biso   1.000  Ni
  Ni54     1.0000 0.32323  0.47654  0.42677  Biso   1.000  Ni
  Ni55     1.0000 0.92677  0.47654  0.82323  Biso   1.000  Ni
  Ni56     1.0000 0.42677  0.47654  0.32323  Biso   1.000  Ni
  Ni57     1.0000 0.77345  0.32323  0.82323  Biso   1.000  Ni
  Ni58     1.0000 0.27346  0.32323  0.32323  Biso   1.000  Ni
  Ni59     1.0000 0.27346  0.42677  0.42677  Biso   1.000  Ni
  Ni60     1.0000 0.27346  0.92677  0.92677  Biso   1.000  Ni
  Ni61     1.0000 0.77345  0.42677  0.92677  Biso   1.000  Ni
  Ni62     1.0000 0.77345  0.92677  0.42677  Biso   1.000  Ni
  Ni63     1.0000 0.47654  0.82323  0.92677  Biso   1.000  Ni
  Ni64     1.0000 0.47654  0.32323  0.42677  Biso   1.000  Ni
  Ni65     1.0000 0.97654  0.92677  0.32323  Biso   1.000  Ni
  Ni66     1.0000 0.97654  0.42677  0.82323  Biso   1.000  Ni
  Ni67     1.0000 0.32323  0.92677  0.97654  Biso   1.000  Ni
  Ni68     1.0000 0.32323  0.42677  0.47654  Biso   1.000  Ni
  Ni69     1.0000 0.92677  0.82323  0.47654  Biso   1.000  Ni
  Ni70     1.0000 0.42677  0.82323  0.97654  Biso   1.000  Ni
  Ni71     1.0000 0.82323  0.32323  0.77345  Biso   1.000  Ni
  Ni72     1.0000 0.82323  0.82323  0.27346  Biso   1.000  Ni
  Ni73     1.0000 0.97654  0.32323  0.92677  Biso   1.000  Ni
  Ni74     1.0000 0.97654  0.82323  0.42677  Biso   1.000  Ni
  Ni75     1.0000 0.47654  0.92677  0.82323  Biso   1.000  Ni
  Ni76     1.0000 0.47654  0.42677  0.32323  Biso   1.000  Ni
  Ni77     1.0000 0.77345  0.82323  0.32323  Biso   1.000  Ni
  Ni78     1.0000 0.27346  0.82323  0.82323  Biso   1.000  Ni
  Ni79     1.0000 0.92677  0.97654  0.32323  Biso   1.000  Ni
  Ni80     1.0000 0.42677  0.97654  0.82323  Biso   1.000  Ni
  Ni81     1.0000 0.82323  0.47654  0.92677  Biso   1.000  Ni
  Ni82     1.0000 0.82323  0.97654  0.42677  Biso   1.000  Ni
  Ni83     1.0000 0.32323  0.77345  0.82323  Biso   1.000  Ni
  Ni84     1.0000 0.17677  0.07323  0.52346  Biso   1.000  Ni
  Ni85     1.0000 0.17677  0.57323  0.02346  Biso   1.000  Ni
  Ni86     1.0000 0.07323  0.67677  0.02346  Biso   1.000  Ni
  Ni87     1.0000 0.67677  0.17677  0.22654  Biso   1.000  Ni
  Ni88     1.0000 0.67677  0.67677  0.72654  Biso   1.000  Ni
  Ni89     1.0000 0.17677  0.22654  0.67677  Biso   1.000  Ni
  Ni90     1.0000 0.67677  0.02346  0.07323  Biso   1.000  Ni
  Ni91     1.0000 0.07323  0.52346  0.17677  Biso   1.000  Ni
  Ni92     1.0000 0.22654  0.67677  0.17677  Biso   1.000  Ni
  Ni93     1.0000 0.72654  0.67677  0.67677  Biso   1.000  Ni
  Ni94     1.0000 0.52346  0.17677  0.07323  Biso   1.000  Ni
  Ni95     1.0000 0.02346  0.07323  0.67677  Biso   1.000  Ni
  Ni96     1.0000 0.02346  0.57323  0.17677  Biso   1.000  Ni
  Ni97     1.0000 0.04095  0.04095  0.09350  Biso   1.000  Ni
  O1345    1.0000 0.06830  0.06830  0.10610  Biso   1.000  O
  Ni98     1.0000 0.05488  0.05488  0.09750  Biso   1.000  Ni
  Ni99     1.0000 0.04095  0.54095  0.59350  Biso   1.000  Ni
  O1346    1.0000 0.06830  0.56830  0.60610  Biso   1.000  O
  Ni100    1.0000 0.05488  0.55488  0.59750  Biso   1.000  Ni
  Ni101    1.0000 0.54095  0.04095  0.59350  Biso   1.000  Ni
  O1347    1.0000 0.56830  0.06830  0.60610  Biso   1.000  O
  Ni102    1.0000 0.55488  0.05488  0.59750  Biso   1.000  Ni
  Ni103    1.0000 0.54095  0.54095  0.09350  Biso   1.000  Ni
  O1348    1.0000 0.56830  0.56830  0.10610  Biso   1.000  O
  Ni104    1.0000 0.55488  0.55488  0.09750  Biso   1.000  Ni
  Ni105    1.0000 0.70905  0.20905  0.59350  Biso   1.000  Ni
  O1349    1.0000 0.68170  0.18170  0.60610  Biso   1.000  O
  Ni106    1.0000 0.69512  0.19512  0.59750  Biso   1.000  Ni
  Ni107    1.0000 0.70905  0.70905  0.09350  Biso   1.000  Ni
  O1350    1.0000 0.68170  0.68170  0.10610  Biso   1.000  O
  Ni108    1.0000 0.69512  0.69512  0.09750  Biso   1.000  Ni
  Ni109    1.0000 0.20905  0.54095  0.65650  Biso   1.000  Ni
  O1351    1.0000 0.18170  0.56830  0.64390  Biso   1.000  O
  Ni110    1.0000 0.19512  0.55488  0.65250  Biso   1.000  Ni
  Ni111    1.0000 0.20905  0.04095  0.15650  Biso   1.000  Ni
  O1352    1.0000 0.18170  0.06830  0.14390  Biso   1.000  O
  Ni112    1.0000 0.19512  0.05488  0.15250  Biso   1.000  Ni
  Ni113    1.0000 0.54095  0.70905  0.15650  Biso   1.000  Ni
  O1353    1.0000 0.56830  0.68170  0.14390  Biso   1.000  O
  Ni114    1.0000 0.55488  0.69512  0.15250  Biso   1.000  Ni
  Ni115    1.0000 0.04095  0.70905  0.65650  Biso   1.000  Ni
  O1354    1.0000 0.06830  0.68170  0.64390  Biso   1.000  O
  Ni116    1.0000 0.05488  0.69512  0.65250  Biso   1.000  Ni
  Ni117    1.0000 0.09350  0.04095  0.04095  Biso   1.000  Ni
  O1355    1.0000 0.10610  0.06830  0.06830  Biso   1.000  O
  Ni118    1.0000 0.09750  0.05488  0.05488  Biso   1.000  Ni
  Ni119    1.0000 0.09350  0.54095  0.54095  Biso   1.000  Ni
  O1356    1.0000 0.10610  0.56830  0.56830  Biso   1.000  O
  Ni120    1.0000 0.09750  0.55488  0.55488  Biso   1.000  Ni
  Ni121    1.0000 0.59350  0.04095  0.54095  Biso   1.000  Ni
  O1357    1.0000 0.60610  0.06830  0.56830  Biso   1.000  O
  Ni122    1.0000 0.59750  0.05488  0.55488  Biso   1.000  Ni
  Ni123    1.0000 0.59350  0.54095  0.04095  Biso   1.000  Ni
  O1358    1.0000 0.60610  0.56830  0.06830  Biso   1.000  O
  Ni124    1.0000 0.59750  0.55488  0.05488  Biso   1.000  Ni
  Ni125    1.0000 0.59350  0.70905  0.20905  Biso   1.000  Ni
  O1359    1.0000 0.60610  0.68170  0.18170  Biso   1.000  O
  Ni126    1.0000 0.59750  0.69512  0.19512  Biso   1.000  Ni
  Ni127    1.0000 0.09350  0.70905  0.70905  Biso   1.000  Ni
  O1360    1.0000 0.10610  0.68170  0.68170  Biso   1.000  O
  Ni128    1.0000 0.09750  0.69512  0.69512  Biso   1.000  Ni
  Ni129    1.0000 0.65650  0.20905  0.54095  Biso   1.000  Ni
  O1361    1.0000 0.64390  0.18170  0.56830  Biso   1.000  O
  Ni130    1.0000 0.65250  0.19512  0.55488  Biso   1.000  Ni
  Ni131    1.0000 0.65650  0.70905  0.04095  Biso   1.000  Ni
  O1362    1.0000 0.64390  0.68170  0.06830  Biso   1.000  O
  Ni132    1.0000 0.65250  0.69512  0.05488  Biso   1.000  Ni
  Ni133    1.0000 0.15650  0.54095  0.70905  Biso   1.000  Ni
  O1363    1.0000 0.14390  0.56830  0.68170  Biso   1.000  O
  Ni134    1.0000 0.15250  0.55488  0.69512  Biso   1.000  Ni
  Ni135    1.0000 0.15650  0.04095  0.20905  Biso   1.000  Ni
  O1364    1.0000 0.14390  0.06830  0.18170  Biso   1.000  O
  Ni136    1.0000 0.15250  0.05488  0.19512  Biso   1.000  Ni
  Ni137    1.0000 0.04095  0.09350  0.04095  Biso   1.000  Ni
  O1365    1.0000 0.06830  0.10610  0.06830  Biso   1.000  O
  Ni138    1.0000 0.05488  0.09750  0.05488  Biso   1.000  Ni
  Ni139    1.0000 0.04095  0.59350  0.54095  Biso   1.000  Ni
  O1366    1.0000 0.06830  0.60610  0.56830  Biso   1.000  O
  Ni140    1.0000 0.05488  0.59750  0.55488  Biso   1.000  Ni
  Ni141    1.0000 0.54095  0.09350  0.54095  Biso   1.000  Ni
  O1367    1.0000 0.56830  0.10610  0.56830  Biso   1.000  O
  Ni142    1.0000 0.55488  0.09750  0.55488  Biso   1.000  Ni
  Ni143    1.0000 0.54095  0.59350  0.04095  Biso   1.000  Ni
  O1368    1.0000 0.56830  0.60610  0.06830  Biso   1.000  O
  Ni144    1.0000 0.55488  0.59750  0.05488  Biso   1.000  Ni
  Ni145    1.0000 0.20905  0.59350  0.70905  Biso   1.000  Ni
  O1369    1.0000 0.18170  0.60610  0.68170  Biso   1.000  O
  Ni146    1.0000 0.19512  0.59750  0.69512  Biso   1.000  Ni
  Ni147    1.0000 0.20905  0.09350  0.20905  Biso   1.000  Ni
  O1370    1.0000 0.18170  0.10610  0.18170  Biso   1.000  O
  Ni148    1.0000 0.19512  0.09750  0.19512  Biso   1.000  Ni
  Ni149    1.0000 0.54095  0.65650  0.20905  Biso   1.000  Ni
  O1371    1.0000 0.56830  0.64390  0.18170  Biso   1.000  O
  Ni150    1.0000 0.55488  0.65250  0.19512  Biso   1.000  Ni
  Ni151    1.0000 0.04095  0.65650  0.70905  Biso   1.000  Ni
  O1372    1.0000 0.06830  0.64390  0.68170  Biso   1.000  O
  Ni152    1.0000 0.05488  0.65250  0.69512  Biso   1.000  Ni
  Ni153    1.0000 0.70905  0.15650  0.54095  Biso   1.000  Ni
  O1373    1.0000 0.68170  0.14390  0.56830  Biso   1.000  O
  Ni154    1.0000 0.69512  0.15250  0.55488  Biso   1.000  Ni
  Ni155    1.0000 0.70905  0.65650  0.04095  Biso   1.000  Ni
  O1374    1.0000 0.68170  0.64390  0.06830  Biso   1.000  O
  Ni156    1.0000 0.69512  0.65250  0.05488  Biso   1.000  Ni
  Ni157    1.0000 0.79095  0.29095  0.40650  Biso   1.000  Ni
  O1375    1.0000 0.81830  0.31830  0.39390  Biso   1.000  O
  Ni158    1.0000 0.80488  0.30488  0.40250  Biso   1.000  Ni
  Ni159    1.0000 0.79095  0.79095  0.90650  Biso   1.000  Ni
  O1376    1.0000 0.81830  0.81830  0.89390  Biso   1.000  O
  Ni160    1.0000 0.80488  0.80488  0.90250  Biso   1.000  Ni
  Ni161    1.0000 0.95905  0.95905  0.90650  Biso   1.000  Ni
  O1377    1.0000 0.93170  0.93170  0.89390  Biso   1.000  O
  Ni162    1.0000 0.94512  0.94512  0.90250  Biso   1.000  Ni
  Ni163    1.0000 0.95905  0.45905  0.40650  Biso   1.000  Ni
  O1378    1.0000 0.93170  0.43170  0.39390  Biso   1.000  O
  Ni164    1.0000 0.94512  0.44512  0.40250  Biso   1.000  Ni
  Ni165    1.0000 0.45905  0.95905  0.40650  Biso   1.000  Ni
  O1379    1.0000 0.43170  0.93170  0.39390  Biso   1.000  O
  Ni166    1.0000 0.44512  0.94512  0.40250  Biso   1.000  Ni
  Ni167    1.0000 0.45905  0.45905  0.90650  Biso   1.000  Ni
  O1380    1.0000 0.43170  0.43170  0.89390  Biso   1.000  O
  Ni168    1.0000 0.44512  0.44512  0.90250  Biso   1.000  Ni
  Ni169    1.0000 0.29095  0.45905  0.84350  Biso   1.000  Ni
  O1381    1.0000 0.31830  0.43170  0.85610  Biso   1.000  O
  Ni170    1.0000 0.30488  0.44512  0.84750  Biso   1.000  Ni
  Ni171    1.0000 0.29095  0.95905  0.34350  Biso   1.000  Ni
  O1382    1.0000 0.31830  0.93170  0.35610  Biso   1.000  O
  Ni172    1.0000 0.30488  0.94512  0.34750  Biso   1.000  Ni
  Ni173    1.0000 0.45905  0.79095  0.34350  Biso   1.000  Ni
  O1383    1.0000 0.43170  0.81830  0.35610  Biso   1.000  O
  Ni174    1.0000 0.44512  0.80488  0.34750  Biso   1.000  Ni
  Ni175    1.0000 0.95905  0.79095  0.84350  Biso   1.000  Ni
  O1384    1.0000 0.93170  0.81830  0.85610  Biso   1.000  O
  Ni176    1.0000 0.94512  0.80488  0.84750  Biso   1.000  Ni
  Ni177    1.0000 0.79095  0.34350  0.45905  Biso   1.000  Ni
  O1385    1.0000 0.81830  0.35610  0.43170  Biso   1.000  O
  Ni178    1.0000 0.80488  0.34750  0.44512  Biso   1.000  Ni
  Ni179    1.0000 0.79095  0.84350  0.95905  Biso   1.000  Ni
  O1386    1.0000 0.81830  0.85610  0.93170  Biso   1.000  O
  Ni180    1.0000 0.80488  0.84750  0.94512  Biso   1.000  Ni
  Ni181    1.0000 0.45905  0.84350  0.29095  Biso   1.000  Ni
  O1387    1.0000 0.43170  0.85610  0.31830  Biso   1.000  O
  Ni182    1.0000 0.44512  0.84750  0.30488  Biso   1.000  Ni
  Ni183    1.0000 0.95905  0.84350  0.79095  Biso   1.000  Ni
  O1388    1.0000 0.93170  0.85610  0.81830  Biso   1.000  O
  Ni184    1.0000 0.94512  0.84750  0.80488  Biso   1.000  Ni
  Ni185    1.0000 0.95905  0.90650  0.95905  Biso   1.000  Ni
  O1389    1.0000 0.93170  0.89390  0.93170  Biso   1.000  O
  Ni186    1.0000 0.94512  0.90250  0.94512  Biso   1.000  Ni
  Ni187    1.0000 0.95905  0.40650  0.45905  Biso   1.000  Ni
  O1390    1.0000 0.93170  0.39390  0.43170  Biso   1.000  O
  Ni188    1.0000 0.94512  0.40250  0.44512  Biso   1.000  Ni
  Ni189    1.0000 0.45905  0.90650  0.45905  Biso   1.000  Ni
  O1391    1.0000 0.43170  0.89390  0.43170  Biso   1.000  O
  Ni190    1.0000 0.44512  0.90250  0.44512  Biso   1.000  Ni
  Ni191    1.0000 0.45905  0.40650  0.95905  Biso   1.000  Ni
  O1392    1.0000 0.43170  0.39390  0.93170  Biso   1.000  O
  Ni192    1.0000 0.44512  0.40250  0.94512  Biso   1.000  Ni
  Ni193    1.0000 0.29095  0.40650  0.79095  Biso   1.000  Ni
  O1393    1.0000 0.31830  0.39390  0.81830  Biso   1.000  O
  Ni194    1.0000 0.30488  0.40250  0.80488  Biso   1.000  Ni
  Ni195    1.0000 0.29095  0.90650  0.29095  Biso   1.000  Ni
  O1394    1.0000 0.31830  0.89390  0.31830  Biso   1.000  O
  Ni196    1.0000 0.30488  0.90250  0.30488  Biso   1.000  Ni
  Ni197    1.0000 0.84350  0.29095  0.45905  Biso   1.000  Ni
  O1395    1.0000 0.85610  0.31830  0.43170  Biso   1.000  O
  Ni198    1.0000 0.84750  0.30488  0.44512  Biso   1.000  Ni
  Ni199    1.0000 0.84350  0.79095  0.95905  Biso   1.000  Ni
  O1396    1.0000 0.85610  0.81830  0.93170  Biso   1.000  O
  Ni200    1.0000 0.84750  0.80488  0.94512  Biso   1.000  Ni
  Ni201    1.0000 0.34350  0.45905  0.79095  Biso   1.000  Ni
  O1397    1.0000 0.35610  0.43170  0.81830  Biso   1.000  O
  Ni202    1.0000 0.34750  0.44512  0.80488  Biso   1.000  Ni
  Ni203    1.0000 0.34350  0.95905  0.29095  Biso   1.000  Ni
  O1398    1.0000 0.35610  0.93170  0.31830  Biso   1.000  O
  Ni204    1.0000 0.34750  0.94512  0.30488  Biso   1.000  Ni
  Ni205    1.0000 0.40650  0.79095  0.29095  Biso   1.000  Ni
  O1399    1.0000 0.39390  0.81830  0.31830  Biso   1.000  O
  Ni206    1.0000 0.40250  0.80488  0.30488  Biso   1.000  Ni
  Ni207    1.0000 0.90650  0.79095  0.79095  Biso   1.000  Ni
  O1400    1.0000 0.89390  0.81830  0.81830  Biso   1.000  O
  Ni208    1.0000 0.90250  0.80488  0.80488  Biso   1.000  Ni
  Ni209    1.0000 0.90650  0.95905  0.95905  Biso   1.000  Ni
  O1401    1.0000 0.89390  0.93170  0.93170  Biso   1.000  O
  Ni210    1.0000 0.90250  0.94512  0.94512  Biso   1.000  Ni
  Ni211    1.0000 0.90650  0.45905  0.45905  Biso   1.000  Ni
  O1402    1.0000 0.89390  0.43170  0.43170  Biso   1.000  O
  Ni212    1.0000 0.90250  0.44512  0.44512  Biso   1.000  Ni
  Ni213    1.0000 0.40650  0.95905  0.45905  Biso   1.000  Ni
  O1403    1.0000 0.39390  0.93170  0.43170  Biso   1.000  O
  Ni214    1.0000 0.40250  0.94512  0.44512  Biso   1.000  Ni
  Ni215    1.0000 0.40650  0.45905  0.95905  Biso   1.000  Ni
  O1404    1.0000 0.39390  0.43170  0.93170  Biso   1.000  O
  Ni216    1.0000 0.40250  0.44512  0.94512  Biso   1.000  Ni
  Ni217    1.0000 0.29095  0.79095  0.40650  Biso   1.000  Ni
  O1405    1.0000 0.31830  0.81830  0.39390  Biso   1.000  O
  Ni218    1.0000 0.30488  0.80488  0.40250  Biso   1.000  Ni
  Ni219    1.0000 0.29095  0.29095  0.90650  Biso   1.000  Ni
  O1406    1.0000 0.31830  0.31830  0.89390  Biso   1.000  O
  Ni220    1.0000 0.30488  0.30488  0.90250  Biso   1.000  Ni
  Ni221    1.0000 0.79095  0.45905  0.34350  Biso   1.000  Ni
  O1407    1.0000 0.81830  0.43170  0.35610  Biso   1.000  O
  Ni222    1.0000 0.80488  0.44512  0.34750  Biso   1.000  Ni
  Ni223    1.0000 0.79095  0.95905  0.84350  Biso   1.000  Ni
  O1408    1.0000 0.81830  0.93170  0.85610  Biso   1.000  O
  Ni224    1.0000 0.80488  0.94512  0.84750  Biso   1.000  Ni
  Ni225    1.0000 0.45905  0.29095  0.84350  Biso   1.000  Ni
  O1409    1.0000 0.43170  0.31830  0.85610  Biso   1.000  O
  Ni226    1.0000 0.44512  0.30488  0.84750  Biso   1.000  Ni
  Ni227    1.0000 0.95905  0.29095  0.34350  Biso   1.000  Ni
  O1410    1.0000 0.93170  0.31830  0.35610  Biso   1.000  O
  Ni228    1.0000 0.94512  0.30488  0.34750  Biso   1.000  Ni
  Ni229    1.0000 0.40650  0.29095  0.79095  Biso   1.000  Ni
  O1411    1.0000 0.39390  0.31830  0.81830  Biso   1.000  O
  Ni230    1.0000 0.40250  0.30488  0.80488  Biso   1.000  Ni
  Ni231    1.0000 0.90650  0.29095  0.29095  Biso   1.000  Ni
  O1412    1.0000 0.89390  0.31830  0.31830  Biso   1.000  O
  Ni232    1.0000 0.90250  0.30488  0.30488  Biso   1.000  Ni
  Ni233    1.0000 0.34350  0.79095  0.45905  Biso   1.000  Ni
  O1413    1.0000 0.35610  0.81830  0.43170  Biso   1.000  O
  Ni234    1.0000 0.34750  0.80488  0.44512  Biso   1.000  Ni
  Ni235    1.0000 0.34350  0.29095  0.95905  Biso   1.000  Ni
  O1414    1.0000 0.35610  0.31830  0.93170  Biso   1.000  O
  Ni236    1.0000 0.34750  0.30488  0.94512  Biso   1.000  Ni
  Ni237    1.0000 0.84350  0.45905  0.29095  Biso   1.000  Ni
  O1415    1.0000 0.85610  0.43170  0.31830  Biso   1.000  O
  Ni238    1.0000 0.84750  0.44512  0.30488  Biso   1.000  Ni
  Ni239    1.0000 0.84350  0.95905  0.79095  Biso   1.000  Ni
  O1416    1.0000 0.85610  0.93170  0.81830  Biso   1.000  O
  Ni240    1.0000 0.84750  0.94512  0.80488  Biso   1.000  Ni
  Ni241    1.0000 0.79095  0.40650  0.29095  Biso   1.000  Ni
  O1417    1.0000 0.81830  0.39390  0.31830  Biso   1.000  O
  Ni242    1.0000 0.80488  0.40250  0.30488  Biso   1.000  Ni
  Ni243    1.0000 0.79095  0.90650  0.79095  Biso   1.000  Ni
  O1418    1.0000 0.81830  0.89390  0.81830  Biso   1.000  O
  Ni244    1.0000 0.80488  0.90250  0.80488  Biso   1.000  Ni
  Ni245    1.0000 0.45905  0.34350  0.79095  Biso   1.000  Ni
  O1419    1.0000 0.43170  0.35610  0.81830  Biso   1.000  O
  Ni246    1.0000 0.44512  0.34750  0.80488  Biso   1.000  Ni
  Ni247    1.0000 0.95905  0.34350  0.29095  Biso   1.000  Ni
  O1420    1.0000 0.93170  0.35610  0.31830  Biso   1.000  O
  Ni248    1.0000 0.94512  0.34750  0.30488  Biso   1.000  Ni
  Ni249    1.0000 0.29095  0.84350  0.45905  Biso   1.000  Ni
  O1421    1.0000 0.31830  0.85610  0.43170  Biso   1.000  O
  Ni250    1.0000 0.30488  0.84750  0.44512  Biso   1.000  Ni
  Ni251    1.0000 0.29095  0.34350  0.95905  Biso   1.000  Ni
  O1422    1.0000 0.31830  0.35610  0.93170  Biso   1.000  O
  Ni252    1.0000 0.30488  0.34750  0.94512  Biso   1.000  Ni
  Ni253    1.0000 0.20905  0.70905  0.59350  Biso   1.000  Ni
  O1423    1.0000 0.18170  0.68170  0.60610  Biso   1.000  O
  Ni254    1.0000 0.19512  0.69512  0.59750  Biso   1.000  Ni
  Ni255    1.0000 0.20905  0.20905  0.09350  Biso   1.000  Ni
  O1424    1.0000 0.18170  0.18170  0.10610  Biso   1.000  O
  Ni256    1.0000 0.19512  0.19512  0.09750  Biso   1.000  Ni
  Ni257    1.0000 0.70905  0.54095  0.15650  Biso   1.000  Ni
  O1425    1.0000 0.68170  0.56830  0.14390  Biso   1.000  O
  Ni258    1.0000 0.69512  0.55488  0.15250  Biso   1.000  Ni
  Ni259    1.0000 0.70905  0.04095  0.65650  Biso   1.000  Ni
  O1426    1.0000 0.68170  0.06830  0.64390  Biso   1.000  O
  Ni260    1.0000 0.69512  0.05488  0.65250  Biso   1.000  Ni
  Ni261    1.0000 0.54095  0.20905  0.65650  Biso   1.000  Ni
  O1427    1.0000 0.56830  0.18170  0.64390  Biso   1.000  O
  Ni262    1.0000 0.55488  0.19512  0.65250  Biso   1.000  Ni
  Ni263    1.0000 0.04095  0.20905  0.15650  Biso   1.000  Ni
  O1428    1.0000 0.06830  0.18170  0.14390  Biso   1.000  O
  Ni264    1.0000 0.05488  0.19512  0.15250  Biso   1.000  Ni
  Ni265    1.0000 0.20905  0.65650  0.54095  Biso   1.000  Ni
  O1429    1.0000 0.18170  0.64390  0.56830  Biso   1.000  O
  Ni266    1.0000 0.19512  0.65250  0.55488  Biso   1.000  Ni
  Ni267    1.0000 0.20905  0.15650  0.04095  Biso   1.000  Ni
  O1430    1.0000 0.18170  0.14390  0.06830  Biso   1.000  O
  Ni268    1.0000 0.19512  0.15250  0.05488  Biso   1.000  Ni
  Ni269    1.0000 0.54095  0.15650  0.70905  Biso   1.000  Ni
  O1431    1.0000 0.56830  0.14390  0.68170  Biso   1.000  O
  Ni270    1.0000 0.55488  0.15250  0.69512  Biso   1.000  Ni
  Ni271    1.0000 0.04095  0.15650  0.20905  Biso   1.000  Ni
  O1432    1.0000 0.06830  0.14390  0.18170  Biso   1.000  O
  Ni272    1.0000 0.05488  0.15250  0.19512  Biso   1.000  Ni
  Ni273    1.0000 0.70905  0.59350  0.20905  Biso   1.000  Ni
  O1433    1.0000 0.68170  0.60610  0.18170  Biso   1.000  O
  Ni274    1.0000 0.69512  0.59750  0.19512  Biso   1.000  Ni
  Ni275    1.0000 0.70905  0.09350  0.70905  Biso   1.000  Ni
  O1434    1.0000 0.68170  0.10610  0.68170  Biso   1.000  O
  Ni276    1.0000 0.69512  0.09750  0.69512  Biso   1.000  Ni
  Ni277    1.0000 0.15650  0.70905  0.54095  Biso   1.000  Ni
  O1435    1.0000 0.14390  0.68170  0.56830  Biso   1.000  O
  Ni278    1.0000 0.15250  0.69512  0.55488  Biso   1.000  Ni
  Ni279    1.0000 0.15650  0.20905  0.04095  Biso   1.000  Ni
  O1436    1.0000 0.14390  0.18170  0.06830  Biso   1.000  O
  Ni280    1.0000 0.15250  0.19512  0.05488  Biso   1.000  Ni
  Ni281    1.0000 0.65650  0.54095  0.20905  Biso   1.000  Ni
  O1437    1.0000 0.64390  0.56830  0.18170  Biso   1.000  O
  Ni282    1.0000 0.65250  0.55488  0.19512  Biso   1.000  Ni
  Ni283    1.0000 0.65650  0.04095  0.70905  Biso   1.000  Ni
  O1438    1.0000 0.64390  0.06830  0.68170  Biso   1.000  O
  Ni284    1.0000 0.65250  0.05488  0.69512  Biso   1.000  Ni
  Ni285    1.0000 0.59350  0.20905  0.70905  Biso   1.000  Ni
  O1439    1.0000 0.60610  0.18170  0.68170  Biso   1.000  O
  Ni286    1.0000 0.59750  0.19512  0.69512  Biso   1.000  Ni
  Ni287    1.0000 0.09350  0.20905  0.20905  Biso   1.000  Ni
  O1440    1.0000 0.10610  0.18170  0.18170  Biso   1.000  O
  Ni288    1.0000 0.09750  0.19512  0.19512  Biso   1.000  Ni
  O1441    1.0000 0.69673  0.05327  0.05327  Biso   1.000  O
  O1442    1.0000 0.05327  0.19673  0.55327  Biso   1.000  O
  O1443    1.0000 0.55327  0.55327  0.69673  Biso   1.000  O
  O1444    1.0000 0.19673  0.69673  0.19673  Biso   1.000  O
  O1445    1.0000 0.05327  0.69673  0.05327  Biso   1.000  O
  O1446    1.0000 0.55327  0.05327  0.19673  Biso   1.000  O
  O1447    1.0000 0.69673  0.55327  0.55327  Biso   1.000  O
  O1448    1.0000 0.19673  0.19673  0.69673  Biso   1.000  O
  O1449    1.0000 0.05327  0.05327  0.69673  Biso   1.000  O
  O1450    1.0000 0.19673  0.55327  0.05327  Biso   1.000  O
  O1451    1.0000 0.55327  0.69673  0.55327  Biso   1.000  O
  O1452    1.0000 0.69673  0.19673  0.19673  Biso   1.000  O
  O1453    1.0000 0.69673  0.69673  0.69673  Biso   1.000  O
  O1454    1.0000 0.80327  0.94673  0.44673  Biso   1.000  O
  O1455    1.0000 0.94673  0.30327  0.94673  Biso   1.000  O
  O1456    1.0000 0.30327  0.80327  0.80327  Biso   1.000  O
  O1457    1.0000 0.30327  0.30327  0.30327  Biso   1.000  O
  O1458    1.0000 0.44673  0.44673  0.30327  Biso   1.000  O
  O1459    1.0000 0.44673  0.30327  0.44673  Biso   1.000  O
  O1460    1.0000 0.80327  0.80327  0.30327  Biso   1.000  O
  O1461    1.0000 0.30327  0.94673  0.94673  Biso   1.000  O
  O1462    1.0000 0.94673  0.44673  0.80327  Biso   1.000  O
  O1463    1.0000 0.80327  0.30327  0.80327  Biso   1.000  O
  O1464    1.0000 0.30327  0.44673  0.44673  Biso   1.000  O
  O1465    1.0000 0.44673  0.80327  0.94673  Biso   1.000  O
  O1466    1.0000 0.94673  0.94673  0.30327  Biso   1.000  O
  O1467    1.0000 0.94673  0.80327  0.44673  Biso   1.000  O
  O1468    1.0000 0.44673  0.94673  0.80327  Biso   1.000  O
  O1469    1.0000 0.80327  0.44673  0.94673  Biso   1.000  O
  O1470    1.0000 0.19673  0.05327  0.55327  Biso   1.000  O
  O1471    1.0000 0.05327  0.55327  0.19673  Biso   1.000  O
  O1472    1.0000 0.55327  0.19673  0.05327  Biso   1.000  O
  C1153    1.0000 0.91540  0.07042  0.07042  Biso   1.000  C
  C1154    1.0000 0.97070  0.07500  0.07500  Biso   1.000  C
  C1155    1.0000 0.99900  0.07570  0.07570  Biso   1.000  C
  C1156    1.0000 0.62937  0.06023  0.06023  Biso   1.000  C
  C1157    1.0000 0.60526  0.07101  0.07101  Biso   1.000  C
  C1158    1.0000 0.91540  0.57042  0.57042  Biso   1.000  C
  C1159    1.0000 0.97070  0.57500  0.57500  Biso   1.000  C
  C1160    1.0000 0.99900  0.57570  0.57570  Biso   1.000  C
  C1161    1.0000 0.62937  0.56023  0.56023  Biso   1.000  C
  C1162    1.0000 0.60526  0.57101  0.57101  Biso   1.000  C
  C1163    1.0000 0.41540  0.07042  0.57042  Biso   1.000  C
  C1164    1.0000 0.47070  0.07500  0.57500  Biso   1.000  C
  C1165    1.0000 0.49900  0.07570  0.57570  Biso   1.000  C
  C1166    1.0000 0.12937  0.06023  0.56023  Biso   1.000  C
  C1167    1.0000 0.10526  0.07101  0.57101  Biso   1.000  C
  C1168    1.0000 0.41540  0.57042  0.07042  Biso   1.000  C
  C1169    1.0000 0.47070  0.57500  0.07500  Biso   1.000  C
  C1170    1.0000 0.49900  0.57570  0.07570  Biso   1.000  C
  C1171    1.0000 0.12937  0.56023  0.06023  Biso   1.000  C
  C1172    1.0000 0.10526  0.57101  0.07101  Biso   1.000  C
  C1173    1.0000 0.83460  0.17958  0.57042  Biso   1.000  C
  C1174    1.0000 0.77930  0.17500  0.57500  Biso   1.000  C
  C1175    1.0000 0.75100  0.17430  0.57570  Biso   1.000  C
  C1176    1.0000 0.12063  0.18977  0.56023  Biso   1.000  C
  C1177    1.0000 0.14474  0.17899  0.57101  Biso   1.000  C
  C1178    1.0000 0.83460  0.67958  0.07042  Biso   1.000  C
  C1179    1.0000 0.77930  0.67500  0.07500  Biso   1.000  C
  C1180    1.0000 0.75100  0.67430  0.07570  Biso   1.000  C
  C1181    1.0000 0.12063  0.68977  0.06023  Biso   1.000  C
  C1182    1.0000 0.14474  0.67899  0.07101  Biso   1.000  C
  C1183    1.0000 0.33460  0.57042  0.67958  Biso   1.000  C
  C1184    1.0000 0.27930  0.57500  0.67500  Biso   1.000  C
  C1185    1.0000 0.25100  0.57570  0.67430  Biso   1.000  C
  C1186    1.0000 0.62063  0.56023  0.68977  Biso   1.000  C
  C1187    1.0000 0.64474  0.57101  0.67899  Biso   1.000  C
  C1188    1.0000 0.33460  0.07042  0.17958  Biso   1.000  C
  C1189    1.0000 0.27930  0.07500  0.17500  Biso   1.000  C
  C1190    1.0000 0.25100  0.07570  0.17430  Biso   1.000  C
  C1191    1.0000 0.62063  0.06023  0.18977  Biso   1.000  C
  C1192    1.0000 0.64474  0.07101  0.17899  Biso   1.000  C
  C1193    1.0000 0.41540  0.67958  0.17958  Biso   1.000  C
  C1194    1.0000 0.47070  0.67500  0.17500  Biso   1.000  C
  C1195    1.0000 0.49900  0.67430  0.17430  Biso   1.000  C
  C1196    1.0000 0.12937  0.68977  0.18977  Biso   1.000  C
  C1197    1.0000 0.10526  0.67899  0.17899  Biso   1.000  C
  C1198    1.0000 0.91540  0.67958  0.67958  Biso   1.000  C
  C1199    1.0000 0.97070  0.67500  0.67500  Biso   1.000  C
  C1200    1.0000 0.99900  0.67430  0.67430  Biso   1.000  C
  C1201    1.0000 0.62937  0.68977  0.68977  Biso   1.000  C
  C1202    1.0000 0.60526  0.67899  0.67899  Biso   1.000  C
  C1203    1.0000 0.91540  0.17958  0.17958  Biso   1.000  C
  C1204    1.0000 0.97070  0.17500  0.17500  Biso   1.000  C
  C1205    1.0000 0.99900  0.17430  0.17430  Biso   1.000  C
  C1206    1.0000 0.62937  0.18977  0.18977  Biso   1.000  C
  C1207    1.0000 0.60526  0.17899  0.17899  Biso   1.000  C
  C1208    1.0000 0.07042  0.91540  0.07042  Biso   1.000  C
  C1209    1.0000 0.07500  0.97070  0.07500  Biso   1.000  C
  C1210    1.0000 0.07570  0.99900  0.07570  Biso   1.000  C
  C1211    1.0000 0.06023  0.62937  0.06023  Biso   1.000  C
  C1212    1.0000 0.07101  0.60526  0.07101  Biso   1.000  C
  C1213    1.0000 0.07042  0.41540  0.57042  Biso   1.000  C
  C1214    1.0000 0.07500  0.47070  0.57500  Biso   1.000  C
  C1215    1.0000 0.07570  0.49900  0.57570  Biso   1.000  C
  C1216    1.0000 0.06023  0.12937  0.56023  Biso   1.000  C
  C1217    1.0000 0.07101  0.10526  0.57101  Biso   1.000  C
  C1218    1.0000 0.57042  0.91540  0.57042  Biso   1.000  C
  C1219    1.0000 0.57500  0.97070  0.57500  Biso   1.000  C
  C1220    1.0000 0.57570  0.99900  0.57570  Biso   1.000  C
  C1221    1.0000 0.56023  0.62937  0.56023  Biso   1.000  C
  C1222    1.0000 0.57101  0.60526  0.57101  Biso   1.000  C
  C1223    1.0000 0.57042  0.41540  0.07042  Biso   1.000  C
  C1224    1.0000 0.57500  0.47070  0.07500  Biso   1.000  C
  C1225    1.0000 0.57570  0.49900  0.07570  Biso   1.000  C
  C1226    1.0000 0.56023  0.12937  0.06023  Biso   1.000  C
  C1227    1.0000 0.57101  0.10526  0.07101  Biso   1.000  C
  C1228    1.0000 0.57042  0.83460  0.17958  Biso   1.000  C
  C1229    1.0000 0.57500  0.77930  0.17500  Biso   1.000  C
  C1230    1.0000 0.57570  0.75100  0.17430  Biso   1.000  C
  C1231    1.0000 0.56023  0.12063  0.18977  Biso   1.000  C
  C1232    1.0000 0.57101  0.14474  0.17899  Biso   1.000  C
  C1233    1.0000 0.07042  0.83460  0.67958  Biso   1.000  C
  C1234    1.0000 0.07500  0.77930  0.67500  Biso   1.000  C
  C1235    1.0000 0.07570  0.75100  0.67430  Biso   1.000  C
  C1236    1.0000 0.06023  0.12063  0.68977  Biso   1.000  C
  C1237    1.0000 0.07101  0.14474  0.67899  Biso   1.000  C
  C1238    1.0000 0.67958  0.33460  0.57042  Biso   1.000  C
  C1239    1.0000 0.67500  0.27930  0.57500  Biso   1.000  C
  C1240    1.0000 0.67430  0.25100  0.57570  Biso   1.000  C
  C1241    1.0000 0.68977  0.62063  0.56023  Biso   1.000  C
  C1242    1.0000 0.67899  0.64474  0.57101  Biso   1.000  C
  C1243    1.0000 0.67958  0.83460  0.07042  Biso   1.000  C
  C1244    1.0000 0.67500  0.77930  0.07500  Biso   1.000  C
  C1245    1.0000 0.67430  0.75100  0.07570  Biso   1.000  C
  C1246    1.0000 0.68977  0.12063  0.06023  Biso   1.000  C
  C1247    1.0000 0.67899  0.14474  0.07101  Biso   1.000  C
  C1248    1.0000 0.17958  0.41540  0.67958  Biso   1.000  C
  C1249    1.0000 0.17500  0.47070  0.67500  Biso   1.000  C
  C1250    1.0000 0.17430  0.49900  0.67430  Biso   1.000  C
  C1251    1.0000 0.18977  0.12937  0.68977  Biso   1.000  C
  C1252    1.0000 0.17899  0.10526  0.67899  Biso   1.000  C
  C1253    1.0000 0.17958  0.91540  0.17958  Biso   1.000  C
  C1254    1.0000 0.17500  0.97070  0.17500  Biso   1.000  C
  C1255    1.0000 0.17430  0.99900  0.17430  Biso   1.000  C
  C1256    1.0000 0.18977  0.62937  0.18977  Biso   1.000  C
  C1257    1.0000 0.17899  0.60526  0.17899  Biso   1.000  C
  C1258    1.0000 0.07042  0.07042  0.91540  Biso   1.000  C
  C1259    1.0000 0.07500  0.07500  0.97070  Biso   1.000  C
  C1260    1.0000 0.07570  0.07570  0.99900  Biso   1.000  C
  C1261    1.0000 0.06023  0.06023  0.62937  Biso   1.000  C
  C1262    1.0000 0.07101  0.07101  0.60526  Biso   1.000  C
  C1263    1.0000 0.07042  0.57042  0.41540  Biso   1.000  C
  C1264    1.0000 0.07500  0.57500  0.47070  Biso   1.000  C
  C1265    1.0000 0.07570  0.57570  0.49900  Biso   1.000  C
  C1266    1.0000 0.06023  0.56023  0.12937  Biso   1.000  C
  C1267    1.0000 0.07101  0.57101  0.10526  Biso   1.000  C
  C1268    1.0000 0.57042  0.07042  0.41540  Biso   1.000  C
  C1269    1.0000 0.57500  0.07500  0.47070  Biso   1.000  C
  C1270    1.0000 0.57570  0.07570  0.49900  Biso   1.000  C
  C1271    1.0000 0.56023  0.06023  0.12937  Biso   1.000  C
  C1272    1.0000 0.57101  0.07101  0.10526  Biso   1.000  C
  C1273    1.0000 0.57042  0.57042  0.91540  Biso   1.000  C
  C1274    1.0000 0.57500  0.57500  0.97070  Biso   1.000  C
  C1275    1.0000 0.57570  0.57570  0.99900  Biso   1.000  C
  C1276    1.0000 0.56023  0.56023  0.62937  Biso   1.000  C
  C1277    1.0000 0.57101  0.57101  0.60526  Biso   1.000  C
  C1278    1.0000 0.17958  0.57042  0.83460  Biso   1.000  C
  C1279    1.0000 0.17500  0.57500  0.77930  Biso   1.000  C
  C1280    1.0000 0.17430  0.57570  0.75100  Biso   1.000  C
  C1281    1.0000 0.18977  0.56023  0.12063  Biso   1.000  C
  C1282    1.0000 0.17899  0.57101  0.14474  Biso   1.000  C
  C1283    1.0000 0.17958  0.07042  0.33460  Biso   1.000  C
  C1284    1.0000 0.17500  0.07500  0.27930  Biso   1.000  C
  C1285    1.0000 0.17430  0.07570  0.25100  Biso   1.000  C
  C1286    1.0000 0.18977  0.06023  0.62063  Biso   1.000  C
  C1287    1.0000 0.17899  0.07101  0.64474  Biso   1.000  C
  C1288    1.0000 0.57042  0.67958  0.33460  Biso   1.000  C
  C1289    1.0000 0.57500  0.67500  0.27930  Biso   1.000  C
  C1290    1.0000 0.57570  0.67430  0.25100  Biso   1.000  C
  C1291    1.0000 0.56023  0.68977  0.62063  Biso   1.000  C
  C1292    1.0000 0.57101  0.67899  0.64474  Biso   1.000  C
  C1293    1.0000 0.07042  0.67958  0.83460  Biso   1.000  C
  C1294    1.0000 0.07500  0.67500  0.77930  Biso   1.000  C
  C1295    1.0000 0.07570  0.67430  0.75100  Biso   1.000  C
  C1296    1.0000 0.06023  0.68977  0.12063  Biso   1.000  C
  C1297    1.0000 0.07101  0.67899  0.14474  Biso   1.000  C
  C1298    1.0000 0.67958  0.17958  0.41540  Biso   1.000  C
  C1299    1.0000 0.67500  0.17500  0.47070  Biso   1.000  C
  C1300    1.0000 0.67430  0.17430  0.49900  Biso   1.000  C
  C1301    1.0000 0.68977  0.18977  0.12937  Biso   1.000  C
  C1302    1.0000 0.67899  0.17899  0.10526  Biso   1.000  C
  C1303    1.0000 0.67958  0.67958  0.91540  Biso   1.000  C
  C1304    1.0000 0.67500  0.67500  0.97070  Biso   1.000  C
  C1305    1.0000 0.67430  0.67430  0.99900  Biso   1.000  C
  C1306    1.0000 0.68977  0.68977  0.62937  Biso   1.000  C
  C1307    1.0000 0.67899  0.67899  0.60526  Biso   1.000  C
  C1308    1.0000 0.17958  0.17958  0.91540  Biso   1.000  C
  C1309    1.0000 0.17500  0.17500  0.97070  Biso   1.000  C
  C1310    1.0000 0.17430  0.17430  0.99900  Biso   1.000  C
  C1311    1.0000 0.18977  0.18977  0.62937  Biso   1.000  C
  C1312    1.0000 0.17899  0.17899  0.60526  Biso   1.000  C
  C1313    1.0000 0.82042  0.16540  0.42958  Biso   1.000  C
  C1314    1.0000 0.82500  0.22070  0.42500  Biso   1.000  C
  C1315    1.0000 0.82570  0.24900  0.42430  Biso   1.000  C
  C1316    1.0000 0.81023  0.87937  0.43977  Biso   1.000  C
  C1317    1.0000 0.82101  0.85526  0.42899  Biso   1.000  C
  C1318    1.0000 0.82042  0.66540  0.92958  Biso   1.000  C
  C1319    1.0000 0.82500  0.72070  0.92500  Biso   1.000  C
  C1320    1.0000 0.82570  0.74900  0.92430  Biso   1.000  C
  C1321    1.0000 0.81023  0.37937  0.93977  Biso   1.000  C
  C1322    1.0000 0.82101  0.35526  0.92899  Biso   1.000  C
  C1323    1.0000 0.92958  0.08460  0.92958  Biso   1.000  C
  C1324    1.0000 0.92500  0.02930  0.92500  Biso   1.000  C
  C1325    1.0000 0.92430  0.00100  0.92430  Biso   1.000  C
  C1326    1.0000 0.93977  0.37063  0.93977  Biso   1.000  C
  C1327    1.0000 0.92899  0.39474  0.92899  Biso   1.000  C
  C1328    1.0000 0.92958  0.58460  0.42958  Biso   1.000  C
  C1329    1.0000 0.92500  0.52930  0.42500  Biso   1.000  C
  C1330    1.0000 0.92430  0.50100  0.42430  Biso   1.000  C
  C1331    1.0000 0.93977  0.87063  0.43977  Biso   1.000  C
  C1332    1.0000 0.92899  0.89474  0.42899  Biso   1.000  C
  C1333    1.0000 0.42958  0.08460  0.42958  Biso   1.000  C
  C1334    1.0000 0.42500  0.02930  0.42500  Biso   1.000  C
  C1335    1.0000 0.42430  0.00100  0.42430  Biso   1.000  C
  C1336    1.0000 0.43977  0.37063  0.43977  Biso   1.000  C
  C1337    1.0000 0.42899  0.39474  0.42899  Biso   1.000  C
  C1338    1.0000 0.42958  0.58460  0.92958  Biso   1.000  C
  C1339    1.0000 0.42500  0.52930  0.92500  Biso   1.000  C
  C1340    1.0000 0.42430  0.50100  0.92430  Biso   1.000  C
  C1341    1.0000 0.43977  0.87063  0.93977  Biso   1.000  C
  C1342    1.0000 0.42899  0.89474  0.92899  Biso   1.000  C
  C1343    1.0000 0.32042  0.58460  0.82042  Biso   1.000  C
  C1344    1.0000 0.32500  0.52930  0.82500  Biso   1.000  C
  C1345    1.0000 0.32570  0.50100  0.82570  Biso   1.000  C
  C1346    1.0000 0.31023  0.87063  0.81023  Biso   1.000  C
  C1347    1.0000 0.32101  0.89474  0.82101  Biso   1.000  C
  C1348    1.0000 0.32042  0.08460  0.32042  Biso   1.000  C
  C1349    1.0000 0.32500  0.02930  0.32500  Biso   1.000  C
  C1350    1.0000 0.32570  0.00100  0.32570  Biso   1.000  C
  C1351    1.0000 0.31023  0.37063  0.31023  Biso   1.000  C
  C1352    1.0000 0.32101  0.39474  0.32101  Biso   1.000  C
  C1353    1.0000 0.42958  0.66540  0.32042  Biso   1.000  C
  C1354    1.0000 0.42500  0.72070  0.32500  Biso   1.000  C
  C1355    1.0000 0.42430  0.74900  0.32570  Biso   1.000  C
  C1356    1.0000 0.43977  0.37937  0.31023  Biso   1.000  C
  C1357    1.0000 0.42899  0.35526  0.32101  Biso   1.000  C
  C1358    1.0000 0.92958  0.66540  0.82042  Biso   1.000  C
  C1359    1.0000 0.92500  0.72070  0.82500  Biso   1.000  C
  C1360    1.0000 0.92430  0.74900  0.82570  Biso   1.000  C
  C1361    1.0000 0.93977  0.37937  0.81023  Biso   1.000  C
  C1362    1.0000 0.92899  0.35526  0.82101  Biso   1.000  C
  C1363    1.0000 0.66540  0.32042  0.42958  Biso   1.000  C
  C1364    1.0000 0.72070  0.32500  0.42500  Biso   1.000  C
  C1365    1.0000 0.74900  0.32570  0.42430  Biso   1.000  C
  C1366    1.0000 0.37937  0.31023  0.43977  Biso   1.000  C
  C1367    1.0000 0.35526  0.32101  0.42899  Biso   1.000  C
  C1368    1.0000 0.66540  0.82042  0.92958  Biso   1.000  C
  C1369    1.0000 0.72070  0.82500  0.92500  Biso   1.000  C
  C1370    1.0000 0.74900  0.82570  0.92430  Biso   1.000  C
  C1371    1.0000 0.37937  0.81023  0.93977  Biso   1.000  C
  C1372    1.0000 0.35526  0.82101  0.92899  Biso   1.000  C
  C1373    1.0000 0.58460  0.82042  0.32042  Biso   1.000  C
  C1374    1.0000 0.52930  0.82500  0.32500  Biso   1.000  C
  C1375    1.0000 0.50100  0.82570  0.32570  Biso   1.000  C
  C1376    1.0000 0.87063  0.81023  0.31023  Biso   1.000  C
  C1377    1.0000 0.89474  0.82101  0.32101  Biso   1.000  C
  C1378    1.0000 0.08460  0.82042  0.82042  Biso   1.000  C
  C1379    1.0000 0.02930  0.82500  0.82500  Biso   1.000  C
  C1380    1.0000 0.00100  0.82570  0.82570  Biso   1.000  C
  C1381    1.0000 0.37063  0.81023  0.81023  Biso   1.000  C
  C1382    1.0000 0.39474  0.82101  0.82101  Biso   1.000  C
  C1383    1.0000 0.08460  0.32042  0.32042  Biso   1.000  C
  C1384    1.0000 0.02930  0.32500  0.32500  Biso   1.000  C
  C1385    1.0000 0.00100  0.32570  0.32570  Biso   1.000  C
  C1386    1.0000 0.37063  0.31023  0.31023  Biso   1.000  C
  C1387    1.0000 0.39474  0.32101  0.32101  Biso   1.000  C
  C1388    1.0000 0.08460  0.92958  0.92958  Biso   1.000  C
  C1389    1.0000 0.02930  0.92500  0.92500  Biso   1.000  C
  C1390    1.0000 0.00100  0.92430  0.92430  Biso   1.000  C
  C1391    1.0000 0.37063  0.93977  0.93977  Biso   1.000  C
  C1392    1.0000 0.39474  0.92899  0.92899  Biso   1.000  C
  C1393    1.0000 0.08460  0.42958  0.42958  Biso   1.000  C
  C1394    1.0000 0.02930  0.42500  0.42500  Biso   1.000  C
  C1395    1.0000 0.00100  0.42430  0.42430  Biso   1.000  C
  C1396    1.0000 0.37063  0.43977  0.43977  Biso   1.000  C
  C1397    1.0000 0.39474  0.42899  0.42899  Biso   1.000  C
  C1398    1.0000 0.58460  0.92958  0.42958  Biso   1.000  C
  C1399    1.0000 0.52930  0.92500  0.42500  Biso   1.000  C
  C1400    1.0000 0.50100  0.92430  0.42430  Biso   1.000  C
  C1401    1.0000 0.87063  0.93977  0.43977  Biso   1.000  C
  C1402    1.0000 0.89474  0.92899  0.42899  Biso   1.000  C
  C1403    1.0000 0.58460  0.42958  0.92958  Biso   1.000  C
  C1404    1.0000 0.52930  0.42500  0.92500  Biso   1.000  C
  C1405    1.0000 0.50100  0.42430  0.92430  Biso   1.000  C
  C1406    1.0000 0.87063  0.43977  0.93977  Biso   1.000  C
  C1407    1.0000 0.89474  0.42899  0.92899  Biso   1.000  C
  C1408    1.0000 0.16540  0.42958  0.82042  Biso   1.000  C
  C1409    1.0000 0.22070  0.42500  0.82500  Biso   1.000  C
  C1410    1.0000 0.24900  0.42430  0.82570  Biso   1.000  C
  C1411    1.0000 0.87937  0.43977  0.81023  Biso   1.000  C
  C1412    1.0000 0.85526  0.42899  0.82101  Biso   1.000  C
  C1413    1.0000 0.16540  0.92958  0.32042  Biso   1.000  C
  C1414    1.0000 0.22070  0.92500  0.32500  Biso   1.000  C
  C1415    1.0000 0.24900  0.92430  0.32570  Biso   1.000  C
  C1416    1.0000 0.87937  0.93977  0.31023  Biso   1.000  C
  C1417    1.0000 0.85526  0.92899  0.32101  Biso   1.000  C
  C1418    1.0000 0.82042  0.32042  0.58460  Biso   1.000  C
  C1419    1.0000 0.82500  0.32500  0.52930  Biso   1.000  C
  C1420    1.0000 0.82570  0.32570  0.50100  Biso   1.000  C
  C1421    1.0000 0.81023  0.31023  0.87063  Biso   1.000  C
  C1422    1.0000 0.82101  0.32101  0.89474  Biso   1.000  C
  C1423    1.0000 0.82042  0.82042  0.08460  Biso   1.000  C
  C1424    1.0000 0.82500  0.82500  0.02930  Biso   1.000  C
  C1425    1.0000 0.82570  0.82570  0.00100  Biso   1.000  C
  C1426    1.0000 0.81023  0.81023  0.37063  Biso   1.000  C
  C1427    1.0000 0.82101  0.82101  0.39474  Biso   1.000  C
  C1428    1.0000 0.32042  0.32042  0.08460  Biso   1.000  C
  C1429    1.0000 0.32500  0.32500  0.02930  Biso   1.000  C
  C1430    1.0000 0.32570  0.32570  0.00100  Biso   1.000  C
  C1431    1.0000 0.31023  0.31023  0.37063  Biso   1.000  C
  C1432    1.0000 0.32101  0.32101  0.39474  Biso   1.000  C
  C1433    1.0000 0.32042  0.42958  0.66540  Biso   1.000  C
  C1434    1.0000 0.32500  0.42500  0.72070  Biso   1.000  C
  C1435    1.0000 0.32570  0.42430  0.74900  Biso   1.000  C
  C1436    1.0000 0.31023  0.43977  0.37937  Biso   1.000  C
  C1437    1.0000 0.32101  0.42899  0.35526  Biso   1.000  C
  C1438    1.0000 0.32042  0.92958  0.16540  Biso   1.000  C
  C1439    1.0000 0.32500  0.92500  0.22070  Biso   1.000  C
  C1440    1.0000 0.32570  0.92430  0.24900  Biso   1.000  C
  C1441    1.0000 0.31023  0.93977  0.87937  Biso   1.000  C
  C1442    1.0000 0.32101  0.92899  0.85526  Biso   1.000  C
  C1443    1.0000 0.42958  0.82042  0.16540  Biso   1.000  C
  C1444    1.0000 0.42500  0.82500  0.22070  Biso   1.000  C
  C1445    1.0000 0.42430  0.82570  0.24900  Biso   1.000  C
  C1446    1.0000 0.43977  0.81023  0.87937  Biso   1.000  C
  C1447    1.0000 0.42899  0.82101  0.85526  Biso   1.000  C
  C1448    1.0000 0.92958  0.82042  0.66540  Biso   1.000  C
  C1449    1.0000 0.92500  0.82500  0.72070  Biso   1.000  C
  C1450    1.0000 0.92430  0.82570  0.74900  Biso   1.000  C
  C1451    1.0000 0.93977  0.81023  0.37937  Biso   1.000  C
  C1452    1.0000 0.92899  0.82101  0.35526  Biso   1.000  C
  C1453    1.0000 0.92958  0.92958  0.08460  Biso   1.000  C
  C1454    1.0000 0.92500  0.92500  0.02930  Biso   1.000  C
  C1455    1.0000 0.92430  0.92430  0.00100  Biso   1.000  C
  C1456    1.0000 0.93977  0.93977  0.37063  Biso   1.000  C
  C1457    1.0000 0.92899  0.92899  0.39474  Biso   1.000  C
  C1458    1.0000 0.92958  0.42958  0.58460  Biso   1.000  C
  C1459    1.0000 0.92500  0.42500  0.52930  Biso   1.000  C
  C1460    1.0000 0.92430  0.42430  0.50100  Biso   1.000  C
  C1461    1.0000 0.93977  0.43977  0.87063  Biso   1.000  C
  C1462    1.0000 0.92899  0.42899  0.89474  Biso   1.000  C
  C1463    1.0000 0.42958  0.92958  0.58460  Biso   1.000  C
  C1464    1.0000 0.42500  0.92500  0.52930  Biso   1.000  C
  C1465    1.0000 0.42430  0.92430  0.50100  Biso   1.000  C
  C1466    1.0000 0.43977  0.93977  0.87063  Biso   1.000  C
  C1467    1.0000 0.42899  0.92899  0.89474  Biso   1.000  C
  C1468    1.0000 0.42958  0.42958  0.08460  Biso   1.000  C
  C1469    1.0000 0.42500  0.42500  0.02930  Biso   1.000  C
  C1470    1.0000 0.42430  0.42430  0.00100  Biso   1.000  C
  C1471    1.0000 0.43977  0.43977  0.37063  Biso   1.000  C
  C1472    1.0000 0.42899  0.42899  0.39474  Biso   1.000  C
  C1473    1.0000 0.16540  0.82042  0.42958  Biso   1.000  C
  C1474    1.0000 0.22070  0.82500  0.42500  Biso   1.000  C
  C1475    1.0000 0.24900  0.82570  0.42430  Biso   1.000  C
  C1476    1.0000 0.87937  0.81023  0.43977  Biso   1.000  C
  C1477    1.0000 0.85526  0.82101  0.42899  Biso   1.000  C
  C1478    1.0000 0.16540  0.32042  0.92958  Biso   1.000  C
  C1479    1.0000 0.22070  0.32500  0.92500  Biso   1.000  C
  C1480    1.0000 0.24900  0.32570  0.92430  Biso   1.000  C
  C1481    1.0000 0.87937  0.31023  0.93977  Biso   1.000  C
  C1482    1.0000 0.85526  0.32101  0.92899  Biso   1.000  C
  C1483    1.0000 0.66540  0.42958  0.32042  Biso   1.000  C
  C1484    1.0000 0.72070  0.42500  0.32500  Biso   1.000  C
  C1485    1.0000 0.74900  0.42430  0.32570  Biso   1.000  C
  C1486    1.0000 0.37937  0.43977  0.31023  Biso   1.000  C
  C1487    1.0000 0.35526  0.42899  0.32101  Biso   1.000  C
  C1488    1.0000 0.66540  0.92958  0.82042  Biso   1.000  C
  C1489    1.0000 0.72070  0.92500  0.82500  Biso   1.000  C
  C1490    1.0000 0.74900  0.92430  0.82570  Biso   1.000  C
  C1491    1.0000 0.37937  0.93977  0.81023  Biso   1.000  C
  C1492    1.0000 0.35526  0.92899  0.82101  Biso   1.000  C
  C1493    1.0000 0.58460  0.32042  0.82042  Biso   1.000  C
  C1494    1.0000 0.52930  0.32500  0.82500  Biso   1.000  C
  C1495    1.0000 0.50100  0.32570  0.82570  Biso   1.000  C
  C1496    1.0000 0.87063  0.31023  0.81023  Biso   1.000  C
  C1497    1.0000 0.89474  0.32101  0.82101  Biso   1.000  C
  C1498    1.0000 0.42958  0.16540  0.82042  Biso   1.000  C
  C1499    1.0000 0.42500  0.22070  0.82500  Biso   1.000  C
  C1500    1.0000 0.42430  0.24900  0.82570  Biso   1.000  C
  C1501    1.0000 0.43977  0.87937  0.81023  Biso   1.000  C
  C1502    1.0000 0.42899  0.85526  0.82101  Biso   1.000  C
  C1503    1.0000 0.92958  0.16540  0.32042  Biso   1.000  C
  C1504    1.0000 0.92500  0.22070  0.32500  Biso   1.000  C
  C1505    1.0000 0.92430  0.24900  0.32570  Biso   1.000  C
  C1506    1.0000 0.93977  0.87937  0.31023  Biso   1.000  C
  C1507    1.0000 0.92899  0.85526  0.32101  Biso   1.000  C
  C1508    1.0000 0.32042  0.66540  0.42958  Biso   1.000  C
  C1509    1.0000 0.32500  0.72070  0.42500  Biso   1.000  C
  C1510    1.0000 0.32570  0.74900  0.42430  Biso   1.000  C
  C1511    1.0000 0.31023  0.37937  0.43977  Biso   1.000  C
  C1512    1.0000 0.32101  0.35526  0.42899  Biso   1.000  C
  C1513    1.0000 0.32042  0.16540  0.92958  Biso   1.000  C
  C1514    1.0000 0.32500  0.22070  0.92500  Biso   1.000  C
  C1515    1.0000 0.32570  0.24900  0.92430  Biso   1.000  C
  C1516    1.0000 0.31023  0.87937  0.93977  Biso   1.000  C
  C1517    1.0000 0.32101  0.85526  0.92899  Biso   1.000  C
  C1518    1.0000 0.82042  0.58460  0.32042  Biso   1.000  C
  C1519    1.0000 0.82500  0.52930  0.32500  Biso   1.000  C
  C1520    1.0000 0.82570  0.50100  0.32570  Biso   1.000  C
  C1521    1.0000 0.81023  0.87063  0.31023  Biso   1.000  C
  C1522    1.0000 0.82101  0.89474  0.32101  Biso   1.000  C
  C1523    1.0000 0.82042  0.08460  0.82042  Biso   1.000  C
  C1524    1.0000 0.82500  0.02930  0.82500  Biso   1.000  C
  C1525    1.0000 0.82570  0.00100  0.82570  Biso   1.000  C
  C1526    1.0000 0.81023  0.37063  0.81023  Biso   1.000  C
  C1527    1.0000 0.82101  0.39474  0.82101  Biso   1.000  C
  C1528    1.0000 0.82042  0.42958  0.16540  Biso   1.000  C
  C1529    1.0000 0.82500  0.42500  0.22070  Biso   1.000  C
  C1530    1.0000 0.82570  0.42430  0.24900  Biso   1.000  C
  C1531    1.0000 0.81023  0.43977  0.87937  Biso   1.000  C
  C1532    1.0000 0.82101  0.42899  0.85526  Biso   1.000  C
  C1533    1.0000 0.82042  0.92958  0.66540  Biso   1.000  C
  C1534    1.0000 0.82500  0.92500  0.72070  Biso   1.000  C
  C1535    1.0000 0.82570  0.92430  0.74900  Biso   1.000  C
  C1536    1.0000 0.81023  0.93977  0.37937  Biso   1.000  C
  C1537    1.0000 0.82101  0.92899  0.35526  Biso   1.000  C
  C1538    1.0000 0.42958  0.32042  0.66540  Biso   1.000  C
  C1539    1.0000 0.42500  0.32500  0.72070  Biso   1.000  C
  C1540    1.0000 0.42430  0.32570  0.74900  Biso   1.000  C
  C1541    1.0000 0.43977  0.31023  0.37937  Biso   1.000  C
  C1542    1.0000 0.42899  0.32101  0.35526  Biso   1.000  C
  C1543    1.0000 0.92958  0.32042  0.16540  Biso   1.000  C
  C1544    1.0000 0.92500  0.32500  0.22070  Biso   1.000  C
  C1545    1.0000 0.92430  0.32570  0.24900  Biso   1.000  C
  C1546    1.0000 0.93977  0.31023  0.87937  Biso   1.000  C
  C1547    1.0000 0.92899  0.32101  0.85526  Biso   1.000  C
  C1548    1.0000 0.32042  0.82042  0.58460  Biso   1.000  C
  C1549    1.0000 0.32500  0.82500  0.52930  Biso   1.000  C
  C1550    1.0000 0.32570  0.82570  0.50100  Biso   1.000  C
  C1551    1.0000 0.31023  0.81023  0.87063  Biso   1.000  C
  C1552    1.0000 0.32101  0.82101  0.89474  Biso   1.000  C
  C1553    1.0000 0.17958  0.83460  0.57042  Biso   1.000  C
  C1554    1.0000 0.17500  0.77930  0.57500  Biso   1.000  C
  C1555    1.0000 0.17430  0.75100  0.57570  Biso   1.000  C
  C1556    1.0000 0.18977  0.12063  0.56023  Biso   1.000  C
  C1557    1.0000 0.17899  0.14474  0.57101  Biso   1.000  C
  C1558    1.0000 0.17958  0.33460  0.07042  Biso   1.000  C
  C1559    1.0000 0.17500  0.27930  0.07500  Biso   1.000  C
  C1560    1.0000 0.17430  0.25100  0.07570  Biso   1.000  C
  C1561    1.0000 0.18977  0.62063  0.06023  Biso   1.000  C
  C1562    1.0000 0.17899  0.64474  0.07101  Biso   1.000  C
  C1563    1.0000 0.67958  0.41540  0.17958  Biso   1.000  C
  C1564    1.0000 0.67500  0.47070  0.17500  Biso   1.000  C
  C1565    1.0000 0.67430  0.49900  0.17430  Biso   1.000  C
  C1566    1.0000 0.68977  0.12937  0.18977  Biso   1.000  C
  C1567    1.0000 0.67899  0.10526  0.17899  Biso   1.000  C
  C1568    1.0000 0.67958  0.91540  0.67958  Biso   1.000  C
  C1569    1.0000 0.67500  0.97070  0.67500  Biso   1.000  C
  C1570    1.0000 0.67430  0.99900  0.67430  Biso   1.000  C
  C1571    1.0000 0.68977  0.62937  0.68977  Biso   1.000  C
  C1572    1.0000 0.67899  0.60526  0.67899  Biso   1.000  C
  C1573    1.0000 0.57042  0.33460  0.67958  Biso   1.000  C
  C1574    1.0000 0.57500  0.27930  0.67500  Biso   1.000  C
  C1575    1.0000 0.57570  0.25100  0.67430  Biso   1.000  C
  C1576    1.0000 0.56023  0.62063  0.68977  Biso   1.000  C
  C1577    1.0000 0.57101  0.64474  0.67899  Biso   1.000  C
  C1578    1.0000 0.07042  0.33460  0.17958  Biso   1.000  C
  C1579    1.0000 0.07500  0.27930  0.17500  Biso   1.000  C
  C1580    1.0000 0.07570  0.25100  0.17430  Biso   1.000  C
  C1581    1.0000 0.06023  0.62063  0.18977  Biso   1.000  C
  C1582    1.0000 0.07101  0.64474  0.17899  Biso   1.000  C
  C1583    1.0000 0.33460  0.67958  0.57042  Biso   1.000  C
  C1584    1.0000 0.27930  0.67500  0.57500  Biso   1.000  C
  C1585    1.0000 0.25100  0.67430  0.57570  Biso   1.000  C
  C1586    1.0000 0.62063  0.68977  0.56023  Biso   1.000  C
  C1587    1.0000 0.64474  0.67899  0.57101  Biso   1.000  C
  C1588    1.0000 0.33460  0.17958  0.07042  Biso   1.000  C
  C1589    1.0000 0.27930  0.17500  0.07500  Biso   1.000  C
  C1590    1.0000 0.25100  0.17430  0.07570  Biso   1.000  C
  C1591    1.0000 0.62063  0.18977  0.06023  Biso   1.000  C
  C1592    1.0000 0.64474  0.17899  0.07101  Biso   1.000  C
  C1593    1.0000 0.41540  0.17958  0.67958  Biso   1.000  C
  C1594    1.0000 0.47070  0.17500  0.67500  Biso   1.000  C
  C1595    1.0000 0.49900  0.17430  0.67430  Biso   1.000  C
  C1596    1.0000 0.12937  0.18977  0.68977  Biso   1.000  C
  C1597    1.0000 0.10526  0.17899  0.67899  Biso   1.000  C
  C1598    1.0000 0.83460  0.57042  0.17958  Biso   1.000  C
  C1599    1.0000 0.77930  0.57500  0.17500  Biso   1.000  C
  C1600    1.0000 0.75100  0.57570  0.17430  Biso   1.000  C
  C1601    1.0000 0.12063  0.56023  0.18977  Biso   1.000  C
  C1602    1.0000 0.14474  0.57101  0.17899  Biso   1.000  C
  C1603    1.0000 0.83460  0.07042  0.67958  Biso   1.000  C
  C1604    1.0000 0.77930  0.07500  0.67500  Biso   1.000  C
  C1605    1.0000 0.75100  0.07570  0.67430  Biso   1.000  C
  C1606    1.0000 0.12063  0.06023  0.68977  Biso   1.000  C
  C1607    1.0000 0.14474  0.07101  0.67899  Biso   1.000  C
  C1608    1.0000 0.17958  0.67958  0.41540  Biso   1.000  C
  C1609    1.0000 0.17500  0.67500  0.47070  Biso   1.000  C
  C1610    1.0000 0.17430  0.67430  0.49900  Biso   1.000  C
  C1611    1.0000 0.18977  0.68977  0.12937  Biso   1.000  C
  C1612    1.0000 0.17899  0.67899  0.10526  Biso   1.000  C
  C1613    1.0000 0.67958  0.57042  0.33460  Biso   1.000  C
  C1614    1.0000 0.67500  0.57500  0.27930  Biso   1.000  C
  C1615    1.0000 0.67430  0.57570  0.25100  Biso   1.000  C
  C1616    1.0000 0.68977  0.56023  0.62063  Biso   1.000  C
  C1617    1.0000 0.67899  0.57101  0.64474  Biso   1.000  C
  C1618    1.0000 0.67958  0.07042  0.83460  Biso   1.000  C
  C1619    1.0000 0.67500  0.07500  0.77930  Biso   1.000  C
  C1620    1.0000 0.67430  0.07570  0.75100  Biso   1.000  C
  C1621    1.0000 0.68977  0.06023  0.12063  Biso   1.000  C
  C1622    1.0000 0.67899  0.07101  0.14474  Biso   1.000  C
  C1623    1.0000 0.57042  0.17958  0.83460  Biso   1.000  C
  C1624    1.0000 0.57500  0.17500  0.77930  Biso   1.000  C
  C1625    1.0000 0.57570  0.17430  0.75100  Biso   1.000  C
  C1626    1.0000 0.56023  0.18977  0.12063  Biso   1.000  C
  C1627    1.0000 0.57101  0.17899  0.14474  Biso   1.000  C
  C1628    1.0000 0.07042  0.17958  0.33460  Biso   1.000  C
  C1629    1.0000 0.07500  0.17500  0.27930  Biso   1.000  C
  C1630    1.0000 0.07570  0.17430  0.25100  Biso   1.000  C
  C1631    1.0000 0.06023  0.18977  0.62063  Biso   1.000  C
  C1632    1.0000 0.07101  0.17899  0.64474  Biso   1.000  C
  C1633    1.0000 0.79164  0.11720  0.95836  Biso   1.000  C
  C1634    1.0000 0.75598  0.09451  0.99402  Biso   1.000  C
  C1635    1.0000 0.73656  0.08266  0.01344  Biso   1.000  C
  C1636    1.0000 0.29164  0.11720  0.45836  Biso   1.000  C
  C1637    1.0000 0.25598  0.09451  0.49402  Biso   1.000  C
  C1638    1.0000 0.23656  0.08266  0.51344  Biso   1.000  C
  C1639    1.0000 0.95836  0.13280  0.45836  Biso   1.000  C
  C1640    1.0000 0.99402  0.15549  0.49402  Biso   1.000  C
  C1641    1.0000 0.01344  0.16734  0.51344  Biso   1.000  C
  C1642    1.0000 0.95836  0.63280  0.95836  Biso   1.000  C
  C1643    1.0000 0.99402  0.65549  0.99402  Biso   1.000  C
  C1644    1.0000 0.01344  0.66734  0.01344  Biso   1.000  C
  C1645    1.0000 0.45836  0.61720  0.79164  Biso   1.000  C
  C1646    1.0000 0.49402  0.59451  0.75598  Biso   1.000  C
  C1647    1.0000 0.51344  0.58266  0.73656  Biso   1.000  C
  C1648    1.0000 0.45836  0.11720  0.29164  Biso   1.000  C
  C1649    1.0000 0.49402  0.09451  0.25598  Biso   1.000  C
  C1650    1.0000 0.51344  0.08266  0.23656  Biso   1.000  C
  C1651    1.0000 0.29164  0.63280  0.29164  Biso   1.000  C
  C1652    1.0000 0.25598  0.65549  0.25598  Biso   1.000  C
  C1653    1.0000 0.23656  0.66734  0.23656  Biso   1.000  C
  C1654    1.0000 0.29164  0.13280  0.79164  Biso   1.000  C
  C1655    1.0000 0.25598  0.15549  0.75598  Biso   1.000  C
  C1656    1.0000 0.23656  0.16734  0.73656  Biso   1.000  C
  C1657    1.0000 0.79164  0.63280  0.79164  Biso   1.000  C
  C1658    1.0000 0.75598  0.65549  0.75598  Biso   1.000  C
  C1659    1.0000 0.73656  0.66734  0.73656  Biso   1.000  C
  C1660    1.0000 0.79164  0.13280  0.29164  Biso   1.000  C
  C1661    1.0000 0.75598  0.15549  0.25598  Biso   1.000  C
  C1662    1.0000 0.73656  0.16734  0.23656  Biso   1.000  C
  C1663    1.0000 0.95836  0.79164  0.11720  Biso   1.000  C
  C1664    1.0000 0.99402  0.75598  0.09451  Biso   1.000  C
  C1665    1.0000 0.01344  0.73656  0.08266  Biso   1.000  C
  C1666    1.0000 0.95836  0.29164  0.61720  Biso   1.000  C
  C1667    1.0000 0.99402  0.25598  0.59451  Biso   1.000  C
  C1668    1.0000 0.01344  0.23656  0.58266  Biso   1.000  C
  C1669    1.0000 0.45836  0.95836  0.13280  Biso   1.000  C
  C1670    1.0000 0.49402  0.99402  0.15549  Biso   1.000  C
  C1671    1.0000 0.51344  0.01344  0.16734  Biso   1.000  C
  C1672    1.0000 0.45836  0.45836  0.63280  Biso   1.000  C
  C1673    1.0000 0.49402  0.49402  0.65549  Biso   1.000  C
  C1674    1.0000 0.51344  0.51344  0.66734  Biso   1.000  C
  C1675    1.0000 0.95836  0.95836  0.63280  Biso   1.000  C
  C1676    1.0000 0.99402  0.99402  0.65549  Biso   1.000  C
  C1677    1.0000 0.01344  0.01344  0.66734  Biso   1.000  C
  C1678    1.0000 0.79164  0.45836  0.61720  Biso   1.000  C
  C1679    1.0000 0.75598  0.49402  0.59451  Biso   1.000  C
  C1680    1.0000 0.73656  0.51344  0.58266  Biso   1.000  C
  C1681    1.0000 0.29164  0.45836  0.11720  Biso   1.000  C
  C1682    1.0000 0.25598  0.49402  0.09451  Biso   1.000  C
  C1683    1.0000 0.23656  0.51344  0.08266  Biso   1.000  C
  C1684    1.0000 0.29164  0.29164  0.63280  Biso   1.000  C
  C1685    1.0000 0.25598  0.25598  0.65549  Biso   1.000  C
  C1686    1.0000 0.23656  0.23656  0.66734  Biso   1.000  C
  C1687    1.0000 0.29164  0.79164  0.13280  Biso   1.000  C
  C1688    1.0000 0.25598  0.75598  0.15549  Biso   1.000  C
  C1689    1.0000 0.23656  0.73656  0.16734  Biso   1.000  C
  C1690    1.0000 0.79164  0.29164  0.13280  Biso   1.000  C
  C1691    1.0000 0.75598  0.25598  0.15549  Biso   1.000  C
  C1692    1.0000 0.73656  0.23656  0.16734  Biso   1.000  C
  C1693    1.0000 0.79164  0.79164  0.63280  Biso   1.000  C
  C1694    1.0000 0.75598  0.75598  0.65549  Biso   1.000  C
  C1695    1.0000 0.73656  0.73656  0.66734  Biso   1.000  C
  C1696    1.0000 0.11720  0.95836  0.79164  Biso   1.000  C
  C1697    1.0000 0.09451  0.99402  0.75598  Biso   1.000  C
  C1698    1.0000 0.08266  0.01344  0.73656  Biso   1.000  C
  C1699    1.0000 0.11720  0.45836  0.29164  Biso   1.000  C
  C1700    1.0000 0.09451  0.49402  0.25598  Biso   1.000  C
  C1701    1.0000 0.08266  0.51344  0.23656  Biso   1.000  C
  C1702    1.0000 0.13280  0.45836  0.95836  Biso   1.000  C
  C1703    1.0000 0.15549  0.49402  0.99402  Biso   1.000  C
  C1704    1.0000 0.16734  0.51344  0.01344  Biso   1.000  C
  C1705    1.0000 0.63280  0.45836  0.45836  Biso   1.000  C
  C1706    1.0000 0.65549  0.49402  0.49402  Biso   1.000  C
  C1707    1.0000 0.66734  0.51344  0.51344  Biso   1.000  C
  C1708    1.0000 0.63280  0.95836  0.95836  Biso   1.000  C
  C1709    1.0000 0.65549  0.99402  0.99402  Biso   1.000  C
  C1710    1.0000 0.66734  0.01344  0.01344  Biso   1.000  C
  C1711    1.0000 0.61720  0.79164  0.45836  Biso   1.000  C
  C1712    1.0000 0.59451  0.75598  0.49402  Biso   1.000  C
  C1713    1.0000 0.58266  0.73656  0.51344  Biso   1.000  C
  C1714    1.0000 0.61720  0.29164  0.95836  Biso   1.000  C
  C1715    1.0000 0.59451  0.25598  0.99402  Biso   1.000  C
  C1716    1.0000 0.58266  0.23656  0.01344  Biso   1.000  C
  C1717    1.0000 0.63280  0.29164  0.29164  Biso   1.000  C
  C1718    1.0000 0.65549  0.25598  0.25598  Biso   1.000  C
  C1719    1.0000 0.66734  0.23656  0.23656  Biso   1.000  C
  C1720    1.0000 0.63280  0.79164  0.79164  Biso   1.000  C
  C1721    1.0000 0.65549  0.75598  0.75598  Biso   1.000  C
  C1722    1.0000 0.66734  0.73656  0.73656  Biso   1.000  C
  C1723    1.0000 0.13280  0.29164  0.79164  Biso   1.000  C
  C1724    1.0000 0.15549  0.25598  0.75598  Biso   1.000  C
  C1725    1.0000 0.16734  0.23656  0.73656  Biso   1.000  C
  C1726    1.0000 0.13280  0.79164  0.29164  Biso   1.000  C
  C1727    1.0000 0.15549  0.75598  0.25598  Biso   1.000  C
  C1728    1.0000 0.16734  0.73656  0.23656  Biso   1.000  C
  C1729    1.0000 0.86720  0.04164  0.54164  Biso   1.000  C
  C1730    1.0000 0.84451  0.00598  0.50598  Biso   1.000  C
  C1731    1.0000 0.83266  0.98656  0.48656  Biso   1.000  C
  C1732    1.0000 0.36720  0.04164  0.04164  Biso   1.000  C
  C1733    1.0000 0.34451  0.00598  0.00598  Biso   1.000  C
  C1734    1.0000 0.33266  0.98656  0.98656  Biso   1.000  C
  C1735    1.0000 0.36720  0.54164  0.54164  Biso   1.000  C
  C1736    1.0000 0.34451  0.50598  0.50598  Biso   1.000  C
  C1737    1.0000 0.33266  0.48656  0.48656  Biso   1.000  C
  C1738    1.0000 0.88280  0.20836  0.04164  Biso   1.000  C
  C1739    1.0000 0.90549  0.24402  0.00598  Biso   1.000  C
  C1740    1.0000 0.91734  0.26344  0.98656  Biso   1.000  C
  C1741    1.0000 0.88280  0.70836  0.54164  Biso   1.000  C
  C1742    1.0000 0.90549  0.74402  0.50598  Biso   1.000  C
  C1743    1.0000 0.91734  0.76344  0.48656  Biso   1.000  C
  C1744    1.0000 0.38280  0.20836  0.54164  Biso   1.000  C
  C1745    1.0000 0.40549  0.24402  0.50598  Biso   1.000  C
  C1746    1.0000 0.41734  0.26344  0.48656  Biso   1.000  C
  C1747    1.0000 0.36720  0.70836  0.70836  Biso   1.000  C
  C1748    1.0000 0.34451  0.74402  0.74402  Biso   1.000  C
  C1749    1.0000 0.33266  0.76344  0.76344  Biso   1.000  C
  C1750    1.0000 0.36720  0.20836  0.20836  Biso   1.000  C
  C1751    1.0000 0.34451  0.24402  0.24402  Biso   1.000  C
  C1752    1.0000 0.33266  0.26344  0.26344  Biso   1.000  C
  C1753    1.0000 0.86720  0.70836  0.20836  Biso   1.000  C
  C1754    1.0000 0.84451  0.74402  0.24402  Biso   1.000  C
  C1755    1.0000 0.83266  0.76344  0.26344  Biso   1.000  C
  C1756    1.0000 0.86720  0.20836  0.70836  Biso   1.000  C
  C1757    1.0000 0.84451  0.24402  0.74402  Biso   1.000  C
  C1758    1.0000 0.83266  0.26344  0.76344  Biso   1.000  C
  C1759    1.0000 0.38280  0.54164  0.20836  Biso   1.000  C
  C1760    1.0000 0.40549  0.50598  0.24402  Biso   1.000  C
  C1761    1.0000 0.41734  0.48656  0.26344  Biso   1.000  C
  C1762    1.0000 0.38280  0.04164  0.70836  Biso   1.000  C
  C1763    1.0000 0.40549  0.00598  0.74402  Biso   1.000  C
  C1764    1.0000 0.41734  0.98656  0.76344  Biso   1.000  C
  C1765    1.0000 0.54164  0.20836  0.38280  Biso   1.000  C
  C1766    1.0000 0.50598  0.24402  0.40549  Biso   1.000  C
  C1767    1.0000 0.48656  0.26344  0.41734  Biso   1.000  C
  C1768    1.0000 0.54164  0.70836  0.88280  Biso   1.000  C
  C1769    1.0000 0.50598  0.74402  0.90549  Biso   1.000  C
  C1770    1.0000 0.48656  0.76344  0.91734  Biso   1.000  C
  C1771    1.0000 0.70836  0.70836  0.36720  Biso   1.000  C
  C1772    1.0000 0.74402  0.74402  0.34451  Biso   1.000  C
  C1773    1.0000 0.76344  0.76344  0.33266  Biso   1.000  C
  C1774    1.0000 0.70836  0.20836  0.86720  Biso   1.000  C
  C1775    1.0000 0.74402  0.24402  0.84451  Biso   1.000  C
  C1776    1.0000 0.76344  0.26344  0.83266  Biso   1.000  C
  C1777    1.0000 0.20836  0.70836  0.86720  Biso   1.000  C
  C1778    1.0000 0.24402  0.74402  0.84451  Biso   1.000  C
  C1779    1.0000 0.26344  0.76344  0.83266  Biso   1.000  C
  C1780    1.0000 0.20836  0.20836  0.36720  Biso   1.000  C
  C1781    1.0000 0.24402  0.24402  0.34451  Biso   1.000  C
  C1782    1.0000 0.26344  0.26344  0.33266  Biso   1.000  C
  C1783    1.0000 0.20836  0.04164  0.88280  Biso   1.000  C
  C1784    1.0000 0.24402  0.00598  0.90549  Biso   1.000  C
  C1785    1.0000 0.26344  0.98656  0.91734  Biso   1.000  C
  C1786    1.0000 0.20836  0.54164  0.38280  Biso   1.000  C
  C1787    1.0000 0.24402  0.50598  0.40549  Biso   1.000  C
  C1788    1.0000 0.26344  0.48656  0.41734  Biso   1.000  C
  C1789    1.0000 0.70836  0.04164  0.38280  Biso   1.000  C
  C1790    1.0000 0.74402  0.00598  0.40549  Biso   1.000  C
  C1791    1.0000 0.76344  0.98656  0.41734  Biso   1.000  C
  C1792    1.0000 0.04164  0.54164  0.86720  Biso   1.000  C
  C1793    1.0000 0.00598  0.50598  0.84451  Biso   1.000  C
  C1794    1.0000 0.98656  0.48656  0.83266  Biso   1.000  C
  C1795    1.0000 0.04164  0.04164  0.36720  Biso   1.000  C
  C1796    1.0000 0.00598  0.00598  0.34451  Biso   1.000  C
  C1797    1.0000 0.98656  0.98656  0.33266  Biso   1.000  C
  C1798    1.0000 0.54164  0.54164  0.36720  Biso   1.000  C
  C1799    1.0000 0.50598  0.50598  0.34451  Biso   1.000  C
  C1800    1.0000 0.48656  0.48656  0.33266  Biso   1.000  C
  C1801    1.0000 0.70836  0.36720  0.70836  Biso   1.000  C
  C1802    1.0000 0.74402  0.34451  0.74402  Biso   1.000  C
  C1803    1.0000 0.76344  0.33266  0.76344  Biso   1.000  C
  C1804    1.0000 0.70836  0.86720  0.20836  Biso   1.000  C
  C1805    1.0000 0.74402  0.84451  0.24402  Biso   1.000  C
  C1806    1.0000 0.76344  0.83266  0.26344  Biso   1.000  C
  C1807    1.0000 0.20836  0.36720  0.20836  Biso   1.000  C
  C1808    1.0000 0.24402  0.34451  0.24402  Biso   1.000  C
  C1809    1.0000 0.26344  0.33266  0.26344  Biso   1.000  C
  C1810    1.0000 0.20836  0.86720  0.70836  Biso   1.000  C
  C1811    1.0000 0.24402  0.84451  0.74402  Biso   1.000  C
  C1812    1.0000 0.26344  0.83266  0.76344  Biso   1.000  C
  C1813    1.0000 0.20836  0.38280  0.54164  Biso   1.000  C
  C1814    1.0000 0.24402  0.40549  0.50598  Biso   1.000  C
  C1815    1.0000 0.26344  0.41734  0.48656  Biso   1.000  C
  C1816    1.0000 0.70836  0.38280  0.04164  Biso   1.000  C
  C1817    1.0000 0.74402  0.40549  0.00598  Biso   1.000  C
  C1818    1.0000 0.76344  0.41734  0.98656  Biso   1.000  C
  C1819    1.0000 0.54164  0.86720  0.04164  Biso   1.000  C
  C1820    1.0000 0.50598  0.84451  0.00598  Biso   1.000  C
  C1821    1.0000 0.48656  0.83266  0.98656  Biso   1.000  C
  C1822    1.0000 0.54164  0.36720  0.54164  Biso   1.000  C
  C1823    1.0000 0.50598  0.34451  0.50598  Biso   1.000  C
  C1824    1.0000 0.48656  0.33266  0.48656  Biso   1.000  C
  C1825    1.0000 0.04164  0.88280  0.20836  Biso   1.000  C
  C1826    1.0000 0.00598  0.90549  0.24402  Biso   1.000  C
  C1827    1.0000 0.98656  0.91734  0.26344  Biso   1.000  C
  C1828    1.0000 0.04164  0.38280  0.70836  Biso   1.000  C
  C1829    1.0000 0.00598  0.40549  0.74402  Biso   1.000  C
  C1830    1.0000 0.98656  0.41734  0.76344  Biso   1.000  C
  C1831    1.0000 0.54164  0.38280  0.20836  Biso   1.000  C
  C1832    1.0000 0.50598  0.40549  0.24402  Biso   1.000  C
  C1833    1.0000 0.48656  0.41734  0.26344  Biso   1.000  C
  C1834    1.0000 0.20836  0.88280  0.04164  Biso   1.000  C
  C1835    1.0000 0.24402  0.90549  0.00598  Biso   1.000  C
  C1836    1.0000 0.26344  0.91734  0.98656  Biso   1.000  C
  C1837    1.0000 0.70836  0.88280  0.54164  Biso   1.000  C
  C1838    1.0000 0.74402  0.90549  0.50598  Biso   1.000  C
  C1839    1.0000 0.76344  0.91734  0.48656  Biso   1.000  C
  C1840    1.0000 0.04164  0.86720  0.54164  Biso   1.000  C
  C1841    1.0000 0.00598  0.84451  0.50598  Biso   1.000  C
  C1842    1.0000 0.98656  0.83266  0.48656  Biso   1.000  C
  C1843    1.0000 0.04164  0.36720  0.04164  Biso   1.000  C
  C1844    1.0000 0.00598  0.34451  0.00598  Biso   1.000  C
  C1845    1.0000 0.98656  0.33266  0.98656  Biso   1.000  C
  C1846    1.0000 0.54164  0.88280  0.70836  Biso   1.000  C
  C1847    1.0000 0.50598  0.90549  0.74402  Biso   1.000  C
  C1848    1.0000 0.48656  0.91734  0.76344  Biso   1.000  C
  C1849    1.0000 0.04164  0.20836  0.88280  Biso   1.000  C
  C1850    1.0000 0.00598  0.24402  0.90549  Biso   1.000  C
  C1851    1.0000 0.98656  0.26344  0.91734  Biso   1.000  C
  C1852    1.0000 0.04164  0.70836  0.38280  Biso   1.000  C
  C1853    1.0000 0.00598  0.74402  0.40549  Biso   1.000  C
  C1854    1.0000 0.98656  0.76344  0.41734  Biso   1.000  C
  C1855    1.0000 0.54164  0.04164  0.86720  Biso   1.000  C
  C1856    1.0000 0.50598  0.00598  0.84451  Biso   1.000  C
  C1857    1.0000 0.48656  0.98656  0.83266  Biso   1.000  C
  C1858    1.0000 0.70836  0.54164  0.88280  Biso   1.000  C
  C1859    1.0000 0.74402  0.50598  0.90549  Biso   1.000  C
  C1860    1.0000 0.76344  0.48656  0.91734  Biso   1.000  C
  C1861    1.0000 0.88280  0.04164  0.20836  Biso   1.000  C
  C1862    1.0000 0.90549  0.00598  0.24402  Biso   1.000  C
  C1863    1.0000 0.91734  0.98656  0.26344  Biso   1.000  C
  C1864    1.0000 0.88280  0.54164  0.70836  Biso   1.000  C
  C1865    1.0000 0.90549  0.50598  0.74402  Biso   1.000  C
  C1866    1.0000 0.91734  0.48656  0.76344  Biso   1.000  C
  C1867    1.0000 0.86720  0.54164  0.04164  Biso   1.000  C
  C1868    1.0000 0.84451  0.50598  0.00598  Biso   1.000  C
  C1869    1.0000 0.83266  0.48656  0.98656  Biso   1.000  C
  C1870    1.0000 0.38280  0.70836  0.04164  Biso   1.000  C
  C1871    1.0000 0.40549  0.74402  0.00598  Biso   1.000  C
  C1872    1.0000 0.41734  0.76344  0.98656  Biso   1.000  C
  C1873    1.0000 0.13280  0.95836  0.45836  Biso   1.000  C
  C1874    1.0000 0.15549  0.99402  0.49402  Biso   1.000  C
  C1875    1.0000 0.16734  0.01344  0.51344  Biso   1.000  C
  C1876    1.0000 0.11720  0.79164  0.95836  Biso   1.000  C
  C1877    1.0000 0.09451  0.75598  0.99402  Biso   1.000  C
  C1878    1.0000 0.08266  0.73656  0.01344  Biso   1.000  C
  C1879    1.0000 0.11720  0.29164  0.45836  Biso   1.000  C
  C1880    1.0000 0.09451  0.25598  0.49402  Biso   1.000  C
  C1881    1.0000 0.08266  0.23656  0.51344  Biso   1.000  C
  C1882    1.0000 0.61720  0.45836  0.79164  Biso   1.000  C
  C1883    1.0000 0.59451  0.49402  0.75598  Biso   1.000  C
  C1884    1.0000 0.58266  0.51344  0.73656  Biso   1.000  C
  C1885    1.0000 0.61720  0.95836  0.29164  Biso   1.000  C
  C1886    1.0000 0.59451  0.99402  0.25598  Biso   1.000  C
  C1887    1.0000 0.58266  0.01344  0.23656  Biso   1.000  C
  C1888    1.0000 0.45836  0.79164  0.61720  Biso   1.000  C
  C1889    1.0000 0.49402  0.75598  0.59451  Biso   1.000  C
  C1890    1.0000 0.51344  0.73656  0.58266  Biso   1.000  C
  C1891    1.0000 0.45836  0.29164  0.11720  Biso   1.000  C
  C1892    1.0000 0.49402  0.25598  0.09451  Biso   1.000  C
  C1893    1.0000 0.51344  0.23656  0.08266  Biso   1.000  C
  C1894    1.0000 0.79164  0.95836  0.11720  Biso   1.000  C
  C1895    1.0000 0.75598  0.99402  0.09451  Biso   1.000  C
  C1896    1.0000 0.73656  0.01344  0.08266  Biso   1.000  C
  C1897    1.0000 0.29164  0.95836  0.61720  Biso   1.000  C
  C1898    1.0000 0.25598  0.99402  0.59451  Biso   1.000  C
  C1899    1.0000 0.23656  0.01344  0.58266  Biso   1.000  C
  C1900    1.0000 0.95836  0.45836  0.13280  Biso   1.000  C
  C1901    1.0000 0.99402  0.49402  0.15549  Biso   1.000  C
  C1902    1.0000 0.01344  0.51344  0.16734  Biso   1.000  C
  C1903    1.0000 0.79164  0.61720  0.45836  Biso   1.000  C
  C1904    1.0000 0.75598  0.59451  0.49402  Biso   1.000  C
  C1905    1.0000 0.73656  0.58266  0.51344  Biso   1.000  C
  C1906    1.0000 0.29164  0.61720  0.95836  Biso   1.000  C
  C1907    1.0000 0.25598  0.59451  0.99402  Biso   1.000  C
  C1908    1.0000 0.23656  0.58266  0.01344  Biso   1.000  C
  C1909    1.0000 0.45836  0.13280  0.95836  Biso   1.000  C
  C1910    1.0000 0.49402  0.15549  0.99402  Biso   1.000  C
  C1911    1.0000 0.51344  0.16734  0.01344  Biso   1.000  C
  C1912    1.0000 0.45836  0.63280  0.45836  Biso   1.000  C
  C1913    1.0000 0.49402  0.65549  0.49402  Biso   1.000  C
  C1914    1.0000 0.51344  0.66734  0.51344  Biso   1.000  C
  C1915    1.0000 0.95836  0.11720  0.79164  Biso   1.000  C
  C1916    1.0000 0.99402  0.09451  0.75598  Biso   1.000  C
  C1917    1.0000 0.01344  0.08266  0.73656  Biso   1.000  C
  C1918    1.0000 0.95836  0.61720  0.29164  Biso   1.000  C
  C1919    1.0000 0.99402  0.59451  0.25598  Biso   1.000  C
  C1920    1.0000 0.01344  0.58266  0.23656  Biso   1.000  C
  C1921    1.0000 0.59383  0.09383  0.06027  Biso   1.000  C
  C1922    1.0000 0.59383  0.59383  0.56027  Biso   1.000  C
  C1923    1.0000 0.15617  0.15617  0.56027  Biso   1.000  C
  C1924    1.0000 0.15617  0.65617  0.06027  Biso   1.000  C
  C1925    1.0000 0.65617  0.15617  0.06027  Biso   1.000  C
  C1926    1.0000 0.65617  0.65617  0.56027  Biso   1.000  C
  C1927    1.0000 0.65617  0.59383  0.68973  Biso   1.000  C
  C1928    1.0000 0.15617  0.59383  0.18973  Biso   1.000  C
  C1929    1.0000 0.09383  0.65617  0.18973  Biso   1.000  C
  C1930    1.0000 0.09383  0.15617  0.68973  Biso   1.000  C
  C1931    1.0000 0.06027  0.59383  0.09383  Biso   1.000  C
  C1932    1.0000 0.56027  0.59383  0.59383  Biso   1.000  C
  C1933    1.0000 0.56027  0.15617  0.15617  Biso   1.000  C
  C1934    1.0000 0.56027  0.65617  0.65617  Biso   1.000  C
  C1935    1.0000 0.06027  0.15617  0.65617  Biso   1.000  C
  C1936    1.0000 0.06027  0.65617  0.15617  Biso   1.000  C
  C1937    1.0000 0.68973  0.65617  0.59383  Biso   1.000  C
  C1938    1.0000 0.68973  0.15617  0.09383  Biso   1.000  C
  C1939    1.0000 0.18973  0.09383  0.65617  Biso   1.000  C
  C1940    1.0000 0.18973  0.59383  0.15617  Biso   1.000  C
  C1941    1.0000 0.09383  0.06027  0.59383  Biso   1.000  C
  C1942    1.0000 0.09383  0.56027  0.09383  Biso   1.000  C
  C1943    1.0000 0.15617  0.56027  0.15617  Biso   1.000  C
  C1944    1.0000 0.15617  0.06027  0.65617  Biso   1.000  C
  C1945    1.0000 0.65617  0.56027  0.65617  Biso   1.000  C
  C1946    1.0000 0.65617  0.06027  0.15617  Biso   1.000  C
  C1947    1.0000 0.59383  0.68973  0.65617  Biso   1.000  C
  C1948    1.0000 0.59383  0.18973  0.15617  Biso   1.000  C
  C1949    1.0000 0.65617  0.18973  0.09383  Biso   1.000  C
  C1950    1.0000 0.15617  0.18973  0.59383  Biso   1.000  C
  C1951    1.0000 0.84383  0.84383  0.43973  Biso   1.000  C
  C1952    1.0000 0.84383  0.34383  0.93973  Biso   1.000  C
  C1953    1.0000 0.34383  0.84383  0.93973  Biso   1.000  C
  C1954    1.0000 0.34383  0.34383  0.43973  Biso   1.000  C
  C1955    1.0000 0.90617  0.40617  0.93973  Biso   1.000  C
  C1956    1.0000 0.90617  0.90617  0.43973  Biso   1.000  C
  C1957    1.0000 0.34383  0.90617  0.81027  Biso   1.000  C
  C1958    1.0000 0.84383  0.90617  0.31027  Biso   1.000  C
  C1959    1.0000 0.40617  0.34383  0.31027  Biso   1.000  C
  C1960    1.0000 0.40617  0.84383  0.81027  Biso   1.000  C
  C1961    1.0000 0.34383  0.31027  0.40617  Biso   1.000  C
  C1962    1.0000 0.84383  0.31027  0.90617  Biso   1.000  C
  C1963    1.0000 0.90617  0.81027  0.34383  Biso   1.000  C
  C1964    1.0000 0.90617  0.31027  0.84383  Biso   1.000  C
  C1965    1.0000 0.40617  0.93973  0.90617  Biso   1.000  C
  C1966    1.0000 0.40617  0.43973  0.40617  Biso   1.000  C
  C1967    1.0000 0.84383  0.43973  0.84383  Biso   1.000  C
  C1968    1.0000 0.84383  0.93973  0.34383  Biso   1.000  C
  C1969    1.0000 0.34383  0.43973  0.34383  Biso   1.000  C
  C1970    1.0000 0.34383  0.93973  0.84383  Biso   1.000  C
  C1971    1.0000 0.81027  0.34383  0.90617  Biso   1.000  C
  C1972    1.0000 0.81027  0.84383  0.40617  Biso   1.000  C
  C1973    1.0000 0.31027  0.40617  0.34383  Biso   1.000  C
  C1974    1.0000 0.31027  0.90617  0.84383  Biso   1.000  C
  C1975    1.0000 0.43973  0.84383  0.84383  Biso   1.000  C
  C1976    1.0000 0.43973  0.34383  0.34383  Biso   1.000  C
  C1977    1.0000 0.93973  0.84383  0.34383  Biso   1.000  C
  C1978    1.0000 0.93973  0.34383  0.84383  Biso   1.000  C
  C1979    1.0000 0.93973  0.90617  0.40617  Biso   1.000  C
  C1980    1.0000 0.43973  0.90617  0.90617  Biso   1.000  C
  C1981    1.0000 0.40617  0.90617  0.93973  Biso   1.000  C
  C1982    1.0000 0.40617  0.40617  0.43973  Biso   1.000  C
  C1983    1.0000 0.34383  0.40617  0.31027  Biso   1.000  C
  C1984    1.0000 0.84383  0.40617  0.81027  Biso   1.000  C
  C1985    1.0000 0.90617  0.34383  0.81027  Biso   1.000  C
  C1986    1.0000 0.90617  0.84383  0.31027  Biso   1.000  C
  C1987    1.0000 0.93973  0.40617  0.90617  Biso   1.000  C
  C1988    1.0000 0.43973  0.40617  0.40617  Biso   1.000  C
  C1989    1.0000 0.31027  0.34383  0.40617  Biso   1.000  C
  C1990    1.0000 0.31027  0.84383  0.90617  Biso   1.000  C
  C1991    1.0000 0.81027  0.90617  0.34383  Biso   1.000  C
  C1992    1.0000 0.81027  0.40617  0.84383  Biso   1.000  C
  C1993    1.0000 0.90617  0.93973  0.40617  Biso   1.000  C
  C1994    1.0000 0.90617  0.43973  0.90617  Biso   1.000  C
  C1995    1.0000 0.40617  0.31027  0.34383  Biso   1.000  C
  C1996    1.0000 0.40617  0.81027  0.84383  Biso   1.000  C
  C1997    1.0000 0.34383  0.81027  0.90617  Biso   1.000  C
  C1998    1.0000 0.84383  0.81027  0.40617  Biso   1.000  C
  C1999    1.0000 0.09383  0.59383  0.06027  Biso   1.000  C
  C2000    1.0000 0.09383  0.09383  0.56027  Biso   1.000  C
  C2001    1.0000 0.65617  0.09383  0.18973  Biso   1.000  C
  C2002    1.0000 0.15617  0.09383  0.68973  Biso   1.000  C
  C2003    1.0000 0.59383  0.65617  0.68973  Biso   1.000  C
  C2004    1.0000 0.59383  0.15617  0.18973  Biso   1.000  C
  C2005    1.0000 0.65617  0.68973  0.59383  Biso   1.000  C
  C2006    1.0000 0.15617  0.68973  0.09383  Biso   1.000  C
  C2007    1.0000 0.09383  0.18973  0.65617  Biso   1.000  C
  C2008    1.0000 0.09383  0.68973  0.15617  Biso   1.000  C
  C2009    1.0000 0.59383  0.06027  0.09383  Biso   1.000  C
  C2010    1.0000 0.59383  0.56027  0.59383  Biso   1.000  C
  C2011    1.0000 0.18973  0.65617  0.09383  Biso   1.000  C
  C2012    1.0000 0.18973  0.15617  0.59383  Biso   1.000  C
  C2013    1.0000 0.68973  0.59383  0.65617  Biso   1.000  C
  C2014    1.0000 0.68973  0.09383  0.15617  Biso   1.000  C
  C2015    1.0000 0.06027  0.09383  0.59383  Biso   1.000  C
  C2016    1.0000 0.56027  0.09383  0.09383  Biso   1.000  C
