data_image0
_cell_length_a       50.9199
_cell_length_b       50.9199
_cell_length_c       50.9199
_cell_angle_alpha    90
_cell_angle_beta     90
_cell_angle_gamma    90

_symmetry_space_group_name_H-M    "P 1"
_symmetry_int_tables_number       1

loop_
  _symmetry_equiv_pos_as_xyz
  'x, y, z'

loop_
  _atom_site_label
  _atom_site_occupancy
  _atom_site_fract_x
  _atom_site_fract_y
  _atom_site_fract_z
  _atom_site_thermal_displace_type
  _atom_site_B_iso_or_equiv
  _atom_site_type_symbol
  O1       1.0000 0.88910  0.09992  0.03440  Biso   1.000  O
  O2       1.0000 0.92350  0.11870  0.01980  Biso   1.000  O
  O3       1.0000 0.00980  0.05720  0.08700  Biso   1.000  O
  O4       1.0000 0.83718  0.10754  0.01264  Biso   1.000  O
  O5       1.0000 0.84296  0.12835  0.97491  Biso   1.000  O
  O6       1.0000 0.71539  0.07914  0.00325  Biso   1.000  O
  O7       1.0000 0.63827  0.07078  0.03998  Biso   1.000  O
  C1       1.0000 0.91340  0.10410  0.03500  Biso   1.000  C
  C2       1.0000 0.92860  0.08780  0.05520  Biso   1.000  C
  C3       1.0000 0.95530  0.09060  0.05590  Biso   1.000  C
  C4       1.0000 0.82890  0.11650  0.99100  Biso   1.000  C
  C5       1.0000 0.80040  0.11100  0.98360  Biso   1.000  C
  C6       1.0000 0.78300  0.09952  0.00140  Biso   1.000  C
  O8       1.0000 0.88910  0.59992  0.53440  Biso   1.000  O
  O9       1.0000 0.92350  0.61870  0.51980  Biso   1.000  O
  O10      1.0000 0.00980  0.55720  0.58700  Biso   1.000  O
  O11      1.0000 0.83718  0.60754  0.51264  Biso   1.000  O
  O12      1.0000 0.84296  0.62835  0.47491  Biso   1.000  O
  O13      1.0000 0.71539  0.57914  0.50325  Biso   1.000  O
  O14      1.0000 0.63827  0.57078  0.53998  Biso   1.000  O
  C7       1.0000 0.91340  0.60410  0.53500  Biso   1.000  C
  C8       1.0000 0.92860  0.58780  0.55520  Biso   1.000  C
  C9       1.0000 0.95530  0.59060  0.55590  Biso   1.000  C
  C10      1.0000 0.82890  0.61650  0.49100  Biso   1.000  C
  C11      1.0000 0.80040  0.61100  0.48360  Biso   1.000  C
  C12      1.0000 0.78300  0.59952  0.50140  Biso   1.000  C
  O15      1.0000 0.38910  0.09992  0.53440  Biso   1.000  O
  O16      1.0000 0.42350  0.11870  0.51980  Biso   1.000  O
  O17      1.0000 0.50980  0.05720  0.58700  Biso   1.000  O
  O18      1.0000 0.33718  0.10754  0.51264  Biso   1.000  O
  O19      1.0000 0.34296  0.12835  0.47491  Biso   1.000  O
  O20      1.0000 0.21539  0.07914  0.50325  Biso   1.000  O
  O21      1.0000 0.13827  0.07078  0.53998  Biso   1.000  O
  C13      1.0000 0.41340  0.10410  0.53500  Biso   1.000  C
  C14      1.0000 0.42860  0.08780  0.55520  Biso   1.000  C
  C15      1.0000 0.45530  0.09060  0.55590  Biso   1.000  C
  C16      1.0000 0.32890  0.11650  0.49100  Biso   1.000  C
  C17      1.0000 0.30040  0.11100  0.48360  Biso   1.000  C
  C18      1.0000 0.28300  0.09952  0.50140  Biso   1.000  C
  O22      1.0000 0.38910  0.59992  0.03440  Biso   1.000  O
  O23      1.0000 0.42350  0.61870  0.01980  Biso   1.000  O
  O24      1.0000 0.50980  0.55720  0.08700  Biso   1.000  O
  O25      1.0000 0.33718  0.60754  0.01264  Biso   1.000  O
  O26      1.0000 0.34296  0.62835  0.97491  Biso   1.000  O
  O27      1.0000 0.21539  0.57914  0.00325  Biso   1.000  O
  O28      1.0000 0.13827  0.57078  0.03998  Biso   1.000  O
  C19      1.0000 0.41340  0.60410  0.03500  Biso   1.000  C
  C20      1.0000 0.42860  0.58780  0.05520  Biso   1.000  C
  C21      1.0000 0.45530  0.59060  0.05590  Biso   1.000  C
  C22      1.0000 0.32890  0.61650  0.99100  Biso   1.000  C
  C23      1.0000 0.30040  0.61100  0.98360  Biso   1.000  C
  C24      1.0000 0.28300  0.59952  0.00140  Biso   1.000  C
  O29      1.0000 0.86090  0.15008  0.53440  Biso   1.000  O
  O30      1.0000 0.82650  0.13130  0.51980  Biso   1.000  O
  O31      1.0000 0.74020  0.19280  0.58700  Biso   1.000  O
  O32      1.0000 0.91282  0.14246  0.51264  Biso   1.000  O
  O33      1.0000 0.90704  0.12165  0.47491  Biso   1.000  O
  O34      1.0000 0.03461  0.17086  0.50325  Biso   1.000  O
  O35      1.0000 0.11173  0.17922  0.53998  Biso   1.000  O
  C25      1.0000 0.83660  0.14590  0.53500  Biso   1.000  C
  C26      1.0000 0.82140  0.16220  0.55520  Biso   1.000  C
  C27      1.0000 0.79470  0.15940  0.55590  Biso   1.000  C
  C28      1.0000 0.92110  0.13350  0.49100  Biso   1.000  C
  C29      1.0000 0.94960  0.13900  0.48360  Biso   1.000  C
  C30      1.0000 0.96700  0.15048  0.50140  Biso   1.000  C
  O36      1.0000 0.86090  0.65008  0.03440  Biso   1.000  O
  O37      1.0000 0.82650  0.63130  0.01980  Biso   1.000  O
  O38      1.0000 0.74020  0.69280  0.08700  Biso   1.000  O
  O39      1.0000 0.91282  0.64246  0.01264  Biso   1.000  O
  O40      1.0000 0.90704  0.62165  0.97491  Biso   1.000  O
  O41      1.0000 0.03461  0.67086  0.00325  Biso   1.000  O
  O42      1.0000 0.11173  0.67922  0.03998  Biso   1.000  O
  C31      1.0000 0.83660  0.64590  0.03500  Biso   1.000  C
  C32      1.0000 0.82140  0.66220  0.05520  Biso   1.000  C
  C33      1.0000 0.79470  0.65940  0.05590  Biso   1.000  C
  C34      1.0000 0.92110  0.63350  0.99100  Biso   1.000  C
  C35      1.0000 0.94960  0.63900  0.98360  Biso   1.000  C
  C36      1.0000 0.96700  0.65048  0.00140  Biso   1.000  C
  O43      1.0000 0.36090  0.15008  0.03440  Biso   1.000  O
  O44      1.0000 0.32650  0.13130  0.01980  Biso   1.000  O
  O45      1.0000 0.24020  0.19280  0.08700  Biso   1.000  O
  O46      1.0000 0.41282  0.14246  0.01264  Biso   1.000  O
  O47      1.0000 0.40704  0.12165  0.97491  Biso   1.000  O
  O48      1.0000 0.53461  0.17086  0.00325  Biso   1.000  O
  O49      1.0000 0.61173  0.17922  0.03998  Biso   1.000  O
  C37      1.0000 0.33660  0.14590  0.03500  Biso   1.000  C
  C38      1.0000 0.32140  0.16220  0.05520  Biso   1.000  C
  C39      1.0000 0.29470  0.15940  0.05590  Biso   1.000  C
  C40      1.0000 0.42110  0.13350  0.99100  Biso   1.000  C
  C41      1.0000 0.44960  0.13900  0.98360  Biso   1.000  C
  C42      1.0000 0.46700  0.15048  0.00140  Biso   1.000  C
  O50      1.0000 0.36090  0.65008  0.53440  Biso   1.000  O
  O51      1.0000 0.32650  0.63130  0.51980  Biso   1.000  O
  O52      1.0000 0.24020  0.69280  0.58700  Biso   1.000  O
  O53      1.0000 0.41282  0.64246  0.51264  Biso   1.000  O
  O54      1.0000 0.40704  0.62165  0.47491  Biso   1.000  O
  O55      1.0000 0.53461  0.67086  0.50325  Biso   1.000  O
  O56      1.0000 0.61173  0.67922  0.53998  Biso   1.000  O
  C43      1.0000 0.33660  0.64590  0.53500  Biso   1.000  C
  C44      1.0000 0.32140  0.66220  0.55520  Biso   1.000  C
  C45      1.0000 0.29470  0.65940  0.55590  Biso   1.000  C
  C46      1.0000 0.42110  0.63350  0.49100  Biso   1.000  C
  C47      1.0000 0.44960  0.63900  0.48360  Biso   1.000  C
  C48      1.0000 0.46700  0.65048  0.50140  Biso   1.000  C
  O57      1.0000 0.36090  0.59992  0.71560  Biso   1.000  O
  O58      1.0000 0.32650  0.61870  0.73020  Biso   1.000  O
  O59      1.0000 0.24020  0.55720  0.66300  Biso   1.000  O
  O60      1.0000 0.41282  0.60754  0.73736  Biso   1.000  O
  O61      1.0000 0.40704  0.62835  0.77509  Biso   1.000  O
  O62      1.0000 0.53461  0.57914  0.74675  Biso   1.000  O
  O63      1.0000 0.61173  0.57078  0.71002  Biso   1.000  O
  C49      1.0000 0.33660  0.60410  0.71500  Biso   1.000  C
  C50      1.0000 0.32140  0.58780  0.69480  Biso   1.000  C
  C51      1.0000 0.29470  0.59060  0.69410  Biso   1.000  C
  C52      1.0000 0.42110  0.61650  0.75900  Biso   1.000  C
  C53      1.0000 0.44960  0.61100  0.76640  Biso   1.000  C
  C54      1.0000 0.46700  0.59952  0.74860  Biso   1.000  C
  O64      1.0000 0.36090  0.09992  0.21560  Biso   1.000  O
  O65      1.0000 0.32650  0.11870  0.23020  Biso   1.000  O
  O66      1.0000 0.24020  0.05720  0.16300  Biso   1.000  O
  O67      1.0000 0.41282  0.10754  0.23736  Biso   1.000  O
  O68      1.0000 0.40704  0.12835  0.27509  Biso   1.000  O
  O69      1.0000 0.53461  0.07914  0.24675  Biso   1.000  O
  O70      1.0000 0.61173  0.07078  0.21002  Biso   1.000  O
  C55      1.0000 0.33660  0.10410  0.21500  Biso   1.000  C
  C56      1.0000 0.32140  0.08780  0.19480  Biso   1.000  C
  C57      1.0000 0.29470  0.09060  0.19410  Biso   1.000  C
  C58      1.0000 0.42110  0.11650  0.25900  Biso   1.000  C
  C59      1.0000 0.44960  0.11100  0.26640  Biso   1.000  C
  C60      1.0000 0.46700  0.09952  0.24860  Biso   1.000  C
  O71      1.0000 0.86090  0.59992  0.21560  Biso   1.000  O
  O72      1.0000 0.82650  0.61870  0.23020  Biso   1.000  O
  O73      1.0000 0.74020  0.55720  0.16300  Biso   1.000  O
  O74      1.0000 0.91282  0.60754  0.23736  Biso   1.000  O
  O75      1.0000 0.90704  0.62835  0.27509  Biso   1.000  O
  O76      1.0000 0.03461  0.57914  0.24675  Biso   1.000  O
  O77      1.0000 0.11173  0.57078  0.21002  Biso   1.000  O
  C61      1.0000 0.83660  0.60410  0.21500  Biso   1.000  C
  C62      1.0000 0.82140  0.58780  0.19480  Biso   1.000  C
  C63      1.0000 0.79470  0.59060  0.19410  Biso   1.000  C
  C64      1.0000 0.92110  0.61650  0.25900  Biso   1.000  C
  C65      1.0000 0.94960  0.61100  0.26640  Biso   1.000  C
  C66      1.0000 0.96700  0.59952  0.24860  Biso   1.000  C
  O78      1.0000 0.86090  0.09992  0.71560  Biso   1.000  O
  O79      1.0000 0.82650  0.11870  0.73020  Biso   1.000  O
  O80      1.0000 0.74020  0.05720  0.66300  Biso   1.000  O
  O81      1.0000 0.91282  0.10754  0.73736  Biso   1.000  O
  O82      1.0000 0.90704  0.12835  0.77509  Biso   1.000  O
  O83      1.0000 0.03461  0.07914  0.74675  Biso   1.000  O
  O84      1.0000 0.11173  0.07078  0.71002  Biso   1.000  O
  C67      1.0000 0.83660  0.10410  0.71500  Biso   1.000  C
  C68      1.0000 0.82140  0.08780  0.69480  Biso   1.000  C
  C69      1.0000 0.79470  0.09060  0.69410  Biso   1.000  C
  C70      1.0000 0.92110  0.11650  0.75900  Biso   1.000  C
  C71      1.0000 0.94960  0.11100  0.76640  Biso   1.000  C
  C72      1.0000 0.96700  0.09952  0.74860  Biso   1.000  C
  O85      1.0000 0.38910  0.65008  0.21560  Biso   1.000  O
  O86      1.0000 0.42350  0.63130  0.23020  Biso   1.000  O
  O87      1.0000 0.50980  0.69280  0.16300  Biso   1.000  O
  O88      1.0000 0.33718  0.64246  0.23736  Biso   1.000  O
  O89      1.0000 0.34296  0.62165  0.27509  Biso   1.000  O
  O90      1.0000 0.21539  0.67086  0.24675  Biso   1.000  O
  O91      1.0000 0.13827  0.67922  0.21002  Biso   1.000  O
  C73      1.0000 0.41340  0.64590  0.21500  Biso   1.000  C
  C74      1.0000 0.42860  0.66220  0.19480  Biso   1.000  C
  C75      1.0000 0.45530  0.65940  0.19410  Biso   1.000  C
  C76      1.0000 0.32890  0.63350  0.25900  Biso   1.000  C
  C77      1.0000 0.30040  0.63900  0.26640  Biso   1.000  C
  C78      1.0000 0.28300  0.65048  0.24860  Biso   1.000  C
  O92      1.0000 0.38910  0.15008  0.71560  Biso   1.000  O
  O93      1.0000 0.42350  0.13130  0.73020  Biso   1.000  O
  O94      1.0000 0.50980  0.19280  0.66300  Biso   1.000  O
  O95      1.0000 0.33718  0.14246  0.73736  Biso   1.000  O
  O96      1.0000 0.34296  0.12165  0.77509  Biso   1.000  O
  O97      1.0000 0.21539  0.17086  0.74675  Biso   1.000  O
  O98      1.0000 0.13827  0.17922  0.71002  Biso   1.000  O
  C79      1.0000 0.41340  0.14590  0.71500  Biso   1.000  C
  C80      1.0000 0.42860  0.16220  0.69480  Biso   1.000  C
  C81      1.0000 0.45530  0.15940  0.69410  Biso   1.000  C
  C82      1.0000 0.32890  0.13350  0.75900  Biso   1.000  C
  C83      1.0000 0.30040  0.13900  0.76640  Biso   1.000  C
  C84      1.0000 0.28300  0.15048  0.74860  Biso   1.000  C
  O99      1.0000 0.88910  0.65008  0.71560  Biso   1.000  O
  O100     1.0000 0.92350  0.63130  0.73020  Biso   1.000  O
  O101     1.0000 0.00980  0.69280  0.66300  Biso   1.000  O
  O102     1.0000 0.83718  0.64246  0.73736  Biso   1.000  O
  O103     1.0000 0.84296  0.62165  0.77509  Biso   1.000  O
  O104     1.0000 0.71539  0.67086  0.74675  Biso   1.000  O
  O105     1.0000 0.63827  0.67922  0.71002  Biso   1.000  O
  C85      1.0000 0.91340  0.64590  0.71500  Biso   1.000  C
  C86      1.0000 0.92860  0.66220  0.69480  Biso   1.000  C
  C87      1.0000 0.95530  0.65940  0.69410  Biso   1.000  C
  C88      1.0000 0.82890  0.63350  0.75900  Biso   1.000  C
  C89      1.0000 0.80040  0.63900  0.76640  Biso   1.000  C
  C90      1.0000 0.78300  0.65048  0.74860  Biso   1.000  C
  O106     1.0000 0.88910  0.15008  0.21560  Biso   1.000  O
  O107     1.0000 0.92350  0.13130  0.23020  Biso   1.000  O
  O108     1.0000 0.00980  0.19280  0.16300  Biso   1.000  O
  O109     1.0000 0.83718  0.14246  0.23736  Biso   1.000  O
  O110     1.0000 0.84296  0.12165  0.27509  Biso   1.000  O
  O111     1.0000 0.71539  0.17086  0.24675  Biso   1.000  O
  O112     1.0000 0.63827  0.17922  0.21002  Biso   1.000  O
  C91      1.0000 0.91340  0.14590  0.21500  Biso   1.000  C
  C92      1.0000 0.92860  0.16220  0.19480  Biso   1.000  C
  C93      1.0000 0.95530  0.15940  0.19410  Biso   1.000  C
  C94      1.0000 0.82890  0.13350  0.25900  Biso   1.000  C
  C95      1.0000 0.80040  0.13900  0.26640  Biso   1.000  C
  C96      1.0000 0.78300  0.15048  0.24860  Biso   1.000  C
  O113     1.0000 0.03440  0.88910  0.09992  Biso   1.000  O
  O114     1.0000 0.01980  0.92350  0.11870  Biso   1.000  O
  O115     1.0000 0.08700  0.00980  0.05720  Biso   1.000  O
  O116     1.0000 0.01264  0.83718  0.10754  Biso   1.000  O
  O117     1.0000 0.97491  0.84296  0.12835  Biso   1.000  O
  O118     1.0000 0.00325  0.71539  0.07914  Biso   1.000  O
  O119     1.0000 0.03998  0.63827  0.07078  Biso   1.000  O
  C97      1.0000 0.03500  0.91340  0.10410  Biso   1.000  C
  C98      1.0000 0.05520  0.92860  0.08780  Biso   1.000  C
  C99      1.0000 0.05590  0.95530  0.09060  Biso   1.000  C
  C100     1.0000 0.99100  0.82890  0.11650  Biso   1.000  C
  C101     1.0000 0.98360  0.80040  0.11100  Biso   1.000  C
  C102     1.0000 0.00140  0.78300  0.09952  Biso   1.000  C
  O120     1.0000 0.03440  0.38910  0.59992  Biso   1.000  O
  O121     1.0000 0.01980  0.42350  0.61870  Biso   1.000  O
  O122     1.0000 0.08700  0.50980  0.55720  Biso   1.000  O
  O123     1.0000 0.01264  0.33718  0.60754  Biso   1.000  O
  O124     1.0000 0.97491  0.34296  0.62835  Biso   1.000  O
  O125     1.0000 0.00325  0.21539  0.57914  Biso   1.000  O
  O126     1.0000 0.03998  0.13827  0.57078  Biso   1.000  O
  C103     1.0000 0.03500  0.41340  0.60410  Biso   1.000  C
  C104     1.0000 0.05520  0.42860  0.58780  Biso   1.000  C
  C105     1.0000 0.05590  0.45530  0.59060  Biso   1.000  C
  C106     1.0000 0.99100  0.32890  0.61650  Biso   1.000  C
  C107     1.0000 0.98360  0.30040  0.61100  Biso   1.000  C
  C108     1.0000 0.00140  0.28300  0.59952  Biso   1.000  C
  O127     1.0000 0.53440  0.88910  0.59992  Biso   1.000  O
  O128     1.0000 0.51980  0.92350  0.61870  Biso   1.000  O
  O129     1.0000 0.58700  0.00980  0.55720  Biso   1.000  O
  O130     1.0000 0.51264  0.83718  0.60754  Biso   1.000  O
  O131     1.0000 0.47491  0.84296  0.62835  Biso   1.000  O
  O132     1.0000 0.50325  0.71539  0.57914  Biso   1.000  O
  O133     1.0000 0.53998  0.63827  0.57078  Biso   1.000  O
  C109     1.0000 0.53500  0.91340  0.60410  Biso   1.000  C
  C110     1.0000 0.55520  0.92860  0.58780  Biso   1.000  C
  C111     1.0000 0.55590  0.95530  0.59060  Biso   1.000  C
  C112     1.0000 0.49100  0.82890  0.61650  Biso   1.000  C
  C113     1.0000 0.48360  0.80040  0.61100  Biso   1.000  C
  C114     1.0000 0.50140  0.78300  0.59952  Biso   1.000  C
  O134     1.0000 0.53440  0.38910  0.09992  Biso   1.000  O
  O135     1.0000 0.51980  0.42350  0.11870  Biso   1.000  O
  O136     1.0000 0.58700  0.50980  0.05720  Biso   1.000  O
  O137     1.0000 0.51264  0.33718  0.10754  Biso   1.000  O
  O138     1.0000 0.47491  0.34296  0.12835  Biso   1.000  O
  O139     1.0000 0.50325  0.21539  0.07914  Biso   1.000  O
  O140     1.0000 0.53998  0.13827  0.07078  Biso   1.000  O
  C115     1.0000 0.53500  0.41340  0.10410  Biso   1.000  C
  C116     1.0000 0.55520  0.42860  0.08780  Biso   1.000  C
  C117     1.0000 0.55590  0.45530  0.09060  Biso   1.000  C
  C118     1.0000 0.49100  0.32890  0.11650  Biso   1.000  C
  C119     1.0000 0.48360  0.30040  0.11100  Biso   1.000  C
  C120     1.0000 0.50140  0.28300  0.09952  Biso   1.000  C
  O141     1.0000 0.53440  0.86090  0.15008  Biso   1.000  O
  O142     1.0000 0.51980  0.82650  0.13130  Biso   1.000  O
  O143     1.0000 0.58700  0.74020  0.19280  Biso   1.000  O
  O144     1.0000 0.51264  0.91282  0.14246  Biso   1.000  O
  O145     1.0000 0.47491  0.90704  0.12165  Biso   1.000  O
  O146     1.0000 0.50325  0.03461  0.17086  Biso   1.000  O
  O147     1.0000 0.53998  0.11173  0.17922  Biso   1.000  O
  C121     1.0000 0.53500  0.83660  0.14590  Biso   1.000  C
  C122     1.0000 0.55520  0.82140  0.16220  Biso   1.000  C
  C123     1.0000 0.55590  0.79470  0.15940  Biso   1.000  C
  C124     1.0000 0.49100  0.92110  0.13350  Biso   1.000  C
  C125     1.0000 0.48360  0.94960  0.13900  Biso   1.000  C
  C126     1.0000 0.50140  0.96700  0.15048  Biso   1.000  C
  O148     1.0000 0.53440  0.36090  0.65008  Biso   1.000  O
  O149     1.0000 0.51980  0.32650  0.63130  Biso   1.000  O
  O150     1.0000 0.58700  0.24020  0.69280  Biso   1.000  O
  O151     1.0000 0.51264  0.41282  0.64246  Biso   1.000  O
  O152     1.0000 0.47491  0.40704  0.62165  Biso   1.000  O
  O153     1.0000 0.50325  0.53461  0.67086  Biso   1.000  O
  O154     1.0000 0.53998  0.61173  0.67922  Biso   1.000  O
  C127     1.0000 0.53500  0.33660  0.64590  Biso   1.000  C
  C128     1.0000 0.55520  0.32140  0.66220  Biso   1.000  C
  C129     1.0000 0.55590  0.29470  0.65940  Biso   1.000  C
  C130     1.0000 0.49100  0.42110  0.63350  Biso   1.000  C
  C131     1.0000 0.48360  0.44960  0.63900  Biso   1.000  C
  C132     1.0000 0.50140  0.46700  0.65048  Biso   1.000  C
  O155     1.0000 0.03440  0.86090  0.65008  Biso   1.000  O
  O156     1.0000 0.01980  0.82650  0.63130  Biso   1.000  O
  O157     1.0000 0.08700  0.74020  0.69280  Biso   1.000  O
  O158     1.0000 0.01264  0.91282  0.64246  Biso   1.000  O
  O159     1.0000 0.97491  0.90704  0.62165  Biso   1.000  O
  O160     1.0000 0.00325  0.03461  0.67086  Biso   1.000  O
  O161     1.0000 0.03998  0.11173  0.67922  Biso   1.000  O
  C133     1.0000 0.03500  0.83660  0.64590  Biso   1.000  C
  C134     1.0000 0.05520  0.82140  0.66220  Biso   1.000  C
  C135     1.0000 0.05590  0.79470  0.65940  Biso   1.000  C
  C136     1.0000 0.99100  0.92110  0.63350  Biso   1.000  C
  C137     1.0000 0.98360  0.94960  0.63900  Biso   1.000  C
  C138     1.0000 0.00140  0.96700  0.65048  Biso   1.000  C
  O162     1.0000 0.03440  0.36090  0.15008  Biso   1.000  O
  O163     1.0000 0.01980  0.32650  0.13130  Biso   1.000  O
  O164     1.0000 0.08700  0.24020  0.19280  Biso   1.000  O
  O165     1.0000 0.01264  0.41282  0.14246  Biso   1.000  O
  O166     1.0000 0.97491  0.40704  0.12165  Biso   1.000  O
  O167     1.0000 0.00325  0.53461  0.17086  Biso   1.000  O
  O168     1.0000 0.03998  0.61173  0.17922  Biso   1.000  O
  C139     1.0000 0.03500  0.33660  0.14590  Biso   1.000  C
  C140     1.0000 0.05520  0.32140  0.16220  Biso   1.000  C
  C141     1.0000 0.05590  0.29470  0.15940  Biso   1.000  C
  C142     1.0000 0.99100  0.42110  0.13350  Biso   1.000  C
  C143     1.0000 0.98360  0.44960  0.13900  Biso   1.000  C
  C144     1.0000 0.00140  0.46700  0.15048  Biso   1.000  C
  O169     1.0000 0.71560  0.36090  0.59992  Biso   1.000  O
  O170     1.0000 0.73020  0.32650  0.61870  Biso   1.000  O
  O171     1.0000 0.66300  0.24020  0.55720  Biso   1.000  O
  O172     1.0000 0.73736  0.41282  0.60754  Biso   1.000  O
  O173     1.0000 0.77509  0.40704  0.62835  Biso   1.000  O
  O174     1.0000 0.74675  0.53461  0.57914  Biso   1.000  O
  O175     1.0000 0.71002  0.61173  0.57078  Biso   1.000  O
  C145     1.0000 0.71500  0.33660  0.60410  Biso   1.000  C
  C146     1.0000 0.69480  0.32140  0.58780  Biso   1.000  C
  C147     1.0000 0.69410  0.29470  0.59060  Biso   1.000  C
  C148     1.0000 0.75900  0.42110  0.61650  Biso   1.000  C
  C149     1.0000 0.76640  0.44960  0.61100  Biso   1.000  C
  C150     1.0000 0.74860  0.46700  0.59952  Biso   1.000  C
  O176     1.0000 0.71560  0.86090  0.09992  Biso   1.000  O
  O177     1.0000 0.73020  0.82650  0.11870  Biso   1.000  O
  O178     1.0000 0.66300  0.74020  0.05720  Biso   1.000  O
  O179     1.0000 0.73736  0.91282  0.10754  Biso   1.000  O
  O180     1.0000 0.77509  0.90704  0.12835  Biso   1.000  O
  O181     1.0000 0.74675  0.03461  0.07914  Biso   1.000  O
  O182     1.0000 0.71002  0.11173  0.07078  Biso   1.000  O
  C151     1.0000 0.71500  0.83660  0.10410  Biso   1.000  C
  C152     1.0000 0.69480  0.82140  0.08780  Biso   1.000  C
  C153     1.0000 0.69410  0.79470  0.09060  Biso   1.000  C
  C154     1.0000 0.75900  0.92110  0.11650  Biso   1.000  C
  C155     1.0000 0.76640  0.94960  0.11100  Biso   1.000  C
  C156     1.0000 0.74860  0.96700  0.09952  Biso   1.000  C
  O183     1.0000 0.21560  0.36090  0.09992  Biso   1.000  O
  O184     1.0000 0.23020  0.32650  0.11870  Biso   1.000  O
  O185     1.0000 0.16300  0.24020  0.05720  Biso   1.000  O
  O186     1.0000 0.23736  0.41282  0.10754  Biso   1.000  O
  O187     1.0000 0.27509  0.40704  0.12835  Biso   1.000  O
  O188     1.0000 0.24675  0.53461  0.07914  Biso   1.000  O
  O189     1.0000 0.21002  0.61173  0.07078  Biso   1.000  O
  C157     1.0000 0.21500  0.33660  0.10410  Biso   1.000  C
  C158     1.0000 0.19480  0.32140  0.08780  Biso   1.000  C
  C159     1.0000 0.19410  0.29470  0.09060  Biso   1.000  C
  C160     1.0000 0.25900  0.42110  0.11650  Biso   1.000  C
  C161     1.0000 0.26640  0.44960  0.11100  Biso   1.000  C
  C162     1.0000 0.24860  0.46700  0.09952  Biso   1.000  C
  O190     1.0000 0.21560  0.86090  0.59992  Biso   1.000  O
  O191     1.0000 0.23020  0.82650  0.61870  Biso   1.000  O
  O192     1.0000 0.16300  0.74020  0.55720  Biso   1.000  O
  O193     1.0000 0.23736  0.91282  0.60754  Biso   1.000  O
  O194     1.0000 0.27509  0.90704  0.62835  Biso   1.000  O
  O195     1.0000 0.24675  0.03461  0.57914  Biso   1.000  O
  O196     1.0000 0.21002  0.11173  0.57078  Biso   1.000  O
  C163     1.0000 0.21500  0.83660  0.60410  Biso   1.000  C
  C164     1.0000 0.19480  0.82140  0.58780  Biso   1.000  C
  C165     1.0000 0.19410  0.79470  0.59060  Biso   1.000  C
  C166     1.0000 0.25900  0.92110  0.61650  Biso   1.000  C
  C167     1.0000 0.26640  0.94960  0.61100  Biso   1.000  C
  C168     1.0000 0.24860  0.96700  0.59952  Biso   1.000  C
  O197     1.0000 0.21560  0.38910  0.65008  Biso   1.000  O
  O198     1.0000 0.23020  0.42350  0.63130  Biso   1.000  O
  O199     1.0000 0.16300  0.50980  0.69280  Biso   1.000  O
  O200     1.0000 0.23736  0.33718  0.64246  Biso   1.000  O
  O201     1.0000 0.27509  0.34296  0.62165  Biso   1.000  O
  O202     1.0000 0.24675  0.21539  0.67086  Biso   1.000  O
  O203     1.0000 0.21002  0.13827  0.67922  Biso   1.000  O
  C169     1.0000 0.21500  0.41340  0.64590  Biso   1.000  C
  C170     1.0000 0.19480  0.42860  0.66220  Biso   1.000  C
  C171     1.0000 0.19410  0.45530  0.65940  Biso   1.000  C
  C172     1.0000 0.25900  0.32890  0.63350  Biso   1.000  C
  C173     1.0000 0.26640  0.30040  0.63900  Biso   1.000  C
  C174     1.0000 0.24860  0.28300  0.65048  Biso   1.000  C
  O204     1.0000 0.21560  0.88910  0.15008  Biso   1.000  O
  O205     1.0000 0.23020  0.92350  0.13130  Biso   1.000  O
  O206     1.0000 0.16300  0.00980  0.19280  Biso   1.000  O
  O207     1.0000 0.23736  0.83718  0.14246  Biso   1.000  O
  O208     1.0000 0.27509  0.84296  0.12165  Biso   1.000  O
  O209     1.0000 0.24675  0.71539  0.17086  Biso   1.000  O
  O210     1.0000 0.21002  0.63827  0.17922  Biso   1.000  O
  C175     1.0000 0.21500  0.91340  0.14590  Biso   1.000  C
  C176     1.0000 0.19480  0.92860  0.16220  Biso   1.000  C
  C177     1.0000 0.19410  0.95530  0.15940  Biso   1.000  C
  C178     1.0000 0.25900  0.82890  0.13350  Biso   1.000  C
  C179     1.0000 0.26640  0.80040  0.13900  Biso   1.000  C
  C180     1.0000 0.24860  0.78300  0.15048  Biso   1.000  C
  O211     1.0000 0.71560  0.38910  0.15008  Biso   1.000  O
  O212     1.0000 0.73020  0.42350  0.13130  Biso   1.000  O
  O213     1.0000 0.66300  0.50980  0.19280  Biso   1.000  O
  O214     1.0000 0.73736  0.33718  0.14246  Biso   1.000  O
  O215     1.0000 0.77509  0.34296  0.12165  Biso   1.000  O
  O216     1.0000 0.74675  0.21539  0.17086  Biso   1.000  O
  O217     1.0000 0.71002  0.13827  0.17922  Biso   1.000  O
  C181     1.0000 0.71500  0.41340  0.14590  Biso   1.000  C
  C182     1.0000 0.69480  0.42860  0.16220  Biso   1.000  C
  C183     1.0000 0.69410  0.45530  0.15940  Biso   1.000  C
  C184     1.0000 0.75900  0.32890  0.13350  Biso   1.000  C
  C185     1.0000 0.76640  0.30040  0.13900  Biso   1.000  C
  C186     1.0000 0.74860  0.28300  0.15048  Biso   1.000  C
  O218     1.0000 0.71560  0.88910  0.65008  Biso   1.000  O
  O219     1.0000 0.73020  0.92350  0.63130  Biso   1.000  O
  O220     1.0000 0.66300  0.00980  0.69280  Biso   1.000  O
  O221     1.0000 0.73736  0.83718  0.64246  Biso   1.000  O
  O222     1.0000 0.77509  0.84296  0.62165  Biso   1.000  O
  O223     1.0000 0.74675  0.71539  0.67086  Biso   1.000  O
  O224     1.0000 0.71002  0.63827  0.67922  Biso   1.000  O
  C187     1.0000 0.71500  0.91340  0.64590  Biso   1.000  C
  C188     1.0000 0.69480  0.92860  0.66220  Biso   1.000  C
  C189     1.0000 0.69410  0.95530  0.65940  Biso   1.000  C
  C190     1.0000 0.75900  0.82890  0.63350  Biso   1.000  C
  C191     1.0000 0.76640  0.80040  0.63900  Biso   1.000  C
  C192     1.0000 0.74860  0.78300  0.65048  Biso   1.000  C
  O225     1.0000 0.09992  0.03440  0.88910  Biso   1.000  O
  O226     1.0000 0.11870  0.01980  0.92350  Biso   1.000  O
  O227     1.0000 0.05720  0.08700  0.00980  Biso   1.000  O
  O228     1.0000 0.10754  0.01264  0.83718  Biso   1.000  O
  O229     1.0000 0.12835  0.97491  0.84296  Biso   1.000  O
  O230     1.0000 0.07914  0.00325  0.71539  Biso   1.000  O
  O231     1.0000 0.07078  0.03998  0.63827  Biso   1.000  O
  C193     1.0000 0.10410  0.03500  0.91340  Biso   1.000  C
  C194     1.0000 0.08780  0.05520  0.92860  Biso   1.000  C
  C195     1.0000 0.09060  0.05590  0.95530  Biso   1.000  C
  C196     1.0000 0.11650  0.99100  0.82890  Biso   1.000  C
  C197     1.0000 0.11100  0.98360  0.80040  Biso   1.000  C
  C198     1.0000 0.09952  0.00140  0.78300  Biso   1.000  C
  O232     1.0000 0.09992  0.53440  0.38910  Biso   1.000  O
  O233     1.0000 0.11870  0.51980  0.42350  Biso   1.000  O
  O234     1.0000 0.05720  0.58700  0.50980  Biso   1.000  O
  O235     1.0000 0.10754  0.51264  0.33718  Biso   1.000  O
  O236     1.0000 0.12835  0.47491  0.34296  Biso   1.000  O
  O237     1.0000 0.07914  0.50325  0.21539  Biso   1.000  O
  O238     1.0000 0.07078  0.53998  0.13827  Biso   1.000  O
  C199     1.0000 0.10410  0.53500  0.41340  Biso   1.000  C
  C200     1.0000 0.08780  0.55520  0.42860  Biso   1.000  C
  C201     1.0000 0.09060  0.55590  0.45530  Biso   1.000  C
  C202     1.0000 0.11650  0.49100  0.32890  Biso   1.000  C
  C203     1.0000 0.11100  0.48360  0.30040  Biso   1.000  C
  C204     1.0000 0.09952  0.50140  0.28300  Biso   1.000  C
  O239     1.0000 0.59992  0.03440  0.38910  Biso   1.000  O
  O240     1.0000 0.61870  0.01980  0.42350  Biso   1.000  O
  O241     1.0000 0.55720  0.08700  0.50980  Biso   1.000  O
  O242     1.0000 0.60754  0.01264  0.33718  Biso   1.000  O
  O243     1.0000 0.62835  0.97491  0.34296  Biso   1.000  O
  O244     1.0000 0.57914  0.00325  0.21539  Biso   1.000  O
  O245     1.0000 0.57078  0.03998  0.13827  Biso   1.000  O
  C205     1.0000 0.60410  0.03500  0.41340  Biso   1.000  C
  C206     1.0000 0.58780  0.05520  0.42860  Biso   1.000  C
  C207     1.0000 0.59060  0.05590  0.45530  Biso   1.000  C
  C208     1.0000 0.61650  0.99100  0.32890  Biso   1.000  C
  C209     1.0000 0.61100  0.98360  0.30040  Biso   1.000  C
  C210     1.0000 0.59952  0.00140  0.28300  Biso   1.000  C
  O246     1.0000 0.59992  0.53440  0.88910  Biso   1.000  O
  O247     1.0000 0.61870  0.51980  0.92350  Biso   1.000  O
  O248     1.0000 0.55720  0.58700  0.00980  Biso   1.000  O
  O249     1.0000 0.60754  0.51264  0.83718  Biso   1.000  O
  O250     1.0000 0.62835  0.47491  0.84296  Biso   1.000  O
  O251     1.0000 0.57914  0.50325  0.71539  Biso   1.000  O
  O252     1.0000 0.57078  0.53998  0.63827  Biso   1.000  O
  C211     1.0000 0.60410  0.53500  0.91340  Biso   1.000  C
  C212     1.0000 0.58780  0.55520  0.92860  Biso   1.000  C
  C213     1.0000 0.59060  0.55590  0.95530  Biso   1.000  C
  C214     1.0000 0.61650  0.49100  0.82890  Biso   1.000  C
  C215     1.0000 0.61100  0.48360  0.80040  Biso   1.000  C
  C216     1.0000 0.59952  0.50140  0.78300  Biso   1.000  C
  O253     1.0000 0.15008  0.53440  0.86090  Biso   1.000  O
  O254     1.0000 0.13130  0.51980  0.82650  Biso   1.000  O
  O255     1.0000 0.19280  0.58700  0.74020  Biso   1.000  O
  O256     1.0000 0.14246  0.51264  0.91282  Biso   1.000  O
  O257     1.0000 0.12165  0.47491  0.90704  Biso   1.000  O
  O258     1.0000 0.17086  0.50325  0.03461  Biso   1.000  O
  O259     1.0000 0.17922  0.53998  0.11173  Biso   1.000  O
  C217     1.0000 0.14590  0.53500  0.83660  Biso   1.000  C
  C218     1.0000 0.16220  0.55520  0.82140  Biso   1.000  C
  C219     1.0000 0.15940  0.55590  0.79470  Biso   1.000  C
  C220     1.0000 0.13350  0.49100  0.92110  Biso   1.000  C
  C221     1.0000 0.13900  0.48360  0.94960  Biso   1.000  C
  C222     1.0000 0.15048  0.50140  0.96700  Biso   1.000  C
  O260     1.0000 0.15008  0.03440  0.36090  Biso   1.000  O
  O261     1.0000 0.13130  0.01980  0.32650  Biso   1.000  O
  O262     1.0000 0.19280  0.08700  0.24020  Biso   1.000  O
  O263     1.0000 0.14246  0.01264  0.41282  Biso   1.000  O
  O264     1.0000 0.12165  0.97491  0.40704  Biso   1.000  O
  O265     1.0000 0.17086  0.00325  0.53461  Biso   1.000  O
  O266     1.0000 0.17922  0.03998  0.61173  Biso   1.000  O
  C223     1.0000 0.14590  0.03500  0.33660  Biso   1.000  C
  C224     1.0000 0.16220  0.05520  0.32140  Biso   1.000  C
  C225     1.0000 0.15940  0.05590  0.29470  Biso   1.000  C
  C226     1.0000 0.13350  0.99100  0.42110  Biso   1.000  C
  C227     1.0000 0.13900  0.98360  0.44960  Biso   1.000  C
  C228     1.0000 0.15048  0.00140  0.46700  Biso   1.000  C
  O267     1.0000 0.65008  0.53440  0.36090  Biso   1.000  O
  O268     1.0000 0.63130  0.51980  0.32650  Biso   1.000  O
  O269     1.0000 0.69280  0.58700  0.24020  Biso   1.000  O
  O270     1.0000 0.64246  0.51264  0.41282  Biso   1.000  O
  O271     1.0000 0.62165  0.47491  0.40704  Biso   1.000  O
  O272     1.0000 0.67086  0.50325  0.53461  Biso   1.000  O
  O273     1.0000 0.67922  0.53998  0.61173  Biso   1.000  O
  C229     1.0000 0.64590  0.53500  0.33660  Biso   1.000  C
  C230     1.0000 0.66220  0.55520  0.32140  Biso   1.000  C
  C231     1.0000 0.65940  0.55590  0.29470  Biso   1.000  C
  C232     1.0000 0.63350  0.49100  0.42110  Biso   1.000  C
  C233     1.0000 0.63900  0.48360  0.44960  Biso   1.000  C
  C234     1.0000 0.65048  0.50140  0.46700  Biso   1.000  C
  O274     1.0000 0.65008  0.03440  0.86090  Biso   1.000  O
  O275     1.0000 0.63130  0.01980  0.82650  Biso   1.000  O
  O276     1.0000 0.69280  0.08700  0.74020  Biso   1.000  O
  O277     1.0000 0.64246  0.01264  0.91282  Biso   1.000  O
  O278     1.0000 0.62165  0.97491  0.90704  Biso   1.000  O
  O279     1.0000 0.67086  0.00325  0.03461  Biso   1.000  O
  O280     1.0000 0.67922  0.03998  0.11173  Biso   1.000  O
  C235     1.0000 0.64590  0.03500  0.83660  Biso   1.000  C
  C236     1.0000 0.66220  0.05520  0.82140  Biso   1.000  C
  C237     1.0000 0.65940  0.05590  0.79470  Biso   1.000  C
  C238     1.0000 0.63350  0.99100  0.92110  Biso   1.000  C
  C239     1.0000 0.63900  0.98360  0.94960  Biso   1.000  C
  C240     1.0000 0.65048  0.00140  0.96700  Biso   1.000  C
  O281     1.0000 0.59992  0.71560  0.36090  Biso   1.000  O
  O282     1.0000 0.61870  0.73020  0.32650  Biso   1.000  O
  O283     1.0000 0.55720  0.66300  0.24020  Biso   1.000  O
  O284     1.0000 0.60754  0.73736  0.41282  Biso   1.000  O
  O285     1.0000 0.62835  0.77509  0.40704  Biso   1.000  O
  O286     1.0000 0.57914  0.74675  0.53461  Biso   1.000  O
  O287     1.0000 0.57078  0.71002  0.61173  Biso   1.000  O
  C241     1.0000 0.60410  0.71500  0.33660  Biso   1.000  C
  C242     1.0000 0.58780  0.69480  0.32140  Biso   1.000  C
  C243     1.0000 0.59060  0.69410  0.29470  Biso   1.000  C
  C244     1.0000 0.61650  0.75900  0.42110  Biso   1.000  C
  C245     1.0000 0.61100  0.76640  0.44960  Biso   1.000  C
  C246     1.0000 0.59952  0.74860  0.46700  Biso   1.000  C
  O288     1.0000 0.59992  0.21560  0.86090  Biso   1.000  O
  O289     1.0000 0.61870  0.23020  0.82650  Biso   1.000  O
  O290     1.0000 0.55720  0.16300  0.74020  Biso   1.000  O
  O291     1.0000 0.60754  0.23736  0.91282  Biso   1.000  O
  O292     1.0000 0.62835  0.27509  0.90704  Biso   1.000  O
  O293     1.0000 0.57914  0.24675  0.03461  Biso   1.000  O
  O294     1.0000 0.57078  0.21002  0.11173  Biso   1.000  O
  C247     1.0000 0.60410  0.21500  0.83660  Biso   1.000  C
  C248     1.0000 0.58780  0.19480  0.82140  Biso   1.000  C
  C249     1.0000 0.59060  0.19410  0.79470  Biso   1.000  C
  C250     1.0000 0.61650  0.25900  0.92110  Biso   1.000  C
  C251     1.0000 0.61100  0.26640  0.94960  Biso   1.000  C
  C252     1.0000 0.59952  0.24860  0.96700  Biso   1.000  C
  O295     1.0000 0.09992  0.71560  0.86090  Biso   1.000  O
  O296     1.0000 0.11870  0.73020  0.82650  Biso   1.000  O
  O297     1.0000 0.05720  0.66300  0.74020  Biso   1.000  O
  O298     1.0000 0.10754  0.73736  0.91282  Biso   1.000  O
  O299     1.0000 0.12835  0.77509  0.90704  Biso   1.000  O
  O300     1.0000 0.07914  0.74675  0.03461  Biso   1.000  O
  O301     1.0000 0.07078  0.71002  0.11173  Biso   1.000  O
  C253     1.0000 0.10410  0.71500  0.83660  Biso   1.000  C
  C254     1.0000 0.08780  0.69480  0.82140  Biso   1.000  C
  C255     1.0000 0.09060  0.69410  0.79470  Biso   1.000  C
  C256     1.0000 0.11650  0.75900  0.92110  Biso   1.000  C
  C257     1.0000 0.11100  0.76640  0.94960  Biso   1.000  C
  C258     1.0000 0.09952  0.74860  0.96700  Biso   1.000  C
  O302     1.0000 0.09992  0.21560  0.36090  Biso   1.000  O
  O303     1.0000 0.11870  0.23020  0.32650  Biso   1.000  O
  O304     1.0000 0.05720  0.16300  0.24020  Biso   1.000  O
  O305     1.0000 0.10754  0.23736  0.41282  Biso   1.000  O
  O306     1.0000 0.12835  0.27509  0.40704  Biso   1.000  O
  O307     1.0000 0.07914  0.24675  0.53461  Biso   1.000  O
  O308     1.0000 0.07078  0.21002  0.61173  Biso   1.000  O
  C259     1.0000 0.10410  0.21500  0.33660  Biso   1.000  C
  C260     1.0000 0.08780  0.19480  0.32140  Biso   1.000  C
  C261     1.0000 0.09060  0.19410  0.29470  Biso   1.000  C
  C262     1.0000 0.11650  0.25900  0.42110  Biso   1.000  C
  C263     1.0000 0.11100  0.26640  0.44960  Biso   1.000  C
  C264     1.0000 0.09952  0.24860  0.46700  Biso   1.000  C
  O309     1.0000 0.65008  0.21560  0.38910  Biso   1.000  O
  O310     1.0000 0.63130  0.23020  0.42350  Biso   1.000  O
  O311     1.0000 0.69280  0.16300  0.50980  Biso   1.000  O
  O312     1.0000 0.64246  0.23736  0.33718  Biso   1.000  O
  O313     1.0000 0.62165  0.27509  0.34296  Biso   1.000  O
  O314     1.0000 0.67086  0.24675  0.21539  Biso   1.000  O
  O315     1.0000 0.67922  0.21002  0.13827  Biso   1.000  O
  C265     1.0000 0.64590  0.21500  0.41340  Biso   1.000  C
  C266     1.0000 0.66220  0.19480  0.42860  Biso   1.000  C
  C267     1.0000 0.65940  0.19410  0.45530  Biso   1.000  C
  C268     1.0000 0.63350  0.25900  0.32890  Biso   1.000  C
  C269     1.0000 0.63900  0.26640  0.30040  Biso   1.000  C
  C270     1.0000 0.65048  0.24860  0.28300  Biso   1.000  C
  O316     1.0000 0.65008  0.71560  0.88910  Biso   1.000  O
  O317     1.0000 0.63130  0.73020  0.92350  Biso   1.000  O
  O318     1.0000 0.69280  0.66300  0.00980  Biso   1.000  O
  O319     1.0000 0.64246  0.73736  0.83718  Biso   1.000  O
  O320     1.0000 0.62165  0.77509  0.84296  Biso   1.000  O
  O321     1.0000 0.67086  0.74675  0.71539  Biso   1.000  O
  O322     1.0000 0.67922  0.71002  0.63827  Biso   1.000  O
  C271     1.0000 0.64590  0.71500  0.91340  Biso   1.000  C
  C272     1.0000 0.66220  0.69480  0.92860  Biso   1.000  C
  C273     1.0000 0.65940  0.69410  0.95530  Biso   1.000  C
  C274     1.0000 0.63350  0.75900  0.82890  Biso   1.000  C
  C275     1.0000 0.63900  0.76640  0.80040  Biso   1.000  C
  C276     1.0000 0.65048  0.74860  0.78300  Biso   1.000  C
  O323     1.0000 0.15008  0.21560  0.88910  Biso   1.000  O
  O324     1.0000 0.13130  0.23020  0.92350  Biso   1.000  O
  O325     1.0000 0.19280  0.16300  0.00980  Biso   1.000  O
  O326     1.0000 0.14246  0.23736  0.83718  Biso   1.000  O
  O327     1.0000 0.12165  0.27509  0.84296  Biso   1.000  O
  O328     1.0000 0.17086  0.24675  0.71539  Biso   1.000  O
  O329     1.0000 0.17922  0.21002  0.63827  Biso   1.000  O
  C277     1.0000 0.14590  0.21500  0.91340  Biso   1.000  C
  C278     1.0000 0.16220  0.19480  0.92860  Biso   1.000  C
  C279     1.0000 0.15940  0.19410  0.95530  Biso   1.000  C
  C280     1.0000 0.13350  0.25900  0.82890  Biso   1.000  C
  C281     1.0000 0.13900  0.26640  0.80040  Biso   1.000  C
  C282     1.0000 0.15048  0.24860  0.78300  Biso   1.000  C
  O330     1.0000 0.15008  0.71560  0.38910  Biso   1.000  O
  O331     1.0000 0.13130  0.73020  0.42350  Biso   1.000  O
  O332     1.0000 0.19280  0.66300  0.50980  Biso   1.000  O
  O333     1.0000 0.14246  0.73736  0.33718  Biso   1.000  O
  O334     1.0000 0.12165  0.77509  0.34296  Biso   1.000  O
  O335     1.0000 0.17086  0.74675  0.21539  Biso   1.000  O
  O336     1.0000 0.17922  0.71002  0.13827  Biso   1.000  O
  C283     1.0000 0.14590  0.71500  0.41340  Biso   1.000  C
  C284     1.0000 0.16220  0.69480  0.42860  Biso   1.000  C
  C285     1.0000 0.15940  0.69410  0.45530  Biso   1.000  C
  C286     1.0000 0.13350  0.75900  0.32890  Biso   1.000  C
  C287     1.0000 0.13900  0.76640  0.30040  Biso   1.000  C
  C288     1.0000 0.15048  0.74860  0.28300  Biso   1.000  C
  O337     1.0000 0.84992  0.13910  0.46560  Biso   1.000  O
  O338     1.0000 0.86870  0.17350  0.48020  Biso   1.000  O
  O339     1.0000 0.80720  0.25980  0.41300  Biso   1.000  O
  O340     1.0000 0.85754  0.08718  0.48736  Biso   1.000  O
  O341     1.0000 0.87835  0.09296  0.52509  Biso   1.000  O
  O342     1.0000 0.82914  0.96539  0.49675  Biso   1.000  O
  O343     1.0000 0.82078  0.88827  0.46002  Biso   1.000  O
  C289     1.0000 0.85410  0.16340  0.46500  Biso   1.000  C
  C290     1.0000 0.83780  0.17860  0.44480  Biso   1.000  C
  C291     1.0000 0.84060  0.20530  0.44410  Biso   1.000  C
  C292     1.0000 0.86650  0.07890  0.50900  Biso   1.000  C
  C293     1.0000 0.86100  0.05040  0.51640  Biso   1.000  C
  C294     1.0000 0.84952  0.03300  0.49860  Biso   1.000  C
  O344     1.0000 0.84992  0.63910  0.96560  Biso   1.000  O
  O345     1.0000 0.86870  0.67350  0.98020  Biso   1.000  O
  O346     1.0000 0.80720  0.75980  0.91300  Biso   1.000  O
  O347     1.0000 0.85754  0.58718  0.98736  Biso   1.000  O
  O348     1.0000 0.87835  0.59296  0.02509  Biso   1.000  O
  O349     1.0000 0.82914  0.46539  0.99675  Biso   1.000  O
  O350     1.0000 0.82078  0.38827  0.96002  Biso   1.000  O
  C295     1.0000 0.85410  0.66340  0.96500  Biso   1.000  C
  C296     1.0000 0.83780  0.67860  0.94480  Biso   1.000  C
  C297     1.0000 0.84060  0.70530  0.94410  Biso   1.000  C
  C298     1.0000 0.86650  0.57890  0.00900  Biso   1.000  C
  C299     1.0000 0.86100  0.55040  0.01640  Biso   1.000  C
  C300     1.0000 0.84952  0.53300  0.99860  Biso   1.000  C
  O351     1.0000 0.34992  0.13910  0.96560  Biso   1.000  O
  O352     1.0000 0.36870  0.17350  0.98020  Biso   1.000  O
  O353     1.0000 0.30720  0.25980  0.91300  Biso   1.000  O
  O354     1.0000 0.35754  0.08718  0.98736  Biso   1.000  O
  O355     1.0000 0.37835  0.09296  0.02509  Biso   1.000  O
  O356     1.0000 0.32914  0.96539  0.99675  Biso   1.000  O
  O357     1.0000 0.32078  0.88827  0.96002  Biso   1.000  O
  C301     1.0000 0.35410  0.16340  0.96500  Biso   1.000  C
  C302     1.0000 0.33780  0.17860  0.94480  Biso   1.000  C
  C303     1.0000 0.34060  0.20530  0.94410  Biso   1.000  C
  C304     1.0000 0.36650  0.07890  0.00900  Biso   1.000  C
  C305     1.0000 0.36100  0.05040  0.01640  Biso   1.000  C
  C306     1.0000 0.34952  0.03300  0.99860  Biso   1.000  C
  O358     1.0000 0.34992  0.63910  0.46560  Biso   1.000  O
  O359     1.0000 0.36870  0.67350  0.48020  Biso   1.000  O
  O360     1.0000 0.30720  0.75980  0.41300  Biso   1.000  O
  O361     1.0000 0.35754  0.58718  0.48736  Biso   1.000  O
  O362     1.0000 0.37835  0.59296  0.52509  Biso   1.000  O
  O363     1.0000 0.32914  0.46539  0.49675  Biso   1.000  O
  O364     1.0000 0.32078  0.38827  0.46002  Biso   1.000  O
  C307     1.0000 0.35410  0.66340  0.46500  Biso   1.000  C
  C308     1.0000 0.33780  0.67860  0.44480  Biso   1.000  C
  C309     1.0000 0.34060  0.70530  0.44410  Biso   1.000  C
  C310     1.0000 0.36650  0.57890  0.50900  Biso   1.000  C
  C311     1.0000 0.36100  0.55040  0.51640  Biso   1.000  C
  C312     1.0000 0.34952  0.53300  0.49860  Biso   1.000  C
  O365     1.0000 0.90008  0.11090  0.96560  Biso   1.000  O
  O366     1.0000 0.88130  0.07650  0.98020  Biso   1.000  O
  O367     1.0000 0.94280  0.99020  0.91300  Biso   1.000  O
  O368     1.0000 0.89246  0.16282  0.98736  Biso   1.000  O
  O369     1.0000 0.87165  0.15704  0.02509  Biso   1.000  O
  O370     1.0000 0.92086  0.28461  0.99675  Biso   1.000  O
  O371     1.0000 0.92922  0.36173  0.96002  Biso   1.000  O
  C313     1.0000 0.89590  0.08660  0.96500  Biso   1.000  C
  C314     1.0000 0.91220  0.07140  0.94480  Biso   1.000  C
  C315     1.0000 0.90940  0.04470  0.94410  Biso   1.000  C
  C316     1.0000 0.88350  0.17110  0.00900  Biso   1.000  C
  C317     1.0000 0.88900  0.19960  0.01640  Biso   1.000  C
  C318     1.0000 0.90048  0.21700  0.99860  Biso   1.000  C
  O372     1.0000 0.90008  0.61090  0.46560  Biso   1.000  O
  O373     1.0000 0.88130  0.57650  0.48020  Biso   1.000  O
  O374     1.0000 0.94280  0.49020  0.41300  Biso   1.000  O
  O375     1.0000 0.89246  0.66282  0.48736  Biso   1.000  O
  O376     1.0000 0.87165  0.65704  0.52509  Biso   1.000  O
  O377     1.0000 0.92086  0.78461  0.49675  Biso   1.000  O
  O378     1.0000 0.92922  0.86173  0.46002  Biso   1.000  O
  C319     1.0000 0.89590  0.58660  0.46500  Biso   1.000  C
  C320     1.0000 0.91220  0.57140  0.44480  Biso   1.000  C
  C321     1.0000 0.90940  0.54470  0.44410  Biso   1.000  C
  C322     1.0000 0.88350  0.67110  0.50900  Biso   1.000  C
  C323     1.0000 0.88900  0.69960  0.51640  Biso   1.000  C
  C324     1.0000 0.90048  0.71700  0.49860  Biso   1.000  C
  O379     1.0000 0.40008  0.11090  0.46560  Biso   1.000  O
  O380     1.0000 0.38130  0.07650  0.48020  Biso   1.000  O
  O381     1.0000 0.44280  0.99020  0.41300  Biso   1.000  O
  O382     1.0000 0.39246  0.16282  0.48736  Biso   1.000  O
  O383     1.0000 0.37165  0.15704  0.52509  Biso   1.000  O
  O384     1.0000 0.42086  0.28461  0.49675  Biso   1.000  O
  O385     1.0000 0.42922  0.36173  0.46002  Biso   1.000  O
  C325     1.0000 0.39590  0.08660  0.46500  Biso   1.000  C
  C326     1.0000 0.41220  0.07140  0.44480  Biso   1.000  C
  C327     1.0000 0.40940  0.04470  0.44410  Biso   1.000  C
  C328     1.0000 0.38350  0.17110  0.50900  Biso   1.000  C
  C329     1.0000 0.38900  0.19960  0.51640  Biso   1.000  C
  C330     1.0000 0.40048  0.21700  0.49860  Biso   1.000  C
  O386     1.0000 0.40008  0.61090  0.96560  Biso   1.000  O
  O387     1.0000 0.38130  0.57650  0.98020  Biso   1.000  O
  O388     1.0000 0.44280  0.49020  0.91300  Biso   1.000  O
  O389     1.0000 0.39246  0.66282  0.98736  Biso   1.000  O
  O390     1.0000 0.37165  0.65704  0.02509  Biso   1.000  O
  O391     1.0000 0.42086  0.78461  0.99675  Biso   1.000  O
  O392     1.0000 0.42922  0.86173  0.96002  Biso   1.000  O
  C331     1.0000 0.39590  0.58660  0.96500  Biso   1.000  C
  C332     1.0000 0.41220  0.57140  0.94480  Biso   1.000  C
  C333     1.0000 0.40940  0.54470  0.94410  Biso   1.000  C
  C334     1.0000 0.38350  0.67110  0.00900  Biso   1.000  C
  C335     1.0000 0.38900  0.69960  0.01640  Biso   1.000  C
  C336     1.0000 0.40048  0.71700  0.99860  Biso   1.000  C
  O393     1.0000 0.34992  0.61090  0.78440  Biso   1.000  O
  O394     1.0000 0.36870  0.57650  0.76980  Biso   1.000  O
  O395     1.0000 0.30720  0.49020  0.83700  Biso   1.000  O
  O396     1.0000 0.35754  0.66282  0.76264  Biso   1.000  O
  O397     1.0000 0.37835  0.65704  0.72491  Biso   1.000  O
  O398     1.0000 0.32914  0.78461  0.75325  Biso   1.000  O
  O399     1.0000 0.32078  0.86173  0.78998  Biso   1.000  O
  C337     1.0000 0.35410  0.58660  0.78500  Biso   1.000  C
  C338     1.0000 0.33780  0.57140  0.80520  Biso   1.000  C
  C339     1.0000 0.34060  0.54470  0.80590  Biso   1.000  C
  C340     1.0000 0.36650  0.67110  0.74100  Biso   1.000  C
  C341     1.0000 0.36100  0.69960  0.73360  Biso   1.000  C
  C342     1.0000 0.34952  0.71700  0.75140  Biso   1.000  C
  O400     1.0000 0.34992  0.11090  0.28440  Biso   1.000  O
  O401     1.0000 0.36870  0.07650  0.26980  Biso   1.000  O
  O402     1.0000 0.30720  0.99020  0.33700  Biso   1.000  O
  O403     1.0000 0.35754  0.16282  0.26264  Biso   1.000  O
  O404     1.0000 0.37835  0.15704  0.22491  Biso   1.000  O
  O405     1.0000 0.32914  0.28461  0.25325  Biso   1.000  O
  O406     1.0000 0.32078  0.36173  0.28998  Biso   1.000  O
  C343     1.0000 0.35410  0.08660  0.28500  Biso   1.000  C
  C344     1.0000 0.33780  0.07140  0.30520  Biso   1.000  C
  C345     1.0000 0.34060  0.04470  0.30590  Biso   1.000  C
  C346     1.0000 0.36650  0.17110  0.24100  Biso   1.000  C
  C347     1.0000 0.36100  0.19960  0.23360  Biso   1.000  C
  C348     1.0000 0.34952  0.21700  0.25140  Biso   1.000  C
  O407     1.0000 0.84992  0.61090  0.28440  Biso   1.000  O
  O408     1.0000 0.86870  0.57650  0.26980  Biso   1.000  O
  O409     1.0000 0.80720  0.49020  0.33700  Biso   1.000  O
  O410     1.0000 0.85754  0.66282  0.26264  Biso   1.000  O
  O411     1.0000 0.87835  0.65704  0.22491  Biso   1.000  O
  O412     1.0000 0.82914  0.78461  0.25325  Biso   1.000  O
  O413     1.0000 0.82078  0.86173  0.28998  Biso   1.000  O
  C349     1.0000 0.85410  0.58660  0.28500  Biso   1.000  C
  C350     1.0000 0.83780  0.57140  0.30520  Biso   1.000  C
  C351     1.0000 0.84060  0.54470  0.30590  Biso   1.000  C
  C352     1.0000 0.86650  0.67110  0.24100  Biso   1.000  C
  C353     1.0000 0.86100  0.69960  0.23360  Biso   1.000  C
  C354     1.0000 0.84952  0.71700  0.25140  Biso   1.000  C
  O414     1.0000 0.84992  0.11090  0.78440  Biso   1.000  O
  O415     1.0000 0.86870  0.07650  0.76980  Biso   1.000  O
  O416     1.0000 0.80720  0.99020  0.83700  Biso   1.000  O
  O417     1.0000 0.85754  0.16282  0.76264  Biso   1.000  O
  O418     1.0000 0.87835  0.15704  0.72491  Biso   1.000  O
  O419     1.0000 0.82914  0.28461  0.75325  Biso   1.000  O
  O420     1.0000 0.82078  0.36173  0.78998  Biso   1.000  O
  C355     1.0000 0.85410  0.08660  0.78500  Biso   1.000  C
  C356     1.0000 0.83780  0.07140  0.80520  Biso   1.000  C
  C357     1.0000 0.84060  0.04470  0.80590  Biso   1.000  C
  C358     1.0000 0.86650  0.17110  0.74100  Biso   1.000  C
  C359     1.0000 0.86100  0.19960  0.73360  Biso   1.000  C
  C360     1.0000 0.84952  0.21700  0.75140  Biso   1.000  C
  O421     1.0000 0.40008  0.63910  0.28440  Biso   1.000  O
  O422     1.0000 0.38130  0.67350  0.26980  Biso   1.000  O
  O423     1.0000 0.44280  0.75980  0.33700  Biso   1.000  O
  O424     1.0000 0.39246  0.58718  0.26264  Biso   1.000  O
  O425     1.0000 0.37165  0.59296  0.22491  Biso   1.000  O
  O426     1.0000 0.42086  0.46539  0.25325  Biso   1.000  O
  O427     1.0000 0.42922  0.38827  0.28998  Biso   1.000  O
  C361     1.0000 0.39590  0.66340  0.28500  Biso   1.000  C
  C362     1.0000 0.41220  0.67860  0.30520  Biso   1.000  C
  C363     1.0000 0.40940  0.70530  0.30590  Biso   1.000  C
  C364     1.0000 0.38350  0.57890  0.24100  Biso   1.000  C
  C365     1.0000 0.38900  0.55040  0.23360  Biso   1.000  C
  C366     1.0000 0.40048  0.53300  0.25140  Biso   1.000  C
  O428     1.0000 0.40008  0.13910  0.78440  Biso   1.000  O
  O429     1.0000 0.38130  0.17350  0.76980  Biso   1.000  O
  O430     1.0000 0.44280  0.25980  0.83700  Biso   1.000  O
  O431     1.0000 0.39246  0.08718  0.76264  Biso   1.000  O
  O432     1.0000 0.37165  0.09296  0.72491  Biso   1.000  O
  O433     1.0000 0.42086  0.96539  0.75325  Biso   1.000  O
  O434     1.0000 0.42922  0.88827  0.78998  Biso   1.000  O
  C367     1.0000 0.39590  0.16340  0.78500  Biso   1.000  C
  C368     1.0000 0.41220  0.17860  0.80520  Biso   1.000  C
  C369     1.0000 0.40940  0.20530  0.80590  Biso   1.000  C
  C370     1.0000 0.38350  0.07890  0.74100  Biso   1.000  C
  C371     1.0000 0.38900  0.05040  0.73360  Biso   1.000  C
  C372     1.0000 0.40048  0.03300  0.75140  Biso   1.000  C
  O435     1.0000 0.90008  0.63910  0.78440  Biso   1.000  O
  O436     1.0000 0.88130  0.67350  0.76980  Biso   1.000  O
  O437     1.0000 0.94280  0.75980  0.83700  Biso   1.000  O
  O438     1.0000 0.89246  0.58718  0.76264  Biso   1.000  O
  O439     1.0000 0.87165  0.59296  0.72491  Biso   1.000  O
  O440     1.0000 0.92086  0.46539  0.75325  Biso   1.000  O
  O441     1.0000 0.92922  0.38827  0.78998  Biso   1.000  O
  C373     1.0000 0.89590  0.66340  0.78500  Biso   1.000  C
  C374     1.0000 0.91220  0.67860  0.80520  Biso   1.000  C
  C375     1.0000 0.90940  0.70530  0.80590  Biso   1.000  C
  C376     1.0000 0.88350  0.57890  0.74100  Biso   1.000  C
  C377     1.0000 0.88900  0.55040  0.73360  Biso   1.000  C
  C378     1.0000 0.90048  0.53300  0.75140  Biso   1.000  C
  O442     1.0000 0.90008  0.13910  0.28440  Biso   1.000  O
  O443     1.0000 0.88130  0.17350  0.26980  Biso   1.000  O
  O444     1.0000 0.94280  0.25980  0.33700  Biso   1.000  O
  O445     1.0000 0.89246  0.08718  0.26264  Biso   1.000  O
  O446     1.0000 0.87165  0.09296  0.22491  Biso   1.000  O
  O447     1.0000 0.92086  0.96539  0.25325  Biso   1.000  O
  O448     1.0000 0.92922  0.88827  0.28998  Biso   1.000  O
  C379     1.0000 0.89590  0.16340  0.28500  Biso   1.000  C
  C380     1.0000 0.91220  0.17860  0.30520  Biso   1.000  C
  C381     1.0000 0.90940  0.20530  0.30590  Biso   1.000  C
  C382     1.0000 0.88350  0.07890  0.24100  Biso   1.000  C
  C383     1.0000 0.88900  0.05040  0.23360  Biso   1.000  C
  C384     1.0000 0.90048  0.03300  0.25140  Biso   1.000  C
  O449     1.0000 0.63910  0.28440  0.40008  Biso   1.000  O
  O450     1.0000 0.67350  0.26980  0.38130  Biso   1.000  O
  O451     1.0000 0.75980  0.33700  0.44280  Biso   1.000  O
  O452     1.0000 0.58718  0.26264  0.39246  Biso   1.000  O
  O453     1.0000 0.59296  0.22491  0.37165  Biso   1.000  O
  O454     1.0000 0.46539  0.25325  0.42086  Biso   1.000  O
  O455     1.0000 0.38827  0.28998  0.42922  Biso   1.000  O
  C385     1.0000 0.66340  0.28500  0.39590  Biso   1.000  C
  C386     1.0000 0.67860  0.30520  0.41220  Biso   1.000  C
  C387     1.0000 0.70530  0.30590  0.40940  Biso   1.000  C
  C388     1.0000 0.57890  0.24100  0.38350  Biso   1.000  C
  C389     1.0000 0.55040  0.23360  0.38900  Biso   1.000  C
  C390     1.0000 0.53300  0.25140  0.40048  Biso   1.000  C
  O456     1.0000 0.63910  0.78440  0.90008  Biso   1.000  O
  O457     1.0000 0.67350  0.76980  0.88130  Biso   1.000  O
  O458     1.0000 0.75980  0.83700  0.94280  Biso   1.000  O
  O459     1.0000 0.58718  0.76264  0.89246  Biso   1.000  O
  O460     1.0000 0.59296  0.72491  0.87165  Biso   1.000  O
  O461     1.0000 0.46539  0.75325  0.92086  Biso   1.000  O
  O462     1.0000 0.38827  0.78998  0.92922  Biso   1.000  O
  C391     1.0000 0.66340  0.78500  0.89590  Biso   1.000  C
  C392     1.0000 0.67860  0.80520  0.91220  Biso   1.000  C
  C393     1.0000 0.70530  0.80590  0.90940  Biso   1.000  C
  C394     1.0000 0.57890  0.74100  0.88350  Biso   1.000  C
  C395     1.0000 0.55040  0.73360  0.88900  Biso   1.000  C
  C396     1.0000 0.53300  0.75140  0.90048  Biso   1.000  C
  O463     1.0000 0.13910  0.28440  0.90008  Biso   1.000  O
  O464     1.0000 0.17350  0.26980  0.88130  Biso   1.000  O
  O465     1.0000 0.25980  0.33700  0.94280  Biso   1.000  O
  O466     1.0000 0.08718  0.26264  0.89246  Biso   1.000  O
  O467     1.0000 0.09296  0.22491  0.87165  Biso   1.000  O
  O468     1.0000 0.96539  0.25325  0.92086  Biso   1.000  O
  O469     1.0000 0.88827  0.28998  0.92922  Biso   1.000  O
  C397     1.0000 0.16340  0.28500  0.89590  Biso   1.000  C
  C398     1.0000 0.17860  0.30520  0.91220  Biso   1.000  C
  C399     1.0000 0.20530  0.30590  0.90940  Biso   1.000  C
  C400     1.0000 0.07890  0.24100  0.88350  Biso   1.000  C
  C401     1.0000 0.05040  0.23360  0.88900  Biso   1.000  C
  C402     1.0000 0.03300  0.25140  0.90048  Biso   1.000  C
  O470     1.0000 0.13910  0.78440  0.40008  Biso   1.000  O
  O471     1.0000 0.17350  0.76980  0.38130  Biso   1.000  O
  O472     1.0000 0.25980  0.83700  0.44280  Biso   1.000  O
  O473     1.0000 0.08718  0.76264  0.39246  Biso   1.000  O
  O474     1.0000 0.09296  0.72491  0.37165  Biso   1.000  O
  O475     1.0000 0.96539  0.75325  0.42086  Biso   1.000  O
  O476     1.0000 0.88827  0.78998  0.42922  Biso   1.000  O
  C403     1.0000 0.16340  0.78500  0.39590  Biso   1.000  C
  C404     1.0000 0.17860  0.80520  0.41220  Biso   1.000  C
  C405     1.0000 0.20530  0.80590  0.40940  Biso   1.000  C
  C406     1.0000 0.07890  0.74100  0.38350  Biso   1.000  C
  C407     1.0000 0.05040  0.73360  0.38900  Biso   1.000  C
  C408     1.0000 0.03300  0.75140  0.40048  Biso   1.000  C
  O477     1.0000 0.61090  0.78440  0.34992  Biso   1.000  O
  O478     1.0000 0.57650  0.76980  0.36870  Biso   1.000  O
  O479     1.0000 0.49020  0.83700  0.30720  Biso   1.000  O
  O480     1.0000 0.66282  0.76264  0.35754  Biso   1.000  O
  O481     1.0000 0.65704  0.72491  0.37835  Biso   1.000  O
  O482     1.0000 0.78461  0.75325  0.32914  Biso   1.000  O
  O483     1.0000 0.86173  0.78998  0.32078  Biso   1.000  O
  C409     1.0000 0.58660  0.78500  0.35410  Biso   1.000  C
  C410     1.0000 0.57140  0.80520  0.33780  Biso   1.000  C
  C411     1.0000 0.54470  0.80590  0.34060  Biso   1.000  C
  C412     1.0000 0.67110  0.74100  0.36650  Biso   1.000  C
  C413     1.0000 0.69960  0.73360  0.36100  Biso   1.000  C
  C414     1.0000 0.71700  0.75140  0.34952  Biso   1.000  C
  O484     1.0000 0.61090  0.28440  0.84992  Biso   1.000  O
  O485     1.0000 0.57650  0.26980  0.86870  Biso   1.000  O
  O486     1.0000 0.49020  0.33700  0.80720  Biso   1.000  O
  O487     1.0000 0.66282  0.26264  0.85754  Biso   1.000  O
  O488     1.0000 0.65704  0.22491  0.87835  Biso   1.000  O
  O489     1.0000 0.78461  0.25325  0.82914  Biso   1.000  O
  O490     1.0000 0.86173  0.28998  0.82078  Biso   1.000  O
  C415     1.0000 0.58660  0.28500  0.85410  Biso   1.000  C
  C416     1.0000 0.57140  0.30520  0.83780  Biso   1.000  C
  C417     1.0000 0.54470  0.30590  0.84060  Biso   1.000  C
  C418     1.0000 0.67110  0.24100  0.86650  Biso   1.000  C
  C419     1.0000 0.69960  0.23360  0.86100  Biso   1.000  C
  C420     1.0000 0.71700  0.25140  0.84952  Biso   1.000  C
  O491     1.0000 0.11090  0.78440  0.84992  Biso   1.000  O
  O492     1.0000 0.07650  0.76980  0.86870  Biso   1.000  O
  O493     1.0000 0.99020  0.83700  0.80720  Biso   1.000  O
  O494     1.0000 0.16282  0.76264  0.85754  Biso   1.000  O
  O495     1.0000 0.15704  0.72491  0.87835  Biso   1.000  O
  O496     1.0000 0.28461  0.75325  0.82914  Biso   1.000  O
  O497     1.0000 0.36173  0.78998  0.82078  Biso   1.000  O
  C421     1.0000 0.08660  0.78500  0.85410  Biso   1.000  C
  C422     1.0000 0.07140  0.80520  0.83780  Biso   1.000  C
  C423     1.0000 0.04470  0.80590  0.84060  Biso   1.000  C
  C424     1.0000 0.17110  0.74100  0.86650  Biso   1.000  C
  C425     1.0000 0.19960  0.73360  0.86100  Biso   1.000  C
  C426     1.0000 0.21700  0.75140  0.84952  Biso   1.000  C
  O498     1.0000 0.11090  0.28440  0.34992  Biso   1.000  O
  O499     1.0000 0.07650  0.26980  0.36870  Biso   1.000  O
  O500     1.0000 0.99020  0.33700  0.30720  Biso   1.000  O
  O501     1.0000 0.16282  0.26264  0.35754  Biso   1.000  O
  O502     1.0000 0.15704  0.22491  0.37835  Biso   1.000  O
  O503     1.0000 0.28461  0.25325  0.32914  Biso   1.000  O
  O504     1.0000 0.36173  0.28998  0.32078  Biso   1.000  O
  C427     1.0000 0.08660  0.28500  0.35410  Biso   1.000  C
  C428     1.0000 0.07140  0.30520  0.33780  Biso   1.000  C
  C429     1.0000 0.04470  0.30590  0.34060  Biso   1.000  C
  C430     1.0000 0.17110  0.24100  0.36650  Biso   1.000  C
  C431     1.0000 0.19960  0.23360  0.36100  Biso   1.000  C
  C432     1.0000 0.21700  0.25140  0.34952  Biso   1.000  C
  O505     1.0000 0.11090  0.96560  0.90008  Biso   1.000  O
  O506     1.0000 0.07650  0.98020  0.88130  Biso   1.000  O
  O507     1.0000 0.99020  0.91300  0.94280  Biso   1.000  O
  O508     1.0000 0.16282  0.98736  0.89246  Biso   1.000  O
  O509     1.0000 0.15704  0.02509  0.87165  Biso   1.000  O
  O510     1.0000 0.28461  0.99675  0.92086  Biso   1.000  O
  O511     1.0000 0.36173  0.96002  0.92922  Biso   1.000  O
  C433     1.0000 0.08660  0.96500  0.89590  Biso   1.000  C
  C434     1.0000 0.07140  0.94480  0.91220  Biso   1.000  C
  C435     1.0000 0.04470  0.94410  0.90940  Biso   1.000  C
  C436     1.0000 0.17110  0.00900  0.88350  Biso   1.000  C
  C437     1.0000 0.19960  0.01640  0.88900  Biso   1.000  C
  C438     1.0000 0.21700  0.99860  0.90048  Biso   1.000  C
  O512     1.0000 0.11090  0.46560  0.40008  Biso   1.000  O
  O513     1.0000 0.07650  0.48020  0.38130  Biso   1.000  O
  O514     1.0000 0.99020  0.41300  0.44280  Biso   1.000  O
  O515     1.0000 0.16282  0.48736  0.39246  Biso   1.000  O
  O516     1.0000 0.15704  0.52509  0.37165  Biso   1.000  O
  O517     1.0000 0.28461  0.49675  0.42086  Biso   1.000  O
  O518     1.0000 0.36173  0.46002  0.42922  Biso   1.000  O
  C439     1.0000 0.08660  0.46500  0.39590  Biso   1.000  C
  C440     1.0000 0.07140  0.44480  0.41220  Biso   1.000  C
  C441     1.0000 0.04470  0.44410  0.40940  Biso   1.000  C
  C442     1.0000 0.17110  0.50900  0.38350  Biso   1.000  C
  C443     1.0000 0.19960  0.51640  0.38900  Biso   1.000  C
  C444     1.0000 0.21700  0.49860  0.40048  Biso   1.000  C
  O519     1.0000 0.61090  0.96560  0.40008  Biso   1.000  O
  O520     1.0000 0.57650  0.98020  0.38130  Biso   1.000  O
  O521     1.0000 0.49020  0.91300  0.44280  Biso   1.000  O
  O522     1.0000 0.66282  0.98736  0.39246  Biso   1.000  O
  O523     1.0000 0.65704  0.02509  0.37165  Biso   1.000  O
  O524     1.0000 0.78461  0.99675  0.42086  Biso   1.000  O
  O525     1.0000 0.86173  0.96002  0.42922  Biso   1.000  O
  C445     1.0000 0.58660  0.96500  0.39590  Biso   1.000  C
  C446     1.0000 0.57140  0.94480  0.41220  Biso   1.000  C
  C447     1.0000 0.54470  0.94410  0.40940  Biso   1.000  C
  C448     1.0000 0.67110  0.00900  0.38350  Biso   1.000  C
  C449     1.0000 0.69960  0.01640  0.38900  Biso   1.000  C
  C450     1.0000 0.71700  0.99860  0.40048  Biso   1.000  C
  O526     1.0000 0.61090  0.46560  0.90008  Biso   1.000  O
  O527     1.0000 0.57650  0.48020  0.88130  Biso   1.000  O
  O528     1.0000 0.49020  0.41300  0.94280  Biso   1.000  O
  O529     1.0000 0.66282  0.48736  0.89246  Biso   1.000  O
  O530     1.0000 0.65704  0.52509  0.87165  Biso   1.000  O
  O531     1.0000 0.78461  0.49675  0.92086  Biso   1.000  O
  O532     1.0000 0.86173  0.46002  0.92922  Biso   1.000  O
  C451     1.0000 0.58660  0.46500  0.89590  Biso   1.000  C
  C452     1.0000 0.57140  0.44480  0.91220  Biso   1.000  C
  C453     1.0000 0.54470  0.44410  0.90940  Biso   1.000  C
  C454     1.0000 0.67110  0.50900  0.88350  Biso   1.000  C
  C455     1.0000 0.69960  0.51640  0.88900  Biso   1.000  C
  C456     1.0000 0.71700  0.49860  0.90048  Biso   1.000  C
  O533     1.0000 0.13910  0.46560  0.84992  Biso   1.000  O
  O534     1.0000 0.17350  0.48020  0.86870  Biso   1.000  O
  O535     1.0000 0.25980  0.41300  0.80720  Biso   1.000  O
  O536     1.0000 0.08718  0.48736  0.85754  Biso   1.000  O
  O537     1.0000 0.09296  0.52509  0.87835  Biso   1.000  O
  O538     1.0000 0.96539  0.49675  0.82914  Biso   1.000  O
  O539     1.0000 0.88827  0.46002  0.82078  Biso   1.000  O
  C457     1.0000 0.16340  0.46500  0.85410  Biso   1.000  C
  C458     1.0000 0.17860  0.44480  0.83780  Biso   1.000  C
  C459     1.0000 0.20530  0.44410  0.84060  Biso   1.000  C
  C460     1.0000 0.07890  0.50900  0.86650  Biso   1.000  C
  C461     1.0000 0.05040  0.51640  0.86100  Biso   1.000  C
  C462     1.0000 0.03300  0.49860  0.84952  Biso   1.000  C
  O540     1.0000 0.13910  0.96560  0.34992  Biso   1.000  O
  O541     1.0000 0.17350  0.98020  0.36870  Biso   1.000  O
  O542     1.0000 0.25980  0.91300  0.30720  Biso   1.000  O
  O543     1.0000 0.08718  0.98736  0.35754  Biso   1.000  O
  O544     1.0000 0.09296  0.02509  0.37835  Biso   1.000  O
  O545     1.0000 0.96539  0.99675  0.32914  Biso   1.000  O
  O546     1.0000 0.88827  0.96002  0.32078  Biso   1.000  O
  C463     1.0000 0.16340  0.96500  0.35410  Biso   1.000  C
  C464     1.0000 0.17860  0.94480  0.33780  Biso   1.000  C
  C465     1.0000 0.20530  0.94410  0.34060  Biso   1.000  C
  C466     1.0000 0.07890  0.00900  0.36650  Biso   1.000  C
  C467     1.0000 0.05040  0.01640  0.36100  Biso   1.000  C
  C468     1.0000 0.03300  0.99860  0.34952  Biso   1.000  C
  O547     1.0000 0.63910  0.46560  0.34992  Biso   1.000  O
  O548     1.0000 0.67350  0.48020  0.36870  Biso   1.000  O
  O549     1.0000 0.75980  0.41300  0.30720  Biso   1.000  O
  O550     1.0000 0.58718  0.48736  0.35754  Biso   1.000  O
  O551     1.0000 0.59296  0.52509  0.37835  Biso   1.000  O
  O552     1.0000 0.46539  0.49675  0.32914  Biso   1.000  O
  O553     1.0000 0.38827  0.46002  0.32078  Biso   1.000  O
  C469     1.0000 0.66340  0.46500  0.35410  Biso   1.000  C
  C470     1.0000 0.67860  0.44480  0.33780  Biso   1.000  C
  C471     1.0000 0.70530  0.44410  0.34060  Biso   1.000  C
  C472     1.0000 0.57890  0.50900  0.36650  Biso   1.000  C
  C473     1.0000 0.55040  0.51640  0.36100  Biso   1.000  C
  C474     1.0000 0.53300  0.49860  0.34952  Biso   1.000  C
  O554     1.0000 0.63910  0.96560  0.84992  Biso   1.000  O
  O555     1.0000 0.67350  0.98020  0.86870  Biso   1.000  O
  O556     1.0000 0.75980  0.91300  0.80720  Biso   1.000  O
  O557     1.0000 0.58718  0.98736  0.85754  Biso   1.000  O
  O558     1.0000 0.59296  0.02509  0.87835  Biso   1.000  O
  O559     1.0000 0.46539  0.99675  0.82914  Biso   1.000  O
  O560     1.0000 0.38827  0.96002  0.82078  Biso   1.000  O
  C475     1.0000 0.66340  0.96500  0.85410  Biso   1.000  C
  C476     1.0000 0.67860  0.94480  0.83780  Biso   1.000  C
  C477     1.0000 0.70530  0.94410  0.84060  Biso   1.000  C
  C478     1.0000 0.57890  0.00900  0.86650  Biso   1.000  C
  C479     1.0000 0.55040  0.01640  0.86100  Biso   1.000  C
  C480     1.0000 0.53300  0.99860  0.84952  Biso   1.000  C
  O561     1.0000 0.78440  0.34992  0.61090  Biso   1.000  O
  O562     1.0000 0.76980  0.36870  0.57650  Biso   1.000  O
  O563     1.0000 0.83700  0.30720  0.49020  Biso   1.000  O
  O564     1.0000 0.76264  0.35754  0.66282  Biso   1.000  O
  O565     1.0000 0.72491  0.37835  0.65704  Biso   1.000  O
  O566     1.0000 0.75325  0.32914  0.78461  Biso   1.000  O
  O567     1.0000 0.78998  0.32078  0.86173  Biso   1.000  O
  C481     1.0000 0.78500  0.35410  0.58660  Biso   1.000  C
  C482     1.0000 0.80520  0.33780  0.57140  Biso   1.000  C
  C483     1.0000 0.80590  0.34060  0.54470  Biso   1.000  C
  C484     1.0000 0.74100  0.36650  0.67110  Biso   1.000  C
  C485     1.0000 0.73360  0.36100  0.69960  Biso   1.000  C
  C486     1.0000 0.75140  0.34952  0.71700  Biso   1.000  C
  O568     1.0000 0.78440  0.84992  0.11090  Biso   1.000  O
  O569     1.0000 0.76980  0.86870  0.07650  Biso   1.000  O
  O570     1.0000 0.83700  0.80720  0.99020  Biso   1.000  O
  O571     1.0000 0.76264  0.85754  0.16282  Biso   1.000  O
  O572     1.0000 0.72491  0.87835  0.15704  Biso   1.000  O
  O573     1.0000 0.75325  0.82914  0.28461  Biso   1.000  O
  O574     1.0000 0.78998  0.82078  0.36173  Biso   1.000  O
  C487     1.0000 0.78500  0.85410  0.08660  Biso   1.000  C
  C488     1.0000 0.80520  0.83780  0.07140  Biso   1.000  C
  C489     1.0000 0.80590  0.84060  0.04470  Biso   1.000  C
  C490     1.0000 0.74100  0.86650  0.17110  Biso   1.000  C
  C491     1.0000 0.73360  0.86100  0.19960  Biso   1.000  C
  C492     1.0000 0.75140  0.84952  0.21700  Biso   1.000  C
  O575     1.0000 0.28440  0.34992  0.11090  Biso   1.000  O
  O576     1.0000 0.26980  0.36870  0.07650  Biso   1.000  O
  O577     1.0000 0.33700  0.30720  0.99020  Biso   1.000  O
  O578     1.0000 0.26264  0.35754  0.16282  Biso   1.000  O
  O579     1.0000 0.22491  0.37835  0.15704  Biso   1.000  O
  O580     1.0000 0.25325  0.32914  0.28461  Biso   1.000  O
  O581     1.0000 0.28998  0.32078  0.36173  Biso   1.000  O
  C493     1.0000 0.28500  0.35410  0.08660  Biso   1.000  C
  C494     1.0000 0.30520  0.33780  0.07140  Biso   1.000  C
  C495     1.0000 0.30590  0.34060  0.04470  Biso   1.000  C
  C496     1.0000 0.24100  0.36650  0.17110  Biso   1.000  C
  C497     1.0000 0.23360  0.36100  0.19960  Biso   1.000  C
  C498     1.0000 0.25140  0.34952  0.21700  Biso   1.000  C
  O582     1.0000 0.28440  0.84992  0.61090  Biso   1.000  O
  O583     1.0000 0.26980  0.86870  0.57650  Biso   1.000  O
  O584     1.0000 0.33700  0.80720  0.49020  Biso   1.000  O
  O585     1.0000 0.26264  0.85754  0.66282  Biso   1.000  O
  O586     1.0000 0.22491  0.87835  0.65704  Biso   1.000  O
  O587     1.0000 0.25325  0.82914  0.78461  Biso   1.000  O
  O588     1.0000 0.28998  0.82078  0.86173  Biso   1.000  O
  C499     1.0000 0.28500  0.85410  0.58660  Biso   1.000  C
  C500     1.0000 0.30520  0.83780  0.57140  Biso   1.000  C
  C501     1.0000 0.30590  0.84060  0.54470  Biso   1.000  C
  C502     1.0000 0.24100  0.86650  0.67110  Biso   1.000  C
  C503     1.0000 0.23360  0.86100  0.69960  Biso   1.000  C
  C504     1.0000 0.25140  0.84952  0.71700  Biso   1.000  C
  O589     1.0000 0.28440  0.40008  0.63910  Biso   1.000  O
  O590     1.0000 0.26980  0.38130  0.67350  Biso   1.000  O
  O591     1.0000 0.33700  0.44280  0.75980  Biso   1.000  O
  O592     1.0000 0.26264  0.39246  0.58718  Biso   1.000  O
  O593     1.0000 0.22491  0.37165  0.59296  Biso   1.000  O
  O594     1.0000 0.25325  0.42086  0.46539  Biso   1.000  O
  O595     1.0000 0.28998  0.42922  0.38827  Biso   1.000  O
  C505     1.0000 0.28500  0.39590  0.66340  Biso   1.000  C
  C506     1.0000 0.30520  0.41220  0.67860  Biso   1.000  C
  C507     1.0000 0.30590  0.40940  0.70530  Biso   1.000  C
  C508     1.0000 0.24100  0.38350  0.57890  Biso   1.000  C
  C509     1.0000 0.23360  0.38900  0.55040  Biso   1.000  C
  C510     1.0000 0.25140  0.40048  0.53300  Biso   1.000  C
  O596     1.0000 0.28440  0.90008  0.13910  Biso   1.000  O
  O597     1.0000 0.26980  0.88130  0.17350  Biso   1.000  O
  O598     1.0000 0.33700  0.94280  0.25980  Biso   1.000  O
  O599     1.0000 0.26264  0.89246  0.08718  Biso   1.000  O
  O600     1.0000 0.22491  0.87165  0.09296  Biso   1.000  O
  O601     1.0000 0.25325  0.92086  0.96539  Biso   1.000  O
  O602     1.0000 0.28998  0.92922  0.88827  Biso   1.000  O
  C511     1.0000 0.28500  0.89590  0.16340  Biso   1.000  C
  C512     1.0000 0.30520  0.91220  0.17860  Biso   1.000  C
  C513     1.0000 0.30590  0.90940  0.20530  Biso   1.000  C
  C514     1.0000 0.24100  0.88350  0.07890  Biso   1.000  C
  C515     1.0000 0.23360  0.88900  0.05040  Biso   1.000  C
  C516     1.0000 0.25140  0.90048  0.03300  Biso   1.000  C
  O603     1.0000 0.78440  0.40008  0.13910  Biso   1.000  O
  O604     1.0000 0.76980  0.38130  0.17350  Biso   1.000  O
  O605     1.0000 0.83700  0.44280  0.25980  Biso   1.000  O
  O606     1.0000 0.76264  0.39246  0.08718  Biso   1.000  O
  O607     1.0000 0.72491  0.37165  0.09296  Biso   1.000  O
  O608     1.0000 0.75325  0.42086  0.96539  Biso   1.000  O
  O609     1.0000 0.78998  0.42922  0.88827  Biso   1.000  O
  C517     1.0000 0.78500  0.39590  0.16340  Biso   1.000  C
  C518     1.0000 0.80520  0.41220  0.17860  Biso   1.000  C
  C519     1.0000 0.80590  0.40940  0.20530  Biso   1.000  C
  C520     1.0000 0.74100  0.38350  0.07890  Biso   1.000  C
  C521     1.0000 0.73360  0.38900  0.05040  Biso   1.000  C
  C522     1.0000 0.75140  0.40048  0.03300  Biso   1.000  C
  O610     1.0000 0.78440  0.90008  0.63910  Biso   1.000  O
  O611     1.0000 0.76980  0.88130  0.67350  Biso   1.000  O
  O612     1.0000 0.83700  0.94280  0.75980  Biso   1.000  O
  O613     1.0000 0.76264  0.89246  0.58718  Biso   1.000  O
  O614     1.0000 0.72491  0.87165  0.59296  Biso   1.000  O
  O615     1.0000 0.75325  0.92086  0.46539  Biso   1.000  O
  O616     1.0000 0.78998  0.92922  0.38827  Biso   1.000  O
  C523     1.0000 0.78500  0.89590  0.66340  Biso   1.000  C
  C524     1.0000 0.80520  0.91220  0.67860  Biso   1.000  C
  C525     1.0000 0.80590  0.90940  0.70530  Biso   1.000  C
  C526     1.0000 0.74100  0.88350  0.57890  Biso   1.000  C
  C527     1.0000 0.73360  0.88900  0.55040  Biso   1.000  C
  C528     1.0000 0.75140  0.90048  0.53300  Biso   1.000  C
  O617     1.0000 0.46560  0.84992  0.13910  Biso   1.000  O
  O618     1.0000 0.48020  0.86870  0.17350  Biso   1.000  O
  O619     1.0000 0.41300  0.80720  0.25980  Biso   1.000  O
  O620     1.0000 0.48736  0.85754  0.08718  Biso   1.000  O
  O621     1.0000 0.52509  0.87835  0.09296  Biso   1.000  O
  O622     1.0000 0.49675  0.82914  0.96539  Biso   1.000  O
  O623     1.0000 0.46002  0.82078  0.88827  Biso   1.000  O
  C529     1.0000 0.46500  0.85410  0.16340  Biso   1.000  C
  C530     1.0000 0.44480  0.83780  0.17860  Biso   1.000  C
  C531     1.0000 0.44410  0.84060  0.20530  Biso   1.000  C
  C532     1.0000 0.50900  0.86650  0.07890  Biso   1.000  C
  C533     1.0000 0.51640  0.86100  0.05040  Biso   1.000  C
  C534     1.0000 0.49860  0.84952  0.03300  Biso   1.000  C
  O624     1.0000 0.46560  0.34992  0.63910  Biso   1.000  O
  O625     1.0000 0.48020  0.36870  0.67350  Biso   1.000  O
  O626     1.0000 0.41300  0.30720  0.75980  Biso   1.000  O
  O627     1.0000 0.48736  0.35754  0.58718  Biso   1.000  O
  O628     1.0000 0.52509  0.37835  0.59296  Biso   1.000  O
  O629     1.0000 0.49675  0.32914  0.46539  Biso   1.000  O
  O630     1.0000 0.46002  0.32078  0.38827  Biso   1.000  O
  C535     1.0000 0.46500  0.35410  0.66340  Biso   1.000  C
  C536     1.0000 0.44480  0.33780  0.67860  Biso   1.000  C
  C537     1.0000 0.44410  0.34060  0.70530  Biso   1.000  C
  C538     1.0000 0.50900  0.36650  0.57890  Biso   1.000  C
  C539     1.0000 0.51640  0.36100  0.55040  Biso   1.000  C
  C540     1.0000 0.49860  0.34952  0.53300  Biso   1.000  C
  O631     1.0000 0.96560  0.84992  0.63910  Biso   1.000  O
  O632     1.0000 0.98020  0.86870  0.67350  Biso   1.000  O
  O633     1.0000 0.91300  0.80720  0.75980  Biso   1.000  O
  O634     1.0000 0.98736  0.85754  0.58718  Biso   1.000  O
  O635     1.0000 0.02509  0.87835  0.59296  Biso   1.000  O
  O636     1.0000 0.99675  0.82914  0.46539  Biso   1.000  O
  O637     1.0000 0.96002  0.82078  0.38827  Biso   1.000  O
  C541     1.0000 0.96500  0.85410  0.66340  Biso   1.000  C
  C542     1.0000 0.94480  0.83780  0.67860  Biso   1.000  C
  C543     1.0000 0.94410  0.84060  0.70530  Biso   1.000  C
  C544     1.0000 0.00900  0.86650  0.57890  Biso   1.000  C
  C545     1.0000 0.01640  0.86100  0.55040  Biso   1.000  C
  C546     1.0000 0.99860  0.84952  0.53300  Biso   1.000  C
  O638     1.0000 0.96560  0.34992  0.13910  Biso   1.000  O
  O639     1.0000 0.98020  0.36870  0.17350  Biso   1.000  O
  O640     1.0000 0.91300  0.30720  0.25980  Biso   1.000  O
  O641     1.0000 0.98736  0.35754  0.08718  Biso   1.000  O
  O642     1.0000 0.02509  0.37835  0.09296  Biso   1.000  O
  O643     1.0000 0.99675  0.32914  0.96539  Biso   1.000  O
  O644     1.0000 0.96002  0.32078  0.88827  Biso   1.000  O
  C547     1.0000 0.96500  0.35410  0.16340  Biso   1.000  C
  C548     1.0000 0.94480  0.33780  0.17860  Biso   1.000  C
  C549     1.0000 0.94410  0.34060  0.20530  Biso   1.000  C
  C550     1.0000 0.00900  0.36650  0.07890  Biso   1.000  C
  C551     1.0000 0.01640  0.36100  0.05040  Biso   1.000  C
  C552     1.0000 0.99860  0.34952  0.03300  Biso   1.000  C
  O645     1.0000 0.96560  0.90008  0.11090  Biso   1.000  O
  O646     1.0000 0.98020  0.88130  0.07650  Biso   1.000  O
  O647     1.0000 0.91300  0.94280  0.99020  Biso   1.000  O
  O648     1.0000 0.98736  0.89246  0.16282  Biso   1.000  O
  O649     1.0000 0.02509  0.87165  0.15704  Biso   1.000  O
  O650     1.0000 0.99675  0.92086  0.28461  Biso   1.000  O
  O651     1.0000 0.96002  0.92922  0.36173  Biso   1.000  O
  C553     1.0000 0.96500  0.89590  0.08660  Biso   1.000  C
  C554     1.0000 0.94480  0.91220  0.07140  Biso   1.000  C
  C555     1.0000 0.94410  0.90940  0.04470  Biso   1.000  C
  C556     1.0000 0.00900  0.88350  0.17110  Biso   1.000  C
  C557     1.0000 0.01640  0.88900  0.19960  Biso   1.000  C
  C558     1.0000 0.99860  0.90048  0.21700  Biso   1.000  C
  O652     1.0000 0.96560  0.40008  0.61090  Biso   1.000  O
  O653     1.0000 0.98020  0.38130  0.57650  Biso   1.000  O
  O654     1.0000 0.91300  0.44280  0.49020  Biso   1.000  O
  O655     1.0000 0.98736  0.39246  0.66282  Biso   1.000  O
  O656     1.0000 0.02509  0.37165  0.65704  Biso   1.000  O
  O657     1.0000 0.99675  0.42086  0.78461  Biso   1.000  O
  O658     1.0000 0.96002  0.42922  0.86173  Biso   1.000  O
  C559     1.0000 0.96500  0.39590  0.58660  Biso   1.000  C
  C560     1.0000 0.94480  0.41220  0.57140  Biso   1.000  C
  C561     1.0000 0.94410  0.40940  0.54470  Biso   1.000  C
  C562     1.0000 0.00900  0.38350  0.67110  Biso   1.000  C
  C563     1.0000 0.01640  0.38900  0.69960  Biso   1.000  C
  C564     1.0000 0.99860  0.40048  0.71700  Biso   1.000  C
  O659     1.0000 0.46560  0.90008  0.61090  Biso   1.000  O
  O660     1.0000 0.48020  0.88130  0.57650  Biso   1.000  O
  O661     1.0000 0.41300  0.94280  0.49020  Biso   1.000  O
  O662     1.0000 0.48736  0.89246  0.66282  Biso   1.000  O
  O663     1.0000 0.52509  0.87165  0.65704  Biso   1.000  O
  O664     1.0000 0.49675  0.92086  0.78461  Biso   1.000  O
  O665     1.0000 0.46002  0.92922  0.86173  Biso   1.000  O
  C565     1.0000 0.46500  0.89590  0.58660  Biso   1.000  C
  C566     1.0000 0.44480  0.91220  0.57140  Biso   1.000  C
  C567     1.0000 0.44410  0.90940  0.54470  Biso   1.000  C
  C568     1.0000 0.50900  0.88350  0.67110  Biso   1.000  C
  C569     1.0000 0.51640  0.88900  0.69960  Biso   1.000  C
  C570     1.0000 0.49860  0.90048  0.71700  Biso   1.000  C
  O666     1.0000 0.46560  0.40008  0.11090  Biso   1.000  O
  O667     1.0000 0.48020  0.38130  0.07650  Biso   1.000  O
  O668     1.0000 0.41300  0.44280  0.99020  Biso   1.000  O
  O669     1.0000 0.48736  0.39246  0.16282  Biso   1.000  O
  O670     1.0000 0.52509  0.37165  0.15704  Biso   1.000  O
  O671     1.0000 0.49675  0.42086  0.28461  Biso   1.000  O
  O672     1.0000 0.46002  0.42922  0.36173  Biso   1.000  O
  C571     1.0000 0.46500  0.39590  0.08660  Biso   1.000  C
  C572     1.0000 0.44480  0.41220  0.07140  Biso   1.000  C
  C573     1.0000 0.44410  0.40940  0.04470  Biso   1.000  C
  C574     1.0000 0.50900  0.38350  0.17110  Biso   1.000  C
  C575     1.0000 0.51640  0.38900  0.19960  Biso   1.000  C
  C576     1.0000 0.49860  0.40048  0.21700  Biso   1.000  C
  O673     1.0000 0.11090  0.90008  0.96560  Biso   1.000  O
  O674     1.0000 0.07650  0.88130  0.98020  Biso   1.000  O
  O675     1.0000 0.99020  0.94280  0.91300  Biso   1.000  O
  O676     1.0000 0.16282  0.89246  0.98736  Biso   1.000  O
  O677     1.0000 0.15704  0.87165  0.02509  Biso   1.000  O
  O678     1.0000 0.28461  0.92086  0.99675  Biso   1.000  O
  O679     1.0000 0.36173  0.92922  0.96002  Biso   1.000  O
  C577     1.0000 0.08660  0.89590  0.96500  Biso   1.000  C
  C578     1.0000 0.07140  0.91220  0.94480  Biso   1.000  C
  C579     1.0000 0.04470  0.90940  0.94410  Biso   1.000  C
  C580     1.0000 0.17110  0.88350  0.00900  Biso   1.000  C
  C581     1.0000 0.19960  0.88900  0.01640  Biso   1.000  C
  C582     1.0000 0.21700  0.90048  0.99860  Biso   1.000  C
  O680     1.0000 0.11090  0.40008  0.46560  Biso   1.000  O
  O681     1.0000 0.07650  0.38130  0.48020  Biso   1.000  O
  O682     1.0000 0.99020  0.44280  0.41300  Biso   1.000  O
  O683     1.0000 0.16282  0.39246  0.48736  Biso   1.000  O
  O684     1.0000 0.15704  0.37165  0.52509  Biso   1.000  O
  O685     1.0000 0.28461  0.42086  0.49675  Biso   1.000  O
  O686     1.0000 0.36173  0.42922  0.46002  Biso   1.000  O
  C583     1.0000 0.08660  0.39590  0.46500  Biso   1.000  C
  C584     1.0000 0.07140  0.41220  0.44480  Biso   1.000  C
  C585     1.0000 0.04470  0.40940  0.44410  Biso   1.000  C
  C586     1.0000 0.17110  0.38350  0.50900  Biso   1.000  C
  C587     1.0000 0.19960  0.38900  0.51640  Biso   1.000  C
  C588     1.0000 0.21700  0.40048  0.49860  Biso   1.000  C
  O687     1.0000 0.61090  0.90008  0.46560  Biso   1.000  O
  O688     1.0000 0.57650  0.88130  0.48020  Biso   1.000  O
  O689     1.0000 0.49020  0.94280  0.41300  Biso   1.000  O
  O690     1.0000 0.66282  0.89246  0.48736  Biso   1.000  O
  O691     1.0000 0.65704  0.87165  0.52509  Biso   1.000  O
  O692     1.0000 0.78461  0.92086  0.49675  Biso   1.000  O
  O693     1.0000 0.86173  0.92922  0.46002  Biso   1.000  O
  C589     1.0000 0.58660  0.89590  0.46500  Biso   1.000  C
  C590     1.0000 0.57140  0.91220  0.44480  Biso   1.000  C
  C591     1.0000 0.54470  0.90940  0.44410  Biso   1.000  C
  C592     1.0000 0.67110  0.88350  0.50900  Biso   1.000  C
  C593     1.0000 0.69960  0.88900  0.51640  Biso   1.000  C
  C594     1.0000 0.71700  0.90048  0.49860  Biso   1.000  C
  O694     1.0000 0.61090  0.40008  0.96560  Biso   1.000  O
  O695     1.0000 0.57650  0.38130  0.98020  Biso   1.000  O
  O696     1.0000 0.49020  0.44280  0.91300  Biso   1.000  O
  O697     1.0000 0.66282  0.39246  0.98736  Biso   1.000  O
  O698     1.0000 0.65704  0.37165  0.02509  Biso   1.000  O
  O699     1.0000 0.78461  0.42086  0.99675  Biso   1.000  O
  O700     1.0000 0.86173  0.42922  0.96002  Biso   1.000  O
  C595     1.0000 0.58660  0.39590  0.96500  Biso   1.000  C
  C596     1.0000 0.57140  0.41220  0.94480  Biso   1.000  C
  C597     1.0000 0.54470  0.40940  0.94410  Biso   1.000  C
  C598     1.0000 0.67110  0.38350  0.00900  Biso   1.000  C
  C599     1.0000 0.69960  0.38900  0.01640  Biso   1.000  C
  C600     1.0000 0.71700  0.40048  0.99860  Biso   1.000  C
  O701     1.0000 0.13910  0.84992  0.46560  Biso   1.000  O
  O702     1.0000 0.17350  0.86870  0.48020  Biso   1.000  O
  O703     1.0000 0.25980  0.80720  0.41300  Biso   1.000  O
  O704     1.0000 0.08718  0.85754  0.48736  Biso   1.000  O
  O705     1.0000 0.09296  0.87835  0.52509  Biso   1.000  O
  O706     1.0000 0.96539  0.82914  0.49675  Biso   1.000  O
  O707     1.0000 0.88827  0.82078  0.46002  Biso   1.000  O
  C601     1.0000 0.16340  0.85410  0.46500  Biso   1.000  C
  C602     1.0000 0.17860  0.83780  0.44480  Biso   1.000  C
  C603     1.0000 0.20530  0.84060  0.44410  Biso   1.000  C
  C604     1.0000 0.07890  0.86650  0.50900  Biso   1.000  C
  C605     1.0000 0.05040  0.86100  0.51640  Biso   1.000  C
  C606     1.0000 0.03300  0.84952  0.49860  Biso   1.000  C
  O708     1.0000 0.13910  0.34992  0.96560  Biso   1.000  O
  O709     1.0000 0.17350  0.36870  0.98020  Biso   1.000  O
  O710     1.0000 0.25980  0.30720  0.91300  Biso   1.000  O
  O711     1.0000 0.08718  0.35754  0.98736  Biso   1.000  O
  O712     1.0000 0.09296  0.37835  0.02509  Biso   1.000  O
  O713     1.0000 0.96539  0.32914  0.99675  Biso   1.000  O
  O714     1.0000 0.88827  0.32078  0.96002  Biso   1.000  O
  C607     1.0000 0.16340  0.35410  0.96500  Biso   1.000  C
  C608     1.0000 0.17860  0.33780  0.94480  Biso   1.000  C
  C609     1.0000 0.20530  0.34060  0.94410  Biso   1.000  C
  C610     1.0000 0.07890  0.36650  0.00900  Biso   1.000  C
  C611     1.0000 0.05040  0.36100  0.01640  Biso   1.000  C
  C612     1.0000 0.03300  0.34952  0.99860  Biso   1.000  C
  O715     1.0000 0.63910  0.84992  0.96560  Biso   1.000  O
  O716     1.0000 0.67350  0.86870  0.98020  Biso   1.000  O
  O717     1.0000 0.75980  0.80720  0.91300  Biso   1.000  O
  O718     1.0000 0.58718  0.85754  0.98736  Biso   1.000  O
  O719     1.0000 0.59296  0.87835  0.02509  Biso   1.000  O
  O720     1.0000 0.46539  0.82914  0.99675  Biso   1.000  O
  O721     1.0000 0.38827  0.82078  0.96002  Biso   1.000  O
  C613     1.0000 0.66340  0.85410  0.96500  Biso   1.000  C
  C614     1.0000 0.67860  0.83780  0.94480  Biso   1.000  C
  C615     1.0000 0.70530  0.84060  0.94410  Biso   1.000  C
  C616     1.0000 0.57890  0.86650  0.00900  Biso   1.000  C
  C617     1.0000 0.55040  0.86100  0.01640  Biso   1.000  C
  C618     1.0000 0.53300  0.84952  0.99860  Biso   1.000  C
  O722     1.0000 0.63910  0.34992  0.46560  Biso   1.000  O
  O723     1.0000 0.67350  0.36870  0.48020  Biso   1.000  O
  O724     1.0000 0.75980  0.30720  0.41300  Biso   1.000  O
  O725     1.0000 0.58718  0.35754  0.48736  Biso   1.000  O
  O726     1.0000 0.59296  0.37835  0.52509  Biso   1.000  O
  O727     1.0000 0.46539  0.32914  0.49675  Biso   1.000  O
  O728     1.0000 0.38827  0.32078  0.46002  Biso   1.000  O
  C619     1.0000 0.66340  0.35410  0.46500  Biso   1.000  C
  C620     1.0000 0.67860  0.33780  0.44480  Biso   1.000  C
  C621     1.0000 0.70530  0.34060  0.44410  Biso   1.000  C
  C622     1.0000 0.57890  0.36650  0.50900  Biso   1.000  C
  C623     1.0000 0.55040  0.36100  0.51640  Biso   1.000  C
  C624     1.0000 0.53300  0.34952  0.49860  Biso   1.000  C
  O729     1.0000 0.63910  0.40008  0.28440  Biso   1.000  O
  O730     1.0000 0.67350  0.38130  0.26980  Biso   1.000  O
  O731     1.0000 0.75980  0.44280  0.33700  Biso   1.000  O
  O732     1.0000 0.58718  0.39246  0.26264  Biso   1.000  O
  O733     1.0000 0.59296  0.37165  0.22491  Biso   1.000  O
  O734     1.0000 0.46539  0.42086  0.25325  Biso   1.000  O
  O735     1.0000 0.38827  0.42922  0.28998  Biso   1.000  O
  C625     1.0000 0.66340  0.39590  0.28500  Biso   1.000  C
  C626     1.0000 0.67860  0.41220  0.30520  Biso   1.000  C
  C627     1.0000 0.70530  0.40940  0.30590  Biso   1.000  C
  C628     1.0000 0.57890  0.38350  0.24100  Biso   1.000  C
  C629     1.0000 0.55040  0.38900  0.23360  Biso   1.000  C
  C630     1.0000 0.53300  0.40048  0.25140  Biso   1.000  C
  O736     1.0000 0.63910  0.90008  0.78440  Biso   1.000  O
  O737     1.0000 0.67350  0.88130  0.76980  Biso   1.000  O
  O738     1.0000 0.75980  0.94280  0.83700  Biso   1.000  O
  O739     1.0000 0.58718  0.89246  0.76264  Biso   1.000  O
  O740     1.0000 0.59296  0.87165  0.72491  Biso   1.000  O
  O741     1.0000 0.46539  0.92086  0.75325  Biso   1.000  O
  O742     1.0000 0.38827  0.92922  0.78998  Biso   1.000  O
  C631     1.0000 0.66340  0.89590  0.78500  Biso   1.000  C
  C632     1.0000 0.67860  0.91220  0.80520  Biso   1.000  C
  C633     1.0000 0.70530  0.90940  0.80590  Biso   1.000  C
  C634     1.0000 0.57890  0.88350  0.74100  Biso   1.000  C
  C635     1.0000 0.55040  0.88900  0.73360  Biso   1.000  C
  C636     1.0000 0.53300  0.90048  0.75140  Biso   1.000  C
  O743     1.0000 0.13910  0.40008  0.78440  Biso   1.000  O
  O744     1.0000 0.17350  0.38130  0.76980  Biso   1.000  O
  O745     1.0000 0.25980  0.44280  0.83700  Biso   1.000  O
  O746     1.0000 0.08718  0.39246  0.76264  Biso   1.000  O
  O747     1.0000 0.09296  0.37165  0.72491  Biso   1.000  O
  O748     1.0000 0.96539  0.42086  0.75325  Biso   1.000  O
  O749     1.0000 0.88827  0.42922  0.78998  Biso   1.000  O
  C637     1.0000 0.16340  0.39590  0.78500  Biso   1.000  C
  C638     1.0000 0.17860  0.41220  0.80520  Biso   1.000  C
  C639     1.0000 0.20530  0.40940  0.80590  Biso   1.000  C
  C640     1.0000 0.07890  0.38350  0.74100  Biso   1.000  C
  C641     1.0000 0.05040  0.38900  0.73360  Biso   1.000  C
  C642     1.0000 0.03300  0.40048  0.75140  Biso   1.000  C
  O750     1.0000 0.13910  0.90008  0.28440  Biso   1.000  O
  O751     1.0000 0.17350  0.88130  0.26980  Biso   1.000  O
  O752     1.0000 0.25980  0.94280  0.33700  Biso   1.000  O
  O753     1.0000 0.08718  0.89246  0.26264  Biso   1.000  O
  O754     1.0000 0.09296  0.87165  0.22491  Biso   1.000  O
  O755     1.0000 0.96539  0.92086  0.25325  Biso   1.000  O
  O756     1.0000 0.88827  0.92922  0.28998  Biso   1.000  O
  C643     1.0000 0.16340  0.89590  0.28500  Biso   1.000  C
  C644     1.0000 0.17860  0.91220  0.30520  Biso   1.000  C
  C645     1.0000 0.20530  0.90940  0.30590  Biso   1.000  C
  C646     1.0000 0.07890  0.88350  0.24100  Biso   1.000  C
  C647     1.0000 0.05040  0.88900  0.23360  Biso   1.000  C
  C648     1.0000 0.03300  0.90048  0.25140  Biso   1.000  C
  O757     1.0000 0.61090  0.34992  0.78440  Biso   1.000  O
  O758     1.0000 0.57650  0.36870  0.76980  Biso   1.000  O
  O759     1.0000 0.49020  0.30720  0.83700  Biso   1.000  O
  O760     1.0000 0.66282  0.35754  0.76264  Biso   1.000  O
  O761     1.0000 0.65704  0.37835  0.72491  Biso   1.000  O
  O762     1.0000 0.78461  0.32914  0.75325  Biso   1.000  O
  O763     1.0000 0.86173  0.32078  0.78998  Biso   1.000  O
  C649     1.0000 0.58660  0.35410  0.78500  Biso   1.000  C
  C650     1.0000 0.57140  0.33780  0.80520  Biso   1.000  C
  C651     1.0000 0.54470  0.34060  0.80590  Biso   1.000  C
  C652     1.0000 0.67110  0.36650  0.74100  Biso   1.000  C
  C653     1.0000 0.69960  0.36100  0.73360  Biso   1.000  C
  C654     1.0000 0.71700  0.34952  0.75140  Biso   1.000  C
  O764     1.0000 0.61090  0.84992  0.28440  Biso   1.000  O
  O765     1.0000 0.57650  0.86870  0.26980  Biso   1.000  O
  O766     1.0000 0.49020  0.80720  0.33700  Biso   1.000  O
  O767     1.0000 0.66282  0.85754  0.26264  Biso   1.000  O
  O768     1.0000 0.65704  0.87835  0.22491  Biso   1.000  O
  O769     1.0000 0.78461  0.82914  0.25325  Biso   1.000  O
  O770     1.0000 0.86173  0.82078  0.28998  Biso   1.000  O
  C655     1.0000 0.58660  0.85410  0.28500  Biso   1.000  C
  C656     1.0000 0.57140  0.83780  0.30520  Biso   1.000  C
  C657     1.0000 0.54470  0.84060  0.30590  Biso   1.000  C
  C658     1.0000 0.67110  0.86650  0.24100  Biso   1.000  C
  C659     1.0000 0.69960  0.86100  0.23360  Biso   1.000  C
  C660     1.0000 0.71700  0.84952  0.25140  Biso   1.000  C
  O771     1.0000 0.11090  0.34992  0.28440  Biso   1.000  O
  O772     1.0000 0.07650  0.36870  0.26980  Biso   1.000  O
  O773     1.0000 0.99020  0.30720  0.33700  Biso   1.000  O
  O774     1.0000 0.16282  0.35754  0.26264  Biso   1.000  O
  O775     1.0000 0.15704  0.37835  0.22491  Biso   1.000  O
  O776     1.0000 0.28461  0.32914  0.25325  Biso   1.000  O
  O777     1.0000 0.36173  0.32078  0.28998  Biso   1.000  O
  C661     1.0000 0.08660  0.35410  0.28500  Biso   1.000  C
  C662     1.0000 0.07140  0.33780  0.30520  Biso   1.000  C
  C663     1.0000 0.04470  0.34060  0.30590  Biso   1.000  C
  C664     1.0000 0.17110  0.36650  0.24100  Biso   1.000  C
  C665     1.0000 0.19960  0.36100  0.23360  Biso   1.000  C
  C666     1.0000 0.21700  0.34952  0.25140  Biso   1.000  C
  O778     1.0000 0.11090  0.84992  0.78440  Biso   1.000  O
  O779     1.0000 0.07650  0.86870  0.76980  Biso   1.000  O
  O780     1.0000 0.99020  0.80720  0.83700  Biso   1.000  O
  O781     1.0000 0.16282  0.85754  0.76264  Biso   1.000  O
  O782     1.0000 0.15704  0.87835  0.72491  Biso   1.000  O
  O783     1.0000 0.28461  0.82914  0.75325  Biso   1.000  O
  O784     1.0000 0.36173  0.82078  0.78998  Biso   1.000  O
  C667     1.0000 0.08660  0.85410  0.78500  Biso   1.000  C
  C668     1.0000 0.07140  0.83780  0.80520  Biso   1.000  C
  C669     1.0000 0.04470  0.84060  0.80590  Biso   1.000  C
  C670     1.0000 0.17110  0.86650  0.74100  Biso   1.000  C
  C671     1.0000 0.19960  0.86100  0.73360  Biso   1.000  C
  C672     1.0000 0.21700  0.84952  0.75140  Biso   1.000  C
  O785     1.0000 0.96560  0.11090  0.90008  Biso   1.000  O
  O786     1.0000 0.98020  0.07650  0.88130  Biso   1.000  O
  O787     1.0000 0.91300  0.99020  0.94280  Biso   1.000  O
  O788     1.0000 0.98736  0.16282  0.89246  Biso   1.000  O
  O789     1.0000 0.02509  0.15704  0.87165  Biso   1.000  O
  O790     1.0000 0.99675  0.28461  0.92086  Biso   1.000  O
  O791     1.0000 0.96002  0.36173  0.92922  Biso   1.000  O
  C673     1.0000 0.96500  0.08660  0.89590  Biso   1.000  C
  C674     1.0000 0.94480  0.07140  0.91220  Biso   1.000  C
  C675     1.0000 0.94410  0.04470  0.90940  Biso   1.000  C
  C676     1.0000 0.00900  0.17110  0.88350  Biso   1.000  C
  C677     1.0000 0.01640  0.19960  0.88900  Biso   1.000  C
  C678     1.0000 0.99860  0.21700  0.90048  Biso   1.000  C
  O792     1.0000 0.96560  0.61090  0.40008  Biso   1.000  O
  O793     1.0000 0.98020  0.57650  0.38130  Biso   1.000  O
  O794     1.0000 0.91300  0.49020  0.44280  Biso   1.000  O
  O795     1.0000 0.98736  0.66282  0.39246  Biso   1.000  O
  O796     1.0000 0.02509  0.65704  0.37165  Biso   1.000  O
  O797     1.0000 0.99675  0.78461  0.42086  Biso   1.000  O
  O798     1.0000 0.96002  0.86173  0.42922  Biso   1.000  O
  C679     1.0000 0.96500  0.58660  0.39590  Biso   1.000  C
  C680     1.0000 0.94480  0.57140  0.41220  Biso   1.000  C
  C681     1.0000 0.94410  0.54470  0.40940  Biso   1.000  C
  C682     1.0000 0.00900  0.67110  0.38350  Biso   1.000  C
  C683     1.0000 0.01640  0.69960  0.38900  Biso   1.000  C
  C684     1.0000 0.99860  0.71700  0.40048  Biso   1.000  C
  O799     1.0000 0.46560  0.11090  0.40008  Biso   1.000  O
  O800     1.0000 0.48020  0.07650  0.38130  Biso   1.000  O
  O801     1.0000 0.41300  0.99020  0.44280  Biso   1.000  O
  O802     1.0000 0.48736  0.16282  0.39246  Biso   1.000  O
  O803     1.0000 0.52509  0.15704  0.37165  Biso   1.000  O
  O804     1.0000 0.49675  0.28461  0.42086  Biso   1.000  O
  O805     1.0000 0.46002  0.36173  0.42922  Biso   1.000  O
  C685     1.0000 0.46500  0.08660  0.39590  Biso   1.000  C
  C686     1.0000 0.44480  0.07140  0.41220  Biso   1.000  C
  C687     1.0000 0.44410  0.04470  0.40940  Biso   1.000  C
  C688     1.0000 0.50900  0.17110  0.38350  Biso   1.000  C
  C689     1.0000 0.51640  0.19960  0.38900  Biso   1.000  C
  C690     1.0000 0.49860  0.21700  0.40048  Biso   1.000  C
  O806     1.0000 0.46560  0.61090  0.90008  Biso   1.000  O
  O807     1.0000 0.48020  0.57650  0.88130  Biso   1.000  O
  O808     1.0000 0.41300  0.49020  0.94280  Biso   1.000  O
  O809     1.0000 0.48736  0.66282  0.89246  Biso   1.000  O
  O810     1.0000 0.52509  0.65704  0.87165  Biso   1.000  O
  O811     1.0000 0.49675  0.78461  0.92086  Biso   1.000  O
  O812     1.0000 0.46002  0.86173  0.92922  Biso   1.000  O
  C691     1.0000 0.46500  0.58660  0.89590  Biso   1.000  C
  C692     1.0000 0.44480  0.57140  0.91220  Biso   1.000  C
  C693     1.0000 0.44410  0.54470  0.90940  Biso   1.000  C
  C694     1.0000 0.50900  0.67110  0.88350  Biso   1.000  C
  C695     1.0000 0.51640  0.69960  0.88900  Biso   1.000  C
  C696     1.0000 0.49860  0.71700  0.90048  Biso   1.000  C
  O813     1.0000 0.46560  0.13910  0.84992  Biso   1.000  O
  O814     1.0000 0.48020  0.17350  0.86870  Biso   1.000  O
  O815     1.0000 0.41300  0.25980  0.80720  Biso   1.000  O
  O816     1.0000 0.48736  0.08718  0.85754  Biso   1.000  O
  O817     1.0000 0.52509  0.09296  0.87835  Biso   1.000  O
  O818     1.0000 0.49675  0.96539  0.82914  Biso   1.000  O
  O819     1.0000 0.46002  0.88827  0.82078  Biso   1.000  O
  C697     1.0000 0.46500  0.16340  0.85410  Biso   1.000  C
  C698     1.0000 0.44480  0.17860  0.83780  Biso   1.000  C
  C699     1.0000 0.44410  0.20530  0.84060  Biso   1.000  C
  C700     1.0000 0.50900  0.07890  0.86650  Biso   1.000  C
  C701     1.0000 0.51640  0.05040  0.86100  Biso   1.000  C
  C702     1.0000 0.49860  0.03300  0.84952  Biso   1.000  C
  O820     1.0000 0.46560  0.63910  0.34992  Biso   1.000  O
  O821     1.0000 0.48020  0.67350  0.36870  Biso   1.000  O
  O822     1.0000 0.41300  0.75980  0.30720  Biso   1.000  O
  O823     1.0000 0.48736  0.58718  0.35754  Biso   1.000  O
  O824     1.0000 0.52509  0.59296  0.37835  Biso   1.000  O
  O825     1.0000 0.49675  0.46539  0.32914  Biso   1.000  O
  O826     1.0000 0.46002  0.38827  0.32078  Biso   1.000  O
  C703     1.0000 0.46500  0.66340  0.35410  Biso   1.000  C
  C704     1.0000 0.44480  0.67860  0.33780  Biso   1.000  C
  C705     1.0000 0.44410  0.70530  0.34060  Biso   1.000  C
  C706     1.0000 0.50900  0.57890  0.36650  Biso   1.000  C
  C707     1.0000 0.51640  0.55040  0.36100  Biso   1.000  C
  C708     1.0000 0.49860  0.53300  0.34952  Biso   1.000  C
  O827     1.0000 0.96560  0.13910  0.34992  Biso   1.000  O
  O828     1.0000 0.98020  0.17350  0.36870  Biso   1.000  O
  O829     1.0000 0.91300  0.25980  0.30720  Biso   1.000  O
  O830     1.0000 0.98736  0.08718  0.35754  Biso   1.000  O
  O831     1.0000 0.02509  0.09296  0.37835  Biso   1.000  O
  O832     1.0000 0.99675  0.96539  0.32914  Biso   1.000  O
  O833     1.0000 0.96002  0.88827  0.32078  Biso   1.000  O
  C709     1.0000 0.96500  0.16340  0.35410  Biso   1.000  C
  C710     1.0000 0.94480  0.17860  0.33780  Biso   1.000  C
  C711     1.0000 0.94410  0.20530  0.34060  Biso   1.000  C
  C712     1.0000 0.00900  0.07890  0.36650  Biso   1.000  C
  C713     1.0000 0.01640  0.05040  0.36100  Biso   1.000  C
  C714     1.0000 0.99860  0.03300  0.34952  Biso   1.000  C
  O834     1.0000 0.96560  0.63910  0.84992  Biso   1.000  O
  O835     1.0000 0.98020  0.67350  0.86870  Biso   1.000  O
  O836     1.0000 0.91300  0.75980  0.80720  Biso   1.000  O
  O837     1.0000 0.98736  0.58718  0.85754  Biso   1.000  O
  O838     1.0000 0.02509  0.59296  0.87835  Biso   1.000  O
  O839     1.0000 0.99675  0.46539  0.82914  Biso   1.000  O
  O840     1.0000 0.96002  0.38827  0.82078  Biso   1.000  O
  C715     1.0000 0.96500  0.66340  0.85410  Biso   1.000  C
  C716     1.0000 0.94480  0.67860  0.83780  Biso   1.000  C
  C717     1.0000 0.94410  0.70530  0.84060  Biso   1.000  C
  C718     1.0000 0.00900  0.57890  0.86650  Biso   1.000  C
  C719     1.0000 0.01640  0.55040  0.86100  Biso   1.000  C
  C720     1.0000 0.99860  0.53300  0.84952  Biso   1.000  C
  O841     1.0000 0.28440  0.63910  0.40008  Biso   1.000  O
  O842     1.0000 0.26980  0.67350  0.38130  Biso   1.000  O
  O843     1.0000 0.33700  0.75980  0.44280  Biso   1.000  O
  O844     1.0000 0.26264  0.58718  0.39246  Biso   1.000  O
  O845     1.0000 0.22491  0.59296  0.37165  Biso   1.000  O
  O846     1.0000 0.25325  0.46539  0.42086  Biso   1.000  O
  O847     1.0000 0.28998  0.38827  0.42922  Biso   1.000  O
  C721     1.0000 0.28500  0.66340  0.39590  Biso   1.000  C
  C722     1.0000 0.30520  0.67860  0.41220  Biso   1.000  C
  C723     1.0000 0.30590  0.70530  0.40940  Biso   1.000  C
  C724     1.0000 0.24100  0.57890  0.38350  Biso   1.000  C
  C725     1.0000 0.23360  0.55040  0.38900  Biso   1.000  C
  C726     1.0000 0.25140  0.53300  0.40048  Biso   1.000  C
  O848     1.0000 0.28440  0.13910  0.90008  Biso   1.000  O
  O849     1.0000 0.26980  0.17350  0.88130  Biso   1.000  O
  O850     1.0000 0.33700  0.25980  0.94280  Biso   1.000  O
  O851     1.0000 0.26264  0.08718  0.89246  Biso   1.000  O
  O852     1.0000 0.22491  0.09296  0.87165  Biso   1.000  O
  O853     1.0000 0.25325  0.96539  0.92086  Biso   1.000  O
  O854     1.0000 0.28998  0.88827  0.92922  Biso   1.000  O
  C727     1.0000 0.28500  0.16340  0.89590  Biso   1.000  C
  C728     1.0000 0.30520  0.17860  0.91220  Biso   1.000  C
  C729     1.0000 0.30590  0.20530  0.90940  Biso   1.000  C
  C730     1.0000 0.24100  0.07890  0.88350  Biso   1.000  C
  C731     1.0000 0.23360  0.05040  0.88900  Biso   1.000  C
  C732     1.0000 0.25140  0.03300  0.90048  Biso   1.000  C
  O855     1.0000 0.78440  0.63910  0.90008  Biso   1.000  O
  O856     1.0000 0.76980  0.67350  0.88130  Biso   1.000  O
  O857     1.0000 0.83700  0.75980  0.94280  Biso   1.000  O
  O858     1.0000 0.76264  0.58718  0.89246  Biso   1.000  O
  O859     1.0000 0.72491  0.59296  0.87165  Biso   1.000  O
  O860     1.0000 0.75325  0.46539  0.92086  Biso   1.000  O
  O861     1.0000 0.78998  0.38827  0.92922  Biso   1.000  O
  C733     1.0000 0.78500  0.66340  0.89590  Biso   1.000  C
  C734     1.0000 0.80520  0.67860  0.91220  Biso   1.000  C
  C735     1.0000 0.80590  0.70530  0.90940  Biso   1.000  C
  C736     1.0000 0.74100  0.57890  0.88350  Biso   1.000  C
  C737     1.0000 0.73360  0.55040  0.88900  Biso   1.000  C
  C738     1.0000 0.75140  0.53300  0.90048  Biso   1.000  C
  O862     1.0000 0.78440  0.13910  0.40008  Biso   1.000  O
  O863     1.0000 0.76980  0.17350  0.38130  Biso   1.000  O
  O864     1.0000 0.83700  0.25980  0.44280  Biso   1.000  O
  O865     1.0000 0.76264  0.08718  0.39246  Biso   1.000  O
  O866     1.0000 0.72491  0.09296  0.37165  Biso   1.000  O
  O867     1.0000 0.75325  0.96539  0.42086  Biso   1.000  O
  O868     1.0000 0.78998  0.88827  0.42922  Biso   1.000  O
  C739     1.0000 0.78500  0.16340  0.39590  Biso   1.000  C
  C740     1.0000 0.80520  0.17860  0.41220  Biso   1.000  C
  C741     1.0000 0.80590  0.20530  0.40940  Biso   1.000  C
  C742     1.0000 0.74100  0.07890  0.38350  Biso   1.000  C
  C743     1.0000 0.73360  0.05040  0.38900  Biso   1.000  C
  C744     1.0000 0.75140  0.03300  0.40048  Biso   1.000  C
  O869     1.0000 0.78440  0.61090  0.34992  Biso   1.000  O
  O870     1.0000 0.76980  0.57650  0.36870  Biso   1.000  O
  O871     1.0000 0.83700  0.49020  0.30720  Biso   1.000  O
  O872     1.0000 0.76264  0.66282  0.35754  Biso   1.000  O
  O873     1.0000 0.72491  0.65704  0.37835  Biso   1.000  O
  O874     1.0000 0.75325  0.78461  0.32914  Biso   1.000  O
  O875     1.0000 0.78998  0.86173  0.32078  Biso   1.000  O
  C745     1.0000 0.78500  0.58660  0.35410  Biso   1.000  C
  C746     1.0000 0.80520  0.57140  0.33780  Biso   1.000  C
  C747     1.0000 0.80590  0.54470  0.34060  Biso   1.000  C
  C748     1.0000 0.74100  0.67110  0.36650  Biso   1.000  C
  C749     1.0000 0.73360  0.69960  0.36100  Biso   1.000  C
  C750     1.0000 0.75140  0.71700  0.34952  Biso   1.000  C
  O876     1.0000 0.78440  0.11090  0.84992  Biso   1.000  O
  O877     1.0000 0.76980  0.07650  0.86870  Biso   1.000  O
  O878     1.0000 0.83700  0.99020  0.80720  Biso   1.000  O
  O879     1.0000 0.76264  0.16282  0.85754  Biso   1.000  O
  O880     1.0000 0.72491  0.15704  0.87835  Biso   1.000  O
  O881     1.0000 0.75325  0.28461  0.82914  Biso   1.000  O
  O882     1.0000 0.78998  0.36173  0.82078  Biso   1.000  O
  C751     1.0000 0.78500  0.08660  0.85410  Biso   1.000  C
  C752     1.0000 0.80520  0.07140  0.83780  Biso   1.000  C
  C753     1.0000 0.80590  0.04470  0.84060  Biso   1.000  C
  C754     1.0000 0.74100  0.17110  0.86650  Biso   1.000  C
  C755     1.0000 0.73360  0.19960  0.86100  Biso   1.000  C
  C756     1.0000 0.75140  0.21700  0.84952  Biso   1.000  C
  O883     1.0000 0.28440  0.61090  0.84992  Biso   1.000  O
  O884     1.0000 0.26980  0.57650  0.86870  Biso   1.000  O
  O885     1.0000 0.33700  0.49020  0.80720  Biso   1.000  O
  O886     1.0000 0.26264  0.66282  0.85754  Biso   1.000  O
  O887     1.0000 0.22491  0.65704  0.87835  Biso   1.000  O
  O888     1.0000 0.25325  0.78461  0.82914  Biso   1.000  O
  O889     1.0000 0.28998  0.86173  0.82078  Biso   1.000  O
  C757     1.0000 0.28500  0.58660  0.85410  Biso   1.000  C
  C758     1.0000 0.30520  0.57140  0.83780  Biso   1.000  C
  C759     1.0000 0.30590  0.54470  0.84060  Biso   1.000  C
  C760     1.0000 0.24100  0.67110  0.86650  Biso   1.000  C
  C761     1.0000 0.23360  0.69960  0.86100  Biso   1.000  C
  C762     1.0000 0.25140  0.71700  0.84952  Biso   1.000  C
  O890     1.0000 0.28440  0.11090  0.34992  Biso   1.000  O
  O891     1.0000 0.26980  0.07650  0.36870  Biso   1.000  O
  O892     1.0000 0.33700  0.99020  0.30720  Biso   1.000  O
  O893     1.0000 0.26264  0.16282  0.35754  Biso   1.000  O
  O894     1.0000 0.22491  0.15704  0.37835  Biso   1.000  O
  O895     1.0000 0.25325  0.28461  0.32914  Biso   1.000  O
  O896     1.0000 0.28998  0.36173  0.32078  Biso   1.000  O
  C763     1.0000 0.28500  0.08660  0.35410  Biso   1.000  C
  C764     1.0000 0.30520  0.07140  0.33780  Biso   1.000  C
  C765     1.0000 0.30590  0.04470  0.34060  Biso   1.000  C
  C766     1.0000 0.24100  0.17110  0.36650  Biso   1.000  C
  C767     1.0000 0.23360  0.19960  0.36100  Biso   1.000  C
  C768     1.0000 0.25140  0.21700  0.34952  Biso   1.000  C
  O897     1.0000 0.90008  0.96560  0.11090  Biso   1.000  O
  O898     1.0000 0.88130  0.98020  0.07650  Biso   1.000  O
  O899     1.0000 0.94280  0.91300  0.99020  Biso   1.000  O
  O900     1.0000 0.89246  0.98736  0.16282  Biso   1.000  O
  O901     1.0000 0.87165  0.02509  0.15704  Biso   1.000  O
  O902     1.0000 0.92086  0.99675  0.28461  Biso   1.000  O
  O903     1.0000 0.92922  0.96002  0.36173  Biso   1.000  O
  C769     1.0000 0.89590  0.96500  0.08660  Biso   1.000  C
  C770     1.0000 0.91220  0.94480  0.07140  Biso   1.000  C
  C771     1.0000 0.90940  0.94410  0.04470  Biso   1.000  C
  C772     1.0000 0.88350  0.00900  0.17110  Biso   1.000  C
  C773     1.0000 0.88900  0.01640  0.19960  Biso   1.000  C
  C774     1.0000 0.90048  0.99860  0.21700  Biso   1.000  C
  O904     1.0000 0.90008  0.46560  0.61090  Biso   1.000  O
  O905     1.0000 0.88130  0.48020  0.57650  Biso   1.000  O
  O906     1.0000 0.94280  0.41300  0.49020  Biso   1.000  O
  O907     1.0000 0.89246  0.48736  0.66282  Biso   1.000  O
  O908     1.0000 0.87165  0.52509  0.65704  Biso   1.000  O
  O909     1.0000 0.92086  0.49675  0.78461  Biso   1.000  O
  O910     1.0000 0.92922  0.46002  0.86173  Biso   1.000  O
  C775     1.0000 0.89590  0.46500  0.58660  Biso   1.000  C
  C776     1.0000 0.91220  0.44480  0.57140  Biso   1.000  C
  C777     1.0000 0.90940  0.44410  0.54470  Biso   1.000  C
  C778     1.0000 0.88350  0.50900  0.67110  Biso   1.000  C
  C779     1.0000 0.88900  0.51640  0.69960  Biso   1.000  C
  C780     1.0000 0.90048  0.49860  0.71700  Biso   1.000  C
  O911     1.0000 0.40008  0.96560  0.61090  Biso   1.000  O
  O912     1.0000 0.38130  0.98020  0.57650  Biso   1.000  O
  O913     1.0000 0.44280  0.91300  0.49020  Biso   1.000  O
  O914     1.0000 0.39246  0.98736  0.66282  Biso   1.000  O
  O915     1.0000 0.37165  0.02509  0.65704  Biso   1.000  O
  O916     1.0000 0.42086  0.99675  0.78461  Biso   1.000  O
  O917     1.0000 0.42922  0.96002  0.86173  Biso   1.000  O
  C781     1.0000 0.39590  0.96500  0.58660  Biso   1.000  C
  C782     1.0000 0.41220  0.94480  0.57140  Biso   1.000  C
  C783     1.0000 0.40940  0.94410  0.54470  Biso   1.000  C
  C784     1.0000 0.38350  0.00900  0.67110  Biso   1.000  C
  C785     1.0000 0.38900  0.01640  0.69960  Biso   1.000  C
  C786     1.0000 0.40048  0.99860  0.71700  Biso   1.000  C
  O918     1.0000 0.40008  0.46560  0.11090  Biso   1.000  O
  O919     1.0000 0.38130  0.48020  0.07650  Biso   1.000  O
  O920     1.0000 0.44280  0.41300  0.99020  Biso   1.000  O
  O921     1.0000 0.39246  0.48736  0.16282  Biso   1.000  O
  O922     1.0000 0.37165  0.52509  0.15704  Biso   1.000  O
  O923     1.0000 0.42086  0.49675  0.28461  Biso   1.000  O
  O924     1.0000 0.42922  0.46002  0.36173  Biso   1.000  O
  C787     1.0000 0.39590  0.46500  0.08660  Biso   1.000  C
  C788     1.0000 0.41220  0.44480  0.07140  Biso   1.000  C
  C789     1.0000 0.40940  0.44410  0.04470  Biso   1.000  C
  C790     1.0000 0.38350  0.50900  0.17110  Biso   1.000  C
  C791     1.0000 0.38900  0.51640  0.19960  Biso   1.000  C
  C792     1.0000 0.40048  0.49860  0.21700  Biso   1.000  C
  O925     1.0000 0.84992  0.46560  0.13910  Biso   1.000  O
  O926     1.0000 0.86870  0.48020  0.17350  Biso   1.000  O
  O927     1.0000 0.80720  0.41300  0.25980  Biso   1.000  O
  O928     1.0000 0.85754  0.48736  0.08718  Biso   1.000  O
  O929     1.0000 0.87835  0.52509  0.09296  Biso   1.000  O
  O930     1.0000 0.82914  0.49675  0.96539  Biso   1.000  O
  O931     1.0000 0.82078  0.46002  0.88827  Biso   1.000  O
  C793     1.0000 0.85410  0.46500  0.16340  Biso   1.000  C
  C794     1.0000 0.83780  0.44480  0.17860  Biso   1.000  C
  C795     1.0000 0.84060  0.44410  0.20530  Biso   1.000  C
  C796     1.0000 0.86650  0.50900  0.07890  Biso   1.000  C
  C797     1.0000 0.86100  0.51640  0.05040  Biso   1.000  C
  C798     1.0000 0.84952  0.49860  0.03300  Biso   1.000  C
  O932     1.0000 0.84992  0.96560  0.63910  Biso   1.000  O
  O933     1.0000 0.86870  0.98020  0.67350  Biso   1.000  O
  O934     1.0000 0.80720  0.91300  0.75980  Biso   1.000  O
  O935     1.0000 0.85754  0.98736  0.58718  Biso   1.000  O
  O936     1.0000 0.87835  0.02509  0.59296  Biso   1.000  O
  O937     1.0000 0.82914  0.99675  0.46539  Biso   1.000  O
  O938     1.0000 0.82078  0.96002  0.38827  Biso   1.000  O
  C799     1.0000 0.85410  0.96500  0.66340  Biso   1.000  C
  C800     1.0000 0.83780  0.94480  0.67860  Biso   1.000  C
  C801     1.0000 0.84060  0.94410  0.70530  Biso   1.000  C
  C802     1.0000 0.86650  0.00900  0.57890  Biso   1.000  C
  C803     1.0000 0.86100  0.01640  0.55040  Biso   1.000  C
  C804     1.0000 0.84952  0.99860  0.53300  Biso   1.000  C
  O939     1.0000 0.34992  0.46560  0.63910  Biso   1.000  O
  O940     1.0000 0.36870  0.48020  0.67350  Biso   1.000  O
  O941     1.0000 0.30720  0.41300  0.75980  Biso   1.000  O
  O942     1.0000 0.35754  0.48736  0.58718  Biso   1.000  O
  O943     1.0000 0.37835  0.52509  0.59296  Biso   1.000  O
  O944     1.0000 0.32914  0.49675  0.46539  Biso   1.000  O
  O945     1.0000 0.32078  0.46002  0.38827  Biso   1.000  O
  C805     1.0000 0.35410  0.46500  0.66340  Biso   1.000  C
  C806     1.0000 0.33780  0.44480  0.67860  Biso   1.000  C
  C807     1.0000 0.34060  0.44410  0.70530  Biso   1.000  C
  C808     1.0000 0.36650  0.50900  0.57890  Biso   1.000  C
  C809     1.0000 0.36100  0.51640  0.55040  Biso   1.000  C
  C810     1.0000 0.34952  0.49860  0.53300  Biso   1.000  C
  O946     1.0000 0.34992  0.96560  0.13910  Biso   1.000  O
  O947     1.0000 0.36870  0.98020  0.17350  Biso   1.000  O
  O948     1.0000 0.30720  0.91300  0.25980  Biso   1.000  O
  O949     1.0000 0.35754  0.98736  0.08718  Biso   1.000  O
  O950     1.0000 0.37835  0.02509  0.09296  Biso   1.000  O
  O951     1.0000 0.32914  0.99675  0.96539  Biso   1.000  O
  O952     1.0000 0.32078  0.96002  0.88827  Biso   1.000  O
  C811     1.0000 0.35410  0.96500  0.16340  Biso   1.000  C
  C812     1.0000 0.33780  0.94480  0.17860  Biso   1.000  C
  C813     1.0000 0.34060  0.94410  0.20530  Biso   1.000  C
  C814     1.0000 0.36650  0.00900  0.07890  Biso   1.000  C
  C815     1.0000 0.36100  0.01640  0.05040  Biso   1.000  C
  C816     1.0000 0.34952  0.99860  0.03300  Biso   1.000  C
  O953     1.0000 0.40008  0.28440  0.63910  Biso   1.000  O
  O954     1.0000 0.38130  0.26980  0.67350  Biso   1.000  O
  O955     1.0000 0.44280  0.33700  0.75980  Biso   1.000  O
  O956     1.0000 0.39246  0.26264  0.58718  Biso   1.000  O
  O957     1.0000 0.37165  0.22491  0.59296  Biso   1.000  O
  O958     1.0000 0.42086  0.25325  0.46539  Biso   1.000  O
  O959     1.0000 0.42922  0.28998  0.38827  Biso   1.000  O
  C817     1.0000 0.39590  0.28500  0.66340  Biso   1.000  C
  C818     1.0000 0.41220  0.30520  0.67860  Biso   1.000  C
  C819     1.0000 0.40940  0.30590  0.70530  Biso   1.000  C
  C820     1.0000 0.38350  0.24100  0.57890  Biso   1.000  C
  C821     1.0000 0.38900  0.23360  0.55040  Biso   1.000  C
  C822     1.0000 0.40048  0.25140  0.53300  Biso   1.000  C
  O960     1.0000 0.40008  0.78440  0.13910  Biso   1.000  O
  O961     1.0000 0.38130  0.76980  0.17350  Biso   1.000  O
  O962     1.0000 0.44280  0.83700  0.25980  Biso   1.000  O
  O963     1.0000 0.39246  0.76264  0.08718  Biso   1.000  O
  O964     1.0000 0.37165  0.72491  0.09296  Biso   1.000  O
  O965     1.0000 0.42086  0.75325  0.96539  Biso   1.000  O
  O966     1.0000 0.42922  0.78998  0.88827  Biso   1.000  O
  C823     1.0000 0.39590  0.78500  0.16340  Biso   1.000  C
  C824     1.0000 0.41220  0.80520  0.17860  Biso   1.000  C
  C825     1.0000 0.40940  0.80590  0.20530  Biso   1.000  C
  C826     1.0000 0.38350  0.74100  0.07890  Biso   1.000  C
  C827     1.0000 0.38900  0.73360  0.05040  Biso   1.000  C
  C828     1.0000 0.40048  0.75140  0.03300  Biso   1.000  C
  O967     1.0000 0.90008  0.28440  0.13910  Biso   1.000  O
  O968     1.0000 0.88130  0.26980  0.17350  Biso   1.000  O
  O969     1.0000 0.94280  0.33700  0.25980  Biso   1.000  O
  O970     1.0000 0.89246  0.26264  0.08718  Biso   1.000  O
  O971     1.0000 0.87165  0.22491  0.09296  Biso   1.000  O
  O972     1.0000 0.92086  0.25325  0.96539  Biso   1.000  O
  O973     1.0000 0.92922  0.28998  0.88827  Biso   1.000  O
  C829     1.0000 0.89590  0.28500  0.16340  Biso   1.000  C
  C830     1.0000 0.91220  0.30520  0.17860  Biso   1.000  C
  C831     1.0000 0.90940  0.30590  0.20530  Biso   1.000  C
  C832     1.0000 0.88350  0.24100  0.07890  Biso   1.000  C
  C833     1.0000 0.88900  0.23360  0.05040  Biso   1.000  C
  C834     1.0000 0.90048  0.25140  0.03300  Biso   1.000  C
  O974     1.0000 0.90008  0.78440  0.63910  Biso   1.000  O
  O975     1.0000 0.88130  0.76980  0.67350  Biso   1.000  O
  O976     1.0000 0.94280  0.83700  0.75980  Biso   1.000  O
  O977     1.0000 0.89246  0.76264  0.58718  Biso   1.000  O
  O978     1.0000 0.87165  0.72491  0.59296  Biso   1.000  O
  O979     1.0000 0.92086  0.75325  0.46539  Biso   1.000  O
  O980     1.0000 0.92922  0.78998  0.38827  Biso   1.000  O
  C835     1.0000 0.89590  0.78500  0.66340  Biso   1.000  C
  C836     1.0000 0.91220  0.80520  0.67860  Biso   1.000  C
  C837     1.0000 0.90940  0.80590  0.70530  Biso   1.000  C
  C838     1.0000 0.88350  0.74100  0.57890  Biso   1.000  C
  C839     1.0000 0.88900  0.73360  0.55040  Biso   1.000  C
  C840     1.0000 0.90048  0.75140  0.53300  Biso   1.000  C
  O981     1.0000 0.34992  0.78440  0.61090  Biso   1.000  O
  O982     1.0000 0.36870  0.76980  0.57650  Biso   1.000  O
  O983     1.0000 0.30720  0.83700  0.49020  Biso   1.000  O
  O984     1.0000 0.35754  0.76264  0.66282  Biso   1.000  O
  O985     1.0000 0.37835  0.72491  0.65704  Biso   1.000  O
  O986     1.0000 0.32914  0.75325  0.78461  Biso   1.000  O
  O987     1.0000 0.32078  0.78998  0.86173  Biso   1.000  O
  C841     1.0000 0.35410  0.78500  0.58660  Biso   1.000  C
  C842     1.0000 0.33780  0.80520  0.57140  Biso   1.000  C
  C843     1.0000 0.34060  0.80590  0.54470  Biso   1.000  C
  C844     1.0000 0.36650  0.74100  0.67110  Biso   1.000  C
  C845     1.0000 0.36100  0.73360  0.69960  Biso   1.000  C
  C846     1.0000 0.34952  0.75140  0.71700  Biso   1.000  C
  O988     1.0000 0.34992  0.28440  0.11090  Biso   1.000  O
  O989     1.0000 0.36870  0.26980  0.07650  Biso   1.000  O
  O990     1.0000 0.30720  0.33700  0.99020  Biso   1.000  O
  O991     1.0000 0.35754  0.26264  0.16282  Biso   1.000  O
  O992     1.0000 0.37835  0.22491  0.15704  Biso   1.000  O
  O993     1.0000 0.32914  0.25325  0.28461  Biso   1.000  O
  O994     1.0000 0.32078  0.28998  0.36173  Biso   1.000  O
  C847     1.0000 0.35410  0.28500  0.08660  Biso   1.000  C
  C848     1.0000 0.33780  0.30520  0.07140  Biso   1.000  C
  C849     1.0000 0.34060  0.30590  0.04470  Biso   1.000  C
  C850     1.0000 0.36650  0.24100  0.17110  Biso   1.000  C
  C851     1.0000 0.36100  0.23360  0.19960  Biso   1.000  C
  C852     1.0000 0.34952  0.25140  0.21700  Biso   1.000  C
  O995     1.0000 0.84992  0.78440  0.11090  Biso   1.000  O
  O996     1.0000 0.86870  0.76980  0.07650  Biso   1.000  O
  O997     1.0000 0.80720  0.83700  0.99020  Biso   1.000  O
  O998     1.0000 0.85754  0.76264  0.16282  Biso   1.000  O
  O999     1.0000 0.87835  0.72491  0.15704  Biso   1.000  O
  O1000    1.0000 0.82914  0.75325  0.28461  Biso   1.000  O
  O1001    1.0000 0.82078  0.78998  0.36173  Biso   1.000  O
  C853     1.0000 0.85410  0.78500  0.08660  Biso   1.000  C
  C854     1.0000 0.83780  0.80520  0.07140  Biso   1.000  C
  C855     1.0000 0.84060  0.80590  0.04470  Biso   1.000  C
  C856     1.0000 0.86650  0.74100  0.17110  Biso   1.000  C
  C857     1.0000 0.86100  0.73360  0.19960  Biso   1.000  C
  C858     1.0000 0.84952  0.75140  0.21700  Biso   1.000  C
  O1002    1.0000 0.84992  0.28440  0.61090  Biso   1.000  O
  O1003    1.0000 0.86870  0.26980  0.57650  Biso   1.000  O
  O1004    1.0000 0.80720  0.33700  0.49020  Biso   1.000  O
  O1005    1.0000 0.85754  0.26264  0.66282  Biso   1.000  O
  O1006    1.0000 0.87835  0.22491  0.65704  Biso   1.000  O
  O1007    1.0000 0.82914  0.25325  0.78461  Biso   1.000  O
  O1008    1.0000 0.82078  0.28998  0.86173  Biso   1.000  O
  C859     1.0000 0.85410  0.28500  0.58660  Biso   1.000  C
  C860     1.0000 0.83780  0.30520  0.57140  Biso   1.000  C
  C861     1.0000 0.84060  0.30590  0.54470  Biso   1.000  C
  C862     1.0000 0.86650  0.24100  0.67110  Biso   1.000  C
  C863     1.0000 0.86100  0.23360  0.69960  Biso   1.000  C
  C864     1.0000 0.84952  0.25140  0.71700  Biso   1.000  C
  O1009    1.0000 0.15008  0.86090  0.53440  Biso   1.000  O
  O1010    1.0000 0.13130  0.82650  0.51980  Biso   1.000  O
  O1011    1.0000 0.19280  0.74020  0.58700  Biso   1.000  O
  O1012    1.0000 0.14246  0.91282  0.51264  Biso   1.000  O
  O1013    1.0000 0.12165  0.90704  0.47491  Biso   1.000  O
  O1014    1.0000 0.17086  0.03461  0.50325  Biso   1.000  O
  O1015    1.0000 0.17922  0.11173  0.53998  Biso   1.000  O
  C865     1.0000 0.14590  0.83660  0.53500  Biso   1.000  C
  C866     1.0000 0.16220  0.82140  0.55520  Biso   1.000  C
  C867     1.0000 0.15940  0.79470  0.55590  Biso   1.000  C
  C868     1.0000 0.13350  0.92110  0.49100  Biso   1.000  C
  C869     1.0000 0.13900  0.94960  0.48360  Biso   1.000  C
  C870     1.0000 0.15048  0.96700  0.50140  Biso   1.000  C
  O1016    1.0000 0.15008  0.36090  0.03440  Biso   1.000  O
  O1017    1.0000 0.13130  0.32650  0.01980  Biso   1.000  O
  O1018    1.0000 0.19280  0.24020  0.08700  Biso   1.000  O
  O1019    1.0000 0.14246  0.41282  0.01264  Biso   1.000  O
  O1020    1.0000 0.12165  0.40704  0.97491  Biso   1.000  O
  O1021    1.0000 0.17086  0.53461  0.00325  Biso   1.000  O
  O1022    1.0000 0.17922  0.61173  0.03998  Biso   1.000  O
  C871     1.0000 0.14590  0.33660  0.03500  Biso   1.000  C
  C872     1.0000 0.16220  0.32140  0.05520  Biso   1.000  C
  C873     1.0000 0.15940  0.29470  0.05590  Biso   1.000  C
  C874     1.0000 0.13350  0.42110  0.99100  Biso   1.000  C
  C875     1.0000 0.13900  0.44960  0.98360  Biso   1.000  C
  C876     1.0000 0.15048  0.46700  0.00140  Biso   1.000  C
  O1023    1.0000 0.65008  0.86090  0.03440  Biso   1.000  O
  O1024    1.0000 0.63130  0.82650  0.01980  Biso   1.000  O
  O1025    1.0000 0.69280  0.74020  0.08700  Biso   1.000  O
  O1026    1.0000 0.64246  0.91282  0.01264  Biso   1.000  O
  O1027    1.0000 0.62165  0.90704  0.97491  Biso   1.000  O
  O1028    1.0000 0.67086  0.03461  0.00325  Biso   1.000  O
  O1029    1.0000 0.67922  0.11173  0.03998  Biso   1.000  O
  C877     1.0000 0.64590  0.83660  0.03500  Biso   1.000  C
  C878     1.0000 0.66220  0.82140  0.05520  Biso   1.000  C
  C879     1.0000 0.65940  0.79470  0.05590  Biso   1.000  C
  C880     1.0000 0.63350  0.92110  0.99100  Biso   1.000  C
  C881     1.0000 0.63900  0.94960  0.98360  Biso   1.000  C
  C882     1.0000 0.65048  0.96700  0.00140  Biso   1.000  C
  O1030    1.0000 0.65008  0.36090  0.53440  Biso   1.000  O
  O1031    1.0000 0.63130  0.32650  0.51980  Biso   1.000  O
  O1032    1.0000 0.69280  0.24020  0.58700  Biso   1.000  O
  O1033    1.0000 0.64246  0.41282  0.51264  Biso   1.000  O
  O1034    1.0000 0.62165  0.40704  0.47491  Biso   1.000  O
  O1035    1.0000 0.67086  0.53461  0.50325  Biso   1.000  O
  O1036    1.0000 0.67922  0.61173  0.53998  Biso   1.000  O
  C883     1.0000 0.64590  0.33660  0.53500  Biso   1.000  C
  C884     1.0000 0.66220  0.32140  0.55520  Biso   1.000  C
  C885     1.0000 0.65940  0.29470  0.55590  Biso   1.000  C
  C886     1.0000 0.63350  0.42110  0.49100  Biso   1.000  C
  C887     1.0000 0.63900  0.44960  0.48360  Biso   1.000  C
  C888     1.0000 0.65048  0.46700  0.50140  Biso   1.000  C
  O1037    1.0000 0.09992  0.88910  0.03440  Biso   1.000  O
  O1038    1.0000 0.11870  0.92350  0.01980  Biso   1.000  O
  O1039    1.0000 0.05720  0.00980  0.08700  Biso   1.000  O
  O1040    1.0000 0.10754  0.83718  0.01264  Biso   1.000  O
  O1041    1.0000 0.12835  0.84296  0.97491  Biso   1.000  O
  O1042    1.0000 0.07914  0.71539  0.00325  Biso   1.000  O
  O1043    1.0000 0.07078  0.63827  0.03998  Biso   1.000  O
  C889     1.0000 0.10410  0.91340  0.03500  Biso   1.000  C
  C890     1.0000 0.08780  0.92860  0.05520  Biso   1.000  C
  C891     1.0000 0.09060  0.95530  0.05590  Biso   1.000  C
  C892     1.0000 0.11650  0.82890  0.99100  Biso   1.000  C
  C893     1.0000 0.11100  0.80040  0.98360  Biso   1.000  C
  C894     1.0000 0.09952  0.78300  0.00140  Biso   1.000  C
  O1044    1.0000 0.09992  0.38910  0.53440  Biso   1.000  O
  O1045    1.0000 0.11870  0.42350  0.51980  Biso   1.000  O
  O1046    1.0000 0.05720  0.50980  0.58700  Biso   1.000  O
  O1047    1.0000 0.10754  0.33718  0.51264  Biso   1.000  O
  O1048    1.0000 0.12835  0.34296  0.47491  Biso   1.000  O
  O1049    1.0000 0.07914  0.21539  0.50325  Biso   1.000  O
  O1050    1.0000 0.07078  0.13827  0.53998  Biso   1.000  O
  C895     1.0000 0.10410  0.41340  0.53500  Biso   1.000  C
  C896     1.0000 0.08780  0.42860  0.55520  Biso   1.000  C
  C897     1.0000 0.09060  0.45530  0.55590  Biso   1.000  C
  C898     1.0000 0.11650  0.32890  0.49100  Biso   1.000  C
  C899     1.0000 0.11100  0.30040  0.48360  Biso   1.000  C
  C900     1.0000 0.09952  0.28300  0.50140  Biso   1.000  C
  O1051    1.0000 0.59992  0.88910  0.53440  Biso   1.000  O
  O1052    1.0000 0.61870  0.92350  0.51980  Biso   1.000  O
  O1053    1.0000 0.55720  0.00980  0.58700  Biso   1.000  O
  O1054    1.0000 0.60754  0.83718  0.51264  Biso   1.000  O
  O1055    1.0000 0.62835  0.84296  0.47491  Biso   1.000  O
  O1056    1.0000 0.57914  0.71539  0.50325  Biso   1.000  O
  O1057    1.0000 0.57078  0.63827  0.53998  Biso   1.000  O
  C901     1.0000 0.60410  0.91340  0.53500  Biso   1.000  C
  C902     1.0000 0.58780  0.92860  0.55520  Biso   1.000  C
  C903     1.0000 0.59060  0.95530  0.55590  Biso   1.000  C
  C904     1.0000 0.61650  0.82890  0.49100  Biso   1.000  C
  C905     1.0000 0.61100  0.80040  0.48360  Biso   1.000  C
  C906     1.0000 0.59952  0.78300  0.50140  Biso   1.000  C
  O1058    1.0000 0.59992  0.38910  0.03440  Biso   1.000  O
  O1059    1.0000 0.61870  0.42350  0.01980  Biso   1.000  O
  O1060    1.0000 0.55720  0.50980  0.08700  Biso   1.000  O
  O1061    1.0000 0.60754  0.33718  0.01264  Biso   1.000  O
  O1062    1.0000 0.62835  0.34296  0.97491  Biso   1.000  O
  O1063    1.0000 0.57914  0.21539  0.00325  Biso   1.000  O
  O1064    1.0000 0.57078  0.13827  0.03998  Biso   1.000  O
  C907     1.0000 0.60410  0.41340  0.03500  Biso   1.000  C
  C908     1.0000 0.58780  0.42860  0.05520  Biso   1.000  C
  C909     1.0000 0.59060  0.45530  0.05590  Biso   1.000  C
  C910     1.0000 0.61650  0.32890  0.99100  Biso   1.000  C
  C911     1.0000 0.61100  0.30040  0.98360  Biso   1.000  C
  C912     1.0000 0.59952  0.28300  0.00140  Biso   1.000  C
  O1065    1.0000 0.65008  0.38910  0.21560  Biso   1.000  O
  O1066    1.0000 0.63130  0.42350  0.23020  Biso   1.000  O
  O1067    1.0000 0.69280  0.50980  0.16300  Biso   1.000  O
  O1068    1.0000 0.64246  0.33718  0.23736  Biso   1.000  O
  O1069    1.0000 0.62165  0.34296  0.27509  Biso   1.000  O
  O1070    1.0000 0.67086  0.21539  0.24675  Biso   1.000  O
  O1071    1.0000 0.67922  0.13827  0.21002  Biso   1.000  O
  C913     1.0000 0.64590  0.41340  0.21500  Biso   1.000  C
  C914     1.0000 0.66220  0.42860  0.19480  Biso   1.000  C
  C915     1.0000 0.65940  0.45530  0.19410  Biso   1.000  C
  C916     1.0000 0.63350  0.32890  0.25900  Biso   1.000  C
  C917     1.0000 0.63900  0.30040  0.26640  Biso   1.000  C
  C918     1.0000 0.65048  0.28300  0.24860  Biso   1.000  C
  O1072    1.0000 0.65008  0.88910  0.71560  Biso   1.000  O
  O1073    1.0000 0.63130  0.92350  0.73020  Biso   1.000  O
  O1074    1.0000 0.69280  0.00980  0.66300  Biso   1.000  O
  O1075    1.0000 0.64246  0.83718  0.73736  Biso   1.000  O
  O1076    1.0000 0.62165  0.84296  0.77509  Biso   1.000  O
  O1077    1.0000 0.67086  0.71539  0.74675  Biso   1.000  O
  O1078    1.0000 0.67922  0.63827  0.71002  Biso   1.000  O
  C919     1.0000 0.64590  0.91340  0.71500  Biso   1.000  C
  C920     1.0000 0.66220  0.92860  0.69480  Biso   1.000  C
  C921     1.0000 0.65940  0.95530  0.69410  Biso   1.000  C
  C922     1.0000 0.63350  0.82890  0.75900  Biso   1.000  C
  C923     1.0000 0.63900  0.80040  0.76640  Biso   1.000  C
  C924     1.0000 0.65048  0.78300  0.74860  Biso   1.000  C
  O1079    1.0000 0.15008  0.38910  0.71560  Biso   1.000  O
  O1080    1.0000 0.13130  0.42350  0.73020  Biso   1.000  O
  O1081    1.0000 0.19280  0.50980  0.66300  Biso   1.000  O
  O1082    1.0000 0.14246  0.33718  0.73736  Biso   1.000  O
  O1083    1.0000 0.12165  0.34296  0.77509  Biso   1.000  O
  O1084    1.0000 0.17086  0.21539  0.74675  Biso   1.000  O
  O1085    1.0000 0.17922  0.13827  0.71002  Biso   1.000  O
  C925     1.0000 0.14590  0.41340  0.71500  Biso   1.000  C
  C926     1.0000 0.16220  0.42860  0.69480  Biso   1.000  C
  C927     1.0000 0.15940  0.45530  0.69410  Biso   1.000  C
  C928     1.0000 0.13350  0.32890  0.75900  Biso   1.000  C
  C929     1.0000 0.13900  0.30040  0.76640  Biso   1.000  C
  C930     1.0000 0.15048  0.28300  0.74860  Biso   1.000  C
  O1086    1.0000 0.15008  0.88910  0.21560  Biso   1.000  O
  O1087    1.0000 0.13130  0.92350  0.23020  Biso   1.000  O
  O1088    1.0000 0.19280  0.00980  0.16300  Biso   1.000  O
  O1089    1.0000 0.14246  0.83718  0.23736  Biso   1.000  O
  O1090    1.0000 0.12165  0.84296  0.27509  Biso   1.000  O
  O1091    1.0000 0.17086  0.71539  0.24675  Biso   1.000  O
  O1092    1.0000 0.17922  0.63827  0.21002  Biso   1.000  O
  C931     1.0000 0.14590  0.91340  0.21500  Biso   1.000  C
  C932     1.0000 0.16220  0.92860  0.19480  Biso   1.000  C
  C933     1.0000 0.15940  0.95530  0.19410  Biso   1.000  C
  C934     1.0000 0.13350  0.82890  0.25900  Biso   1.000  C
  C935     1.0000 0.13900  0.80040  0.26640  Biso   1.000  C
  C936     1.0000 0.15048  0.78300  0.24860  Biso   1.000  C
  O1093    1.0000 0.59992  0.36090  0.71560  Biso   1.000  O
  O1094    1.0000 0.61870  0.32650  0.73020  Biso   1.000  O
  O1095    1.0000 0.55720  0.24020  0.66300  Biso   1.000  O
  O1096    1.0000 0.60754  0.41282  0.73736  Biso   1.000  O
  O1097    1.0000 0.62835  0.40704  0.77509  Biso   1.000  O
  O1098    1.0000 0.57914  0.53461  0.74675  Biso   1.000  O
  O1099    1.0000 0.57078  0.61173  0.71002  Biso   1.000  O
  C937     1.0000 0.60410  0.33660  0.71500  Biso   1.000  C
  C938     1.0000 0.58780  0.32140  0.69480  Biso   1.000  C
  C939     1.0000 0.59060  0.29470  0.69410  Biso   1.000  C
  C940     1.0000 0.61650  0.42110  0.75900  Biso   1.000  C
  C941     1.0000 0.61100  0.44960  0.76640  Biso   1.000  C
  C942     1.0000 0.59952  0.46700  0.74860  Biso   1.000  C
  O1100    1.0000 0.59992  0.86090  0.21560  Biso   1.000  O
  O1101    1.0000 0.61870  0.82650  0.23020  Biso   1.000  O
  O1102    1.0000 0.55720  0.74020  0.16300  Biso   1.000  O
  O1103    1.0000 0.60754  0.91282  0.23736  Biso   1.000  O
  O1104    1.0000 0.62835  0.90704  0.27509  Biso   1.000  O
  O1105    1.0000 0.57914  0.03461  0.24675  Biso   1.000  O
  O1106    1.0000 0.57078  0.11173  0.21002  Biso   1.000  O
  C943     1.0000 0.60410  0.83660  0.21500  Biso   1.000  C
  C944     1.0000 0.58780  0.82140  0.19480  Biso   1.000  C
  C945     1.0000 0.59060  0.79470  0.19410  Biso   1.000  C
  C946     1.0000 0.61650  0.92110  0.25900  Biso   1.000  C
  C947     1.0000 0.61100  0.94960  0.26640  Biso   1.000  C
  C948     1.0000 0.59952  0.96700  0.24860  Biso   1.000  C
  O1107    1.0000 0.09992  0.36090  0.21560  Biso   1.000  O
  O1108    1.0000 0.11870  0.32650  0.23020  Biso   1.000  O
  O1109    1.0000 0.05720  0.24020  0.16300  Biso   1.000  O
  O1110    1.0000 0.10754  0.41282  0.23736  Biso   1.000  O
  O1111    1.0000 0.12835  0.40704  0.27509  Biso   1.000  O
  O1112    1.0000 0.07914  0.53461  0.24675  Biso   1.000  O
  O1113    1.0000 0.07078  0.61173  0.21002  Biso   1.000  O
  C949     1.0000 0.10410  0.33660  0.21500  Biso   1.000  C
  C950     1.0000 0.08780  0.32140  0.19480  Biso   1.000  C
  C951     1.0000 0.09060  0.29470  0.19410  Biso   1.000  C
  C952     1.0000 0.11650  0.42110  0.25900  Biso   1.000  C
  C953     1.0000 0.11100  0.44960  0.26640  Biso   1.000  C
  C954     1.0000 0.09952  0.46700  0.24860  Biso   1.000  C
  O1114    1.0000 0.09992  0.86090  0.71560  Biso   1.000  O
  O1115    1.0000 0.11870  0.82650  0.73020  Biso   1.000  O
  O1116    1.0000 0.05720  0.74020  0.66300  Biso   1.000  O
  O1117    1.0000 0.10754  0.91282  0.73736  Biso   1.000  O
  O1118    1.0000 0.12835  0.90704  0.77509  Biso   1.000  O
  O1119    1.0000 0.07914  0.03461  0.74675  Biso   1.000  O
  O1120    1.0000 0.07078  0.11173  0.71002  Biso   1.000  O
  C955     1.0000 0.10410  0.83660  0.71500  Biso   1.000  C
  C956     1.0000 0.08780  0.82140  0.69480  Biso   1.000  C
  C957     1.0000 0.09060  0.79470  0.69410  Biso   1.000  C
  C958     1.0000 0.11650  0.92110  0.75900  Biso   1.000  C
  C959     1.0000 0.11100  0.94960  0.76640  Biso   1.000  C
  C960     1.0000 0.09952  0.96700  0.74860  Biso   1.000  C
  O1121    1.0000 0.36090  0.71560  0.59992  Biso   1.000  O
  O1122    1.0000 0.32650  0.73020  0.61870  Biso   1.000  O
  O1123    1.0000 0.24020  0.66300  0.55720  Biso   1.000  O
  O1124    1.0000 0.41282  0.73736  0.60754  Biso   1.000  O
  O1125    1.0000 0.40704  0.77509  0.62835  Biso   1.000  O
  O1126    1.0000 0.53461  0.74675  0.57914  Biso   1.000  O
  O1127    1.0000 0.61173  0.71002  0.57078  Biso   1.000  O
  C961     1.0000 0.33660  0.71500  0.60410  Biso   1.000  C
  C962     1.0000 0.32140  0.69480  0.58780  Biso   1.000  C
  C963     1.0000 0.29470  0.69410  0.59060  Biso   1.000  C
  C964     1.0000 0.42110  0.75900  0.61650  Biso   1.000  C
  C965     1.0000 0.44960  0.76640  0.61100  Biso   1.000  C
  C966     1.0000 0.46700  0.74860  0.59952  Biso   1.000  C
  O1128    1.0000 0.36090  0.21560  0.09992  Biso   1.000  O
  O1129    1.0000 0.32650  0.23020  0.11870  Biso   1.000  O
  O1130    1.0000 0.24020  0.16300  0.05720  Biso   1.000  O
  O1131    1.0000 0.41282  0.23736  0.10754  Biso   1.000  O
  O1132    1.0000 0.40704  0.27509  0.12835  Biso   1.000  O
  O1133    1.0000 0.53461  0.24675  0.07914  Biso   1.000  O
  O1134    1.0000 0.61173  0.21002  0.07078  Biso   1.000  O
  C967     1.0000 0.33660  0.21500  0.10410  Biso   1.000  C
  C968     1.0000 0.32140  0.19480  0.08780  Biso   1.000  C
  C969     1.0000 0.29470  0.19410  0.09060  Biso   1.000  C
  C970     1.0000 0.42110  0.25900  0.11650  Biso   1.000  C
  C971     1.0000 0.44960  0.26640  0.11100  Biso   1.000  C
  C972     1.0000 0.46700  0.24860  0.09952  Biso   1.000  C
  O1135    1.0000 0.86090  0.71560  0.09992  Biso   1.000  O
  O1136    1.0000 0.82650  0.73020  0.11870  Biso   1.000  O
  O1137    1.0000 0.74020  0.66300  0.05720  Biso   1.000  O
  O1138    1.0000 0.91282  0.73736  0.10754  Biso   1.000  O
  O1139    1.0000 0.90704  0.77509  0.12835  Biso   1.000  O
  O1140    1.0000 0.03461  0.74675  0.07914  Biso   1.000  O
  O1141    1.0000 0.11173  0.71002  0.07078  Biso   1.000  O
  C973     1.0000 0.83660  0.71500  0.10410  Biso   1.000  C
  C974     1.0000 0.82140  0.69480  0.08780  Biso   1.000  C
  C975     1.0000 0.79470  0.69410  0.09060  Biso   1.000  C
  C976     1.0000 0.92110  0.75900  0.11650  Biso   1.000  C
  C977     1.0000 0.94960  0.76640  0.11100  Biso   1.000  C
  C978     1.0000 0.96700  0.74860  0.09952  Biso   1.000  C
  O1142    1.0000 0.86090  0.21560  0.59992  Biso   1.000  O
  O1143    1.0000 0.82650  0.23020  0.61870  Biso   1.000  O
  O1144    1.0000 0.74020  0.16300  0.55720  Biso   1.000  O
  O1145    1.0000 0.91282  0.23736  0.60754  Biso   1.000  O
  O1146    1.0000 0.90704  0.27509  0.62835  Biso   1.000  O
  O1147    1.0000 0.03461  0.24675  0.57914  Biso   1.000  O
  O1148    1.0000 0.11173  0.21002  0.57078  Biso   1.000  O
  C979     1.0000 0.83660  0.21500  0.60410  Biso   1.000  C
  C980     1.0000 0.82140  0.19480  0.58780  Biso   1.000  C
  C981     1.0000 0.79470  0.19410  0.59060  Biso   1.000  C
  C982     1.0000 0.92110  0.25900  0.61650  Biso   1.000  C
  C983     1.0000 0.94960  0.26640  0.61100  Biso   1.000  C
  C984     1.0000 0.96700  0.24860  0.59952  Biso   1.000  C
  O1149    1.0000 0.38910  0.21560  0.65008  Biso   1.000  O
  O1150    1.0000 0.42350  0.23020  0.63130  Biso   1.000  O
  O1151    1.0000 0.50980  0.16300  0.69280  Biso   1.000  O
  O1152    1.0000 0.33718  0.23736  0.64246  Biso   1.000  O
  O1153    1.0000 0.34296  0.27509  0.62165  Biso   1.000  O
  O1154    1.0000 0.21539  0.24675  0.67086  Biso   1.000  O
  O1155    1.0000 0.13827  0.21002  0.67922  Biso   1.000  O
  C985     1.0000 0.41340  0.21500  0.64590  Biso   1.000  C
  C986     1.0000 0.42860  0.19480  0.66220  Biso   1.000  C
  C987     1.0000 0.45530  0.19410  0.65940  Biso   1.000  C
  C988     1.0000 0.32890  0.25900  0.63350  Biso   1.000  C
  C989     1.0000 0.30040  0.26640  0.63900  Biso   1.000  C
  C990     1.0000 0.28300  0.24860  0.65048  Biso   1.000  C
  O1156    1.0000 0.38910  0.71560  0.15008  Biso   1.000  O
  O1157    1.0000 0.42350  0.73020  0.13130  Biso   1.000  O
  O1158    1.0000 0.50980  0.66300  0.19280  Biso   1.000  O
  O1159    1.0000 0.33718  0.73736  0.14246  Biso   1.000  O
  O1160    1.0000 0.34296  0.77509  0.12165  Biso   1.000  O
  O1161    1.0000 0.21539  0.74675  0.17086  Biso   1.000  O
  O1162    1.0000 0.13827  0.71002  0.17922  Biso   1.000  O
  C991     1.0000 0.41340  0.71500  0.14590  Biso   1.000  C
  C992     1.0000 0.42860  0.69480  0.16220  Biso   1.000  C
  C993     1.0000 0.45530  0.69410  0.15940  Biso   1.000  C
  C994     1.0000 0.32890  0.75900  0.13350  Biso   1.000  C
  C995     1.0000 0.30040  0.76640  0.13900  Biso   1.000  C
  C996     1.0000 0.28300  0.74860  0.15048  Biso   1.000  C
  O1163    1.0000 0.88910  0.21560  0.15008  Biso   1.000  O
  O1164    1.0000 0.92350  0.23020  0.13130  Biso   1.000  O
  O1165    1.0000 0.00980  0.16300  0.19280  Biso   1.000  O
  O1166    1.0000 0.83718  0.23736  0.14246  Biso   1.000  O
  O1167    1.0000 0.84296  0.27509  0.12165  Biso   1.000  O
  O1168    1.0000 0.71539  0.24675  0.17086  Biso   1.000  O
  O1169    1.0000 0.63827  0.21002  0.17922  Biso   1.000  O
  C997     1.0000 0.91340  0.21500  0.14590  Biso   1.000  C
  C998     1.0000 0.92860  0.19480  0.16220  Biso   1.000  C
  C999     1.0000 0.95530  0.19410  0.15940  Biso   1.000  C
  C1000    1.0000 0.82890  0.25900  0.13350  Biso   1.000  C
  C1001    1.0000 0.80040  0.26640  0.13900  Biso   1.000  C
  C1002    1.0000 0.78300  0.24860  0.15048  Biso   1.000  C
  O1170    1.0000 0.88910  0.71560  0.65008  Biso   1.000  O
  O1171    1.0000 0.92350  0.73020  0.63130  Biso   1.000  O
  O1172    1.0000 0.00980  0.66300  0.69280  Biso   1.000  O
  O1173    1.0000 0.83718  0.73736  0.64246  Biso   1.000  O
  O1174    1.0000 0.84296  0.77509  0.62165  Biso   1.000  O
  O1175    1.0000 0.71539  0.74675  0.67086  Biso   1.000  O
  O1176    1.0000 0.63827  0.71002  0.67922  Biso   1.000  O
  C1003    1.0000 0.91340  0.71500  0.64590  Biso   1.000  C
  C1004    1.0000 0.92860  0.69480  0.66220  Biso   1.000  C
  C1005    1.0000 0.95530  0.69410  0.65940  Biso   1.000  C
  C1006    1.0000 0.82890  0.75900  0.63350  Biso   1.000  C
  C1007    1.0000 0.80040  0.76640  0.63900  Biso   1.000  C
  C1008    1.0000 0.78300  0.74860  0.65048  Biso   1.000  C
  O1177    1.0000 0.88910  0.03440  0.09992  Biso   1.000  O
  O1178    1.0000 0.92350  0.01980  0.11870  Biso   1.000  O
  O1179    1.0000 0.00980  0.08700  0.05720  Biso   1.000  O
  O1180    1.0000 0.83718  0.01264  0.10754  Biso   1.000  O
  O1181    1.0000 0.84296  0.97491  0.12835  Biso   1.000  O
  O1182    1.0000 0.71539  0.00325  0.07914  Biso   1.000  O
  O1183    1.0000 0.63827  0.03998  0.07078  Biso   1.000  O
  C1009    1.0000 0.91340  0.03500  0.10410  Biso   1.000  C
  C1010    1.0000 0.92860  0.05520  0.08780  Biso   1.000  C
  C1011    1.0000 0.95530  0.05590  0.09060  Biso   1.000  C
  C1012    1.0000 0.82890  0.99100  0.11650  Biso   1.000  C
  C1013    1.0000 0.80040  0.98360  0.11100  Biso   1.000  C
  C1014    1.0000 0.78300  0.00140  0.09952  Biso   1.000  C
  O1184    1.0000 0.88910  0.53440  0.59992  Biso   1.000  O
  O1185    1.0000 0.92350  0.51980  0.61870  Biso   1.000  O
  O1186    1.0000 0.00980  0.58700  0.55720  Biso   1.000  O
  O1187    1.0000 0.83718  0.51264  0.60754  Biso   1.000  O
  O1188    1.0000 0.84296  0.47491  0.62835  Biso   1.000  O
  O1189    1.0000 0.71539  0.50325  0.57914  Biso   1.000  O
  O1190    1.0000 0.63827  0.53998  0.57078  Biso   1.000  O
  C1015    1.0000 0.91340  0.53500  0.60410  Biso   1.000  C
  C1016    1.0000 0.92860  0.55520  0.58780  Biso   1.000  C
  C1017    1.0000 0.95530  0.55590  0.59060  Biso   1.000  C
  C1018    1.0000 0.82890  0.49100  0.61650  Biso   1.000  C
  C1019    1.0000 0.80040  0.48360  0.61100  Biso   1.000  C
  C1020    1.0000 0.78300  0.50140  0.59952  Biso   1.000  C
  O1191    1.0000 0.38910  0.03440  0.59992  Biso   1.000  O
  O1192    1.0000 0.42350  0.01980  0.61870  Biso   1.000  O
  O1193    1.0000 0.50980  0.08700  0.55720  Biso   1.000  O
  O1194    1.0000 0.33718  0.01264  0.60754  Biso   1.000  O
  O1195    1.0000 0.34296  0.97491  0.62835  Biso   1.000  O
  O1196    1.0000 0.21539  0.00325  0.57914  Biso   1.000  O
  O1197    1.0000 0.13827  0.03998  0.57078  Biso   1.000  O
  C1021    1.0000 0.41340  0.03500  0.60410  Biso   1.000  C
  C1022    1.0000 0.42860  0.05520  0.58780  Biso   1.000  C
  C1023    1.0000 0.45530  0.05590  0.59060  Biso   1.000  C
  C1024    1.0000 0.32890  0.99100  0.61650  Biso   1.000  C
  C1025    1.0000 0.30040  0.98360  0.61100  Biso   1.000  C
  C1026    1.0000 0.28300  0.00140  0.59952  Biso   1.000  C
  O1198    1.0000 0.38910  0.53440  0.09992  Biso   1.000  O
  O1199    1.0000 0.42350  0.51980  0.11870  Biso   1.000  O
  O1200    1.0000 0.50980  0.58700  0.05720  Biso   1.000  O
  O1201    1.0000 0.33718  0.51264  0.10754  Biso   1.000  O
  O1202    1.0000 0.34296  0.47491  0.12835  Biso   1.000  O
  O1203    1.0000 0.21539  0.50325  0.07914  Biso   1.000  O
  O1204    1.0000 0.13827  0.53998  0.07078  Biso   1.000  O
  C1027    1.0000 0.41340  0.53500  0.10410  Biso   1.000  C
  C1028    1.0000 0.42860  0.55520  0.08780  Biso   1.000  C
  C1029    1.0000 0.45530  0.55590  0.09060  Biso   1.000  C
  C1030    1.0000 0.32890  0.49100  0.11650  Biso   1.000  C
  C1031    1.0000 0.30040  0.48360  0.11100  Biso   1.000  C
  C1032    1.0000 0.28300  0.50140  0.09952  Biso   1.000  C
  O1205    1.0000 0.86090  0.53440  0.15008  Biso   1.000  O
  O1206    1.0000 0.82650  0.51980  0.13130  Biso   1.000  O
  O1207    1.0000 0.74020  0.58700  0.19280  Biso   1.000  O
  O1208    1.0000 0.91282  0.51264  0.14246  Biso   1.000  O
  O1209    1.0000 0.90704  0.47491  0.12165  Biso   1.000  O
  O1210    1.0000 0.03461  0.50325  0.17086  Biso   1.000  O
  O1211    1.0000 0.11173  0.53998  0.17922  Biso   1.000  O
  C1033    1.0000 0.83660  0.53500  0.14590  Biso   1.000  C
  C1034    1.0000 0.82140  0.55520  0.16220  Biso   1.000  C
  C1035    1.0000 0.79470  0.55590  0.15940  Biso   1.000  C
  C1036    1.0000 0.92110  0.49100  0.13350  Biso   1.000  C
  C1037    1.0000 0.94960  0.48360  0.13900  Biso   1.000  C
  C1038    1.0000 0.96700  0.50140  0.15048  Biso   1.000  C
  O1212    1.0000 0.86090  0.03440  0.65008  Biso   1.000  O
  O1213    1.0000 0.82650  0.01980  0.63130  Biso   1.000  O
  O1214    1.0000 0.74020  0.08700  0.69280  Biso   1.000  O
  O1215    1.0000 0.91282  0.01264  0.64246  Biso   1.000  O
  O1216    1.0000 0.90704  0.97491  0.62165  Biso   1.000  O
  O1217    1.0000 0.03461  0.00325  0.67086  Biso   1.000  O
  O1218    1.0000 0.11173  0.03998  0.67922  Biso   1.000  O
  C1039    1.0000 0.83660  0.03500  0.64590  Biso   1.000  C
  C1040    1.0000 0.82140  0.05520  0.66220  Biso   1.000  C
  C1041    1.0000 0.79470  0.05590  0.65940  Biso   1.000  C
  C1042    1.0000 0.92110  0.99100  0.63350  Biso   1.000  C
  C1043    1.0000 0.94960  0.98360  0.63900  Biso   1.000  C
  C1044    1.0000 0.96700  0.00140  0.65048  Biso   1.000  C
  O1219    1.0000 0.36090  0.53440  0.65008  Biso   1.000  O
  O1220    1.0000 0.32650  0.51980  0.63130  Biso   1.000  O
  O1221    1.0000 0.24020  0.58700  0.69280  Biso   1.000  O
  O1222    1.0000 0.41282  0.51264  0.64246  Biso   1.000  O
  O1223    1.0000 0.40704  0.47491  0.62165  Biso   1.000  O
  O1224    1.0000 0.53461  0.50325  0.67086  Biso   1.000  O
  O1225    1.0000 0.61173  0.53998  0.67922  Biso   1.000  O
  C1045    1.0000 0.33660  0.53500  0.64590  Biso   1.000  C
  C1046    1.0000 0.32140  0.55520  0.66220  Biso   1.000  C
  C1047    1.0000 0.29470  0.55590  0.65940  Biso   1.000  C
  C1048    1.0000 0.42110  0.49100  0.63350  Biso   1.000  C
  C1049    1.0000 0.44960  0.48360  0.63900  Biso   1.000  C
  C1050    1.0000 0.46700  0.50140  0.65048  Biso   1.000  C
  O1226    1.0000 0.36090  0.03440  0.15008  Biso   1.000  O
  O1227    1.0000 0.32650  0.01980  0.13130  Biso   1.000  O
  O1228    1.0000 0.24020  0.08700  0.19280  Biso   1.000  O
  O1229    1.0000 0.41282  0.01264  0.14246  Biso   1.000  O
  O1230    1.0000 0.40704  0.97491  0.12165  Biso   1.000  O
  O1231    1.0000 0.53461  0.00325  0.17086  Biso   1.000  O
  O1232    1.0000 0.61173  0.03998  0.17922  Biso   1.000  O
  C1051    1.0000 0.33660  0.03500  0.14590  Biso   1.000  C
  C1052    1.0000 0.32140  0.05520  0.16220  Biso   1.000  C
  C1053    1.0000 0.29470  0.05590  0.15940  Biso   1.000  C
  C1054    1.0000 0.42110  0.99100  0.13350  Biso   1.000  C
  C1055    1.0000 0.44960  0.98360  0.13900  Biso   1.000  C
  C1056    1.0000 0.46700  0.00140  0.15048  Biso   1.000  C
  O1233    1.0000 0.21560  0.65008  0.38910  Biso   1.000  O
  O1234    1.0000 0.23020  0.63130  0.42350  Biso   1.000  O
  O1235    1.0000 0.16300  0.69280  0.50980  Biso   1.000  O
  O1236    1.0000 0.23736  0.64246  0.33718  Biso   1.000  O
  O1237    1.0000 0.27509  0.62165  0.34296  Biso   1.000  O
  O1238    1.0000 0.24675  0.67086  0.21539  Biso   1.000  O
  O1239    1.0000 0.21002  0.67922  0.13827  Biso   1.000  O
  C1057    1.0000 0.21500  0.64590  0.41340  Biso   1.000  C
  C1058    1.0000 0.19480  0.66220  0.42860  Biso   1.000  C
  C1059    1.0000 0.19410  0.65940  0.45530  Biso   1.000  C
  C1060    1.0000 0.25900  0.63350  0.32890  Biso   1.000  C
  C1061    1.0000 0.26640  0.63900  0.30040  Biso   1.000  C
  C1062    1.0000 0.24860  0.65048  0.28300  Biso   1.000  C
  O1240    1.0000 0.21560  0.15008  0.88910  Biso   1.000  O
  O1241    1.0000 0.23020  0.13130  0.92350  Biso   1.000  O
  O1242    1.0000 0.16300  0.19280  0.00980  Biso   1.000  O
  O1243    1.0000 0.23736  0.14246  0.83718  Biso   1.000  O
  O1244    1.0000 0.27509  0.12165  0.84296  Biso   1.000  O
  O1245    1.0000 0.24675  0.17086  0.71539  Biso   1.000  O
  O1246    1.0000 0.21002  0.17922  0.63827  Biso   1.000  O
  C1063    1.0000 0.21500  0.14590  0.91340  Biso   1.000  C
  C1064    1.0000 0.19480  0.16220  0.92860  Biso   1.000  C
  C1065    1.0000 0.19410  0.15940  0.95530  Biso   1.000  C
  C1066    1.0000 0.25900  0.13350  0.82890  Biso   1.000  C
  C1067    1.0000 0.26640  0.13900  0.80040  Biso   1.000  C
  C1068    1.0000 0.24860  0.15048  0.78300  Biso   1.000  C
  O1247    1.0000 0.71560  0.65008  0.88910  Biso   1.000  O
  O1248    1.0000 0.73020  0.63130  0.92350  Biso   1.000  O
  O1249    1.0000 0.66300  0.69280  0.00980  Biso   1.000  O
  O1250    1.0000 0.73736  0.64246  0.83718  Biso   1.000  O
  O1251    1.0000 0.77509  0.62165  0.84296  Biso   1.000  O
  O1252    1.0000 0.74675  0.67086  0.71539  Biso   1.000  O
  O1253    1.0000 0.71002  0.67922  0.63827  Biso   1.000  O
  C1069    1.0000 0.71500  0.64590  0.91340  Biso   1.000  C
  C1070    1.0000 0.69480  0.66220  0.92860  Biso   1.000  C
  C1071    1.0000 0.69410  0.65940  0.95530  Biso   1.000  C
  C1072    1.0000 0.75900  0.63350  0.82890  Biso   1.000  C
  C1073    1.0000 0.76640  0.63900  0.80040  Biso   1.000  C
  C1074    1.0000 0.74860  0.65048  0.78300  Biso   1.000  C
  O1254    1.0000 0.71560  0.15008  0.38910  Biso   1.000  O
  O1255    1.0000 0.73020  0.13130  0.42350  Biso   1.000  O
  O1256    1.0000 0.66300  0.19280  0.50980  Biso   1.000  O
  O1257    1.0000 0.73736  0.14246  0.33718  Biso   1.000  O
  O1258    1.0000 0.77509  0.12165  0.34296  Biso   1.000  O
  O1259    1.0000 0.74675  0.17086  0.21539  Biso   1.000  O
  O1260    1.0000 0.71002  0.17922  0.13827  Biso   1.000  O
  C1075    1.0000 0.71500  0.14590  0.41340  Biso   1.000  C
  C1076    1.0000 0.69480  0.16220  0.42860  Biso   1.000  C
  C1077    1.0000 0.69410  0.15940  0.45530  Biso   1.000  C
  C1078    1.0000 0.75900  0.13350  0.32890  Biso   1.000  C
  C1079    1.0000 0.76640  0.13900  0.30040  Biso   1.000  C
  C1080    1.0000 0.74860  0.15048  0.28300  Biso   1.000  C
  O1261    1.0000 0.71560  0.59992  0.36090  Biso   1.000  O
  O1262    1.0000 0.73020  0.61870  0.32650  Biso   1.000  O
  O1263    1.0000 0.66300  0.55720  0.24020  Biso   1.000  O
  O1264    1.0000 0.73736  0.60754  0.41282  Biso   1.000  O
  O1265    1.0000 0.77509  0.62835  0.40704  Biso   1.000  O
  O1266    1.0000 0.74675  0.57914  0.53461  Biso   1.000  O
  O1267    1.0000 0.71002  0.57078  0.61173  Biso   1.000  O
  C1081    1.0000 0.71500  0.60410  0.33660  Biso   1.000  C
  C1082    1.0000 0.69480  0.58780  0.32140  Biso   1.000  C
  C1083    1.0000 0.69410  0.59060  0.29470  Biso   1.000  C
  C1084    1.0000 0.75900  0.61650  0.42110  Biso   1.000  C
  C1085    1.0000 0.76640  0.61100  0.44960  Biso   1.000  C
  C1086    1.0000 0.74860  0.59952  0.46700  Biso   1.000  C
  O1268    1.0000 0.71560  0.09992  0.86090  Biso   1.000  O
  O1269    1.0000 0.73020  0.11870  0.82650  Biso   1.000  O
  O1270    1.0000 0.66300  0.05720  0.74020  Biso   1.000  O
  O1271    1.0000 0.73736  0.10754  0.91282  Biso   1.000  O
  O1272    1.0000 0.77509  0.12835  0.90704  Biso   1.000  O
  O1273    1.0000 0.74675  0.07914  0.03461  Biso   1.000  O
  O1274    1.0000 0.71002  0.07078  0.11173  Biso   1.000  O
  C1087    1.0000 0.71500  0.10410  0.83660  Biso   1.000  C
  C1088    1.0000 0.69480  0.08780  0.82140  Biso   1.000  C
  C1089    1.0000 0.69410  0.09060  0.79470  Biso   1.000  C
  C1090    1.0000 0.75900  0.11650  0.92110  Biso   1.000  C
  C1091    1.0000 0.76640  0.11100  0.94960  Biso   1.000  C
  C1092    1.0000 0.74860  0.09952  0.96700  Biso   1.000  C
  O1275    1.0000 0.21560  0.59992  0.86090  Biso   1.000  O
  O1276    1.0000 0.23020  0.61870  0.82650  Biso   1.000  O
  O1277    1.0000 0.16300  0.55720  0.74020  Biso   1.000  O
  O1278    1.0000 0.23736  0.60754  0.91282  Biso   1.000  O
  O1279    1.0000 0.27509  0.62835  0.90704  Biso   1.000  O
  O1280    1.0000 0.24675  0.57914  0.03461  Biso   1.000  O
  O1281    1.0000 0.21002  0.57078  0.11173  Biso   1.000  O
  C1093    1.0000 0.21500  0.60410  0.83660  Biso   1.000  C
  C1094    1.0000 0.19480  0.58780  0.82140  Biso   1.000  C
  C1095    1.0000 0.19410  0.59060  0.79470  Biso   1.000  C
  C1096    1.0000 0.25900  0.61650  0.92110  Biso   1.000  C
  C1097    1.0000 0.26640  0.61100  0.94960  Biso   1.000  C
  C1098    1.0000 0.24860  0.59952  0.96700  Biso   1.000  C
  O1282    1.0000 0.21560  0.09992  0.36090  Biso   1.000  O
  O1283    1.0000 0.23020  0.11870  0.32650  Biso   1.000  O
  O1284    1.0000 0.16300  0.05720  0.24020  Biso   1.000  O
  O1285    1.0000 0.23736  0.10754  0.41282  Biso   1.000  O
  O1286    1.0000 0.27509  0.12835  0.40704  Biso   1.000  O
  O1287    1.0000 0.24675  0.07914  0.53461  Biso   1.000  O
  O1288    1.0000 0.21002  0.07078  0.61173  Biso   1.000  O
  C1099    1.0000 0.21500  0.10410  0.33660  Biso   1.000  C
  C1100    1.0000 0.19480  0.08780  0.32140  Biso   1.000  C
  C1101    1.0000 0.19410  0.09060  0.29470  Biso   1.000  C
  C1102    1.0000 0.25900  0.11650  0.42110  Biso   1.000  C
  C1103    1.0000 0.26640  0.11100  0.44960  Biso   1.000  C
  C1104    1.0000 0.24860  0.09952  0.46700  Biso   1.000  C
  O1289    1.0000 0.53440  0.15008  0.86090  Biso   1.000  O
  O1290    1.0000 0.51980  0.13130  0.82650  Biso   1.000  O
  O1291    1.0000 0.58700  0.19280  0.74020  Biso   1.000  O
  O1292    1.0000 0.51264  0.14246  0.91282  Biso   1.000  O
  O1293    1.0000 0.47491  0.12165  0.90704  Biso   1.000  O
  O1294    1.0000 0.50325  0.17086  0.03461  Biso   1.000  O
  O1295    1.0000 0.53998  0.17922  0.11173  Biso   1.000  O
  C1105    1.0000 0.53500  0.14590  0.83660  Biso   1.000  C
  C1106    1.0000 0.55520  0.16220  0.82140  Biso   1.000  C
  C1107    1.0000 0.55590  0.15940  0.79470  Biso   1.000  C
  C1108    1.0000 0.49100  0.13350  0.92110  Biso   1.000  C
  C1109    1.0000 0.48360  0.13900  0.94960  Biso   1.000  C
  C1110    1.0000 0.50140  0.15048  0.96700  Biso   1.000  C
  O1296    1.0000 0.53440  0.65008  0.36090  Biso   1.000  O
  O1297    1.0000 0.51980  0.63130  0.32650  Biso   1.000  O
  O1298    1.0000 0.58700  0.69280  0.24020  Biso   1.000  O
  O1299    1.0000 0.51264  0.64246  0.41282  Biso   1.000  O
  O1300    1.0000 0.47491  0.62165  0.40704  Biso   1.000  O
  O1301    1.0000 0.50325  0.67086  0.53461  Biso   1.000  O
  O1302    1.0000 0.53998  0.67922  0.61173  Biso   1.000  O
  C1111    1.0000 0.53500  0.64590  0.33660  Biso   1.000  C
  C1112    1.0000 0.55520  0.66220  0.32140  Biso   1.000  C
  C1113    1.0000 0.55590  0.65940  0.29470  Biso   1.000  C
  C1114    1.0000 0.49100  0.63350  0.42110  Biso   1.000  C
  C1115    1.0000 0.48360  0.63900  0.44960  Biso   1.000  C
  C1116    1.0000 0.50140  0.65048  0.46700  Biso   1.000  C
  O1303    1.0000 0.03440  0.15008  0.36090  Biso   1.000  O
  O1304    1.0000 0.01980  0.13130  0.32650  Biso   1.000  O
  O1305    1.0000 0.08700  0.19280  0.24020  Biso   1.000  O
  O1306    1.0000 0.01264  0.14246  0.41282  Biso   1.000  O
  O1307    1.0000 0.97491  0.12165  0.40704  Biso   1.000  O
  O1308    1.0000 0.00325  0.17086  0.53461  Biso   1.000  O
  O1309    1.0000 0.03998  0.17922  0.61173  Biso   1.000  O
  C1117    1.0000 0.03500  0.14590  0.33660  Biso   1.000  C
  C1118    1.0000 0.05520  0.16220  0.32140  Biso   1.000  C
  C1119    1.0000 0.05590  0.15940  0.29470  Biso   1.000  C
  C1120    1.0000 0.99100  0.13350  0.42110  Biso   1.000  C
  C1121    1.0000 0.98360  0.13900  0.44960  Biso   1.000  C
  C1122    1.0000 0.00140  0.15048  0.46700  Biso   1.000  C
  O1310    1.0000 0.03440  0.65008  0.86090  Biso   1.000  O
  O1311    1.0000 0.01980  0.63130  0.82650  Biso   1.000  O
  O1312    1.0000 0.08700  0.69280  0.74020  Biso   1.000  O
  O1313    1.0000 0.01264  0.64246  0.91282  Biso   1.000  O
  O1314    1.0000 0.97491  0.62165  0.90704  Biso   1.000  O
  O1315    1.0000 0.00325  0.67086  0.03461  Biso   1.000  O
  O1316    1.0000 0.03998  0.67922  0.11173  Biso   1.000  O
  C1123    1.0000 0.03500  0.64590  0.83660  Biso   1.000  C
  C1124    1.0000 0.05520  0.66220  0.82140  Biso   1.000  C
  C1125    1.0000 0.05590  0.65940  0.79470  Biso   1.000  C
  C1126    1.0000 0.99100  0.63350  0.92110  Biso   1.000  C
  C1127    1.0000 0.98360  0.63900  0.94960  Biso   1.000  C
  C1128    1.0000 0.00140  0.65048  0.96700  Biso   1.000  C
  O1317    1.0000 0.03440  0.09992  0.88910  Biso   1.000  O
  O1318    1.0000 0.01980  0.11870  0.92350  Biso   1.000  O
  O1319    1.0000 0.08700  0.05720  0.00980  Biso   1.000  O
  O1320    1.0000 0.01264  0.10754  0.83718  Biso   1.000  O
  O1321    1.0000 0.97491  0.12835  0.84296  Biso   1.000  O
  O1322    1.0000 0.00325  0.07914  0.71539  Biso   1.000  O
  O1323    1.0000 0.03998  0.07078  0.63827  Biso   1.000  O
  C1129    1.0000 0.03500  0.10410  0.91340  Biso   1.000  C
  C1130    1.0000 0.05520  0.08780  0.92860  Biso   1.000  C
  C1131    1.0000 0.05590  0.09060  0.95530  Biso   1.000  C
  C1132    1.0000 0.99100  0.11650  0.82890  Biso   1.000  C
  C1133    1.0000 0.98360  0.11100  0.80040  Biso   1.000  C
  C1134    1.0000 0.00140  0.09952  0.78300  Biso   1.000  C
  O1324    1.0000 0.03440  0.59992  0.38910  Biso   1.000  O
  O1325    1.0000 0.01980  0.61870  0.42350  Biso   1.000  O
  O1326    1.0000 0.08700  0.55720  0.50980  Biso   1.000  O
  O1327    1.0000 0.01264  0.60754  0.33718  Biso   1.000  O
  O1328    1.0000 0.97491  0.62835  0.34296  Biso   1.000  O
  O1329    1.0000 0.00325  0.57914  0.21539  Biso   1.000  O
  O1330    1.0000 0.03998  0.57078  0.13827  Biso   1.000  O
  C1135    1.0000 0.03500  0.60410  0.41340  Biso   1.000  C
  C1136    1.0000 0.05520  0.58780  0.42860  Biso   1.000  C
  C1137    1.0000 0.05590  0.59060  0.45530  Biso   1.000  C
  C1138    1.0000 0.99100  0.61650  0.32890  Biso   1.000  C
  C1139    1.0000 0.98360  0.61100  0.30040  Biso   1.000  C
  C1140    1.0000 0.00140  0.59952  0.28300  Biso   1.000  C
  O1331    1.0000 0.53440  0.09992  0.38910  Biso   1.000  O
  O1332    1.0000 0.51980  0.11870  0.42350  Biso   1.000  O
  O1333    1.0000 0.58700  0.05720  0.50980  Biso   1.000  O
  O1334    1.0000 0.51264  0.10754  0.33718  Biso   1.000  O
  O1335    1.0000 0.47491  0.12835  0.34296  Biso   1.000  O
  O1336    1.0000 0.50325  0.07914  0.21539  Biso   1.000  O
  O1337    1.0000 0.53998  0.07078  0.13827  Biso   1.000  O
  C1141    1.0000 0.53500  0.10410  0.41340  Biso   1.000  C
  C1142    1.0000 0.55520  0.08780  0.42860  Biso   1.000  C
  C1143    1.0000 0.55590  0.09060  0.45530  Biso   1.000  C
  C1144    1.0000 0.49100  0.11650  0.32890  Biso   1.000  C
  C1145    1.0000 0.48360  0.11100  0.30040  Biso   1.000  C
  C1146    1.0000 0.50140  0.09952  0.28300  Biso   1.000  C
  O1338    1.0000 0.53440  0.59992  0.88910  Biso   1.000  O
  O1339    1.0000 0.51980  0.61870  0.92350  Biso   1.000  O
  O1340    1.0000 0.58700  0.55720  0.00980  Biso   1.000  O
  O1341    1.0000 0.51264  0.60754  0.83718  Biso   1.000  O
  O1342    1.0000 0.47491  0.62835  0.84296  Biso   1.000  O
  O1343    1.0000 0.50325  0.57914  0.71539  Biso   1.000  O
  O1344    1.0000 0.53998  0.57078  0.63827  Biso   1.000  O
  C1147    1.0000 0.53500  0.60410  0.91340  Biso   1.000  C
  C1148    1.0000 0.55520  0.58780  0.92860  Biso   1.000  C
  C1149    1.0000 0.55590  0.59060  0.95530  Biso   1.000  C
  C1150    1.0000 0.49100  0.61650  0.82890  Biso   1.000  C
  C1151    1.0000 0.48360  0.61100  0.80040  Biso   1.000  C
  C1152    1.0000 0.50140  0.59952  0.78300  Biso   1.000  C
  In1      1.0000 0.87796  0.12204  0.00000  Biso   1.000  In
  In2      1.0000 0.87796  0.62204  0.50000  Biso   1.000  In
  In3      1.0000 0.37796  0.12204  0.50000  Biso   1.000  In
  In4      1.0000 0.37796  0.62204  0.00000  Biso   1.000  In
  In5      1.0000 0.87204  0.12796  0.50000  Biso   1.000  In
  In6      1.0000 0.87204  0.62796  0.00000  Biso   1.000  In
  In7      1.0000 0.37204  0.12796  0.00000  Biso   1.000  In
  In8      1.0000 0.37204  0.62796  0.50000  Biso   1.000  In
  In9      1.0000 0.37204  0.62204  0.75000  Biso   1.000  In
  In10     1.0000 0.37204  0.12204  0.25000  Biso   1.000  In
  In11     1.0000 0.87204  0.62204  0.25000  Biso   1.000  In
  In12     1.0000 0.87204  0.12204  0.75000  Biso   1.000  In
  In13     1.0000 0.37796  0.62796  0.25000  Biso   1.000  In
  In14     1.0000 0.37796  0.12796  0.75000  Biso   1.000  In
  In15     1.0000 0.87796  0.62796  0.75000  Biso   1.000  In
  In16     1.0000 0.87796  0.12796  0.25000  Biso   1.000  In
  In17     1.0000 0.00000  0.87796  0.12204  Biso   1.000  In
  In18     1.0000 0.00000  0.37796  0.62204  Biso   1.000  In
  In19     1.0000 0.50000  0.87796  0.62204  Biso   1.000  In
  In20     1.0000 0.50000  0.37796  0.12204  Biso   1.000  In
  In21     1.0000 0.50000  0.87204  0.12796  Biso   1.000  In
  In22     1.0000 0.50000  0.37204  0.62796  Biso   1.000  In
  In23     1.0000 0.00000  0.87204  0.62796  Biso   1.000  In
  In24     1.0000 0.00000  0.37204  0.12796  Biso   1.000  In
  In25     1.0000 0.75000  0.37204  0.62204  Biso   1.000  In
  In26     1.0000 0.75000  0.87204  0.12204  Biso   1.000  In
  In27     1.0000 0.25000  0.37204  0.12204  Biso   1.000  In
  In28     1.0000 0.25000  0.87204  0.62204  Biso   1.000  In
  In29     1.0000 0.25000  0.37796  0.62796  Biso   1.000  In
  In30     1.0000 0.25000  0.87796  0.12796  Biso   1.000  In
  In31     1.0000 0.75000  0.37796  0.12796  Biso   1.000  In
  In32     1.0000 0.75000  0.87796  0.62796  Biso   1.000  In
  In33     1.0000 0.12204  0.00000  0.87796  Biso   1.000  In
  In34     1.0000 0.12204  0.50000  0.37796  Biso   1.000  In
  In35     1.0000 0.62204  0.00000  0.37796  Biso   1.000  In
  In36     1.0000 0.62204  0.50000  0.87796  Biso   1.000  In
  In37     1.0000 0.12796  0.50000  0.87204  Biso   1.000  In
  In38     1.0000 0.12796  0.00000  0.37204  Biso   1.000  In
  In39     1.0000 0.62796  0.50000  0.37204  Biso   1.000  In
  In40     1.0000 0.62796  0.00000  0.87204  Biso   1.000  In
  In41     1.0000 0.62204  0.75000  0.37204  Biso   1.000  In
  In42     1.0000 0.62204  0.25000  0.87204  Biso   1.000  In
  In43     1.0000 0.12204  0.75000  0.87204  Biso   1.000  In
  In44     1.0000 0.12204  0.25000  0.37204  Biso   1.000  In
  In45     1.0000 0.62796  0.25000  0.37796  Biso   1.000  In
  In46     1.0000 0.62796  0.75000  0.87796  Biso   1.000  In
  In47     1.0000 0.12796  0.25000  0.87796  Biso   1.000  In
  In48     1.0000 0.12796  0.75000  0.37796  Biso   1.000  In
  In49     1.0000 0.12204  0.87796  0.00000  Biso   1.000  In
  In50     1.0000 0.12204  0.37796  0.50000  Biso   1.000  In
  In51     1.0000 0.62204  0.87796  0.50000  Biso   1.000  In
  In52     1.0000 0.62204  0.37796  0.00000  Biso   1.000  In
  In53     1.0000 0.12796  0.87204  0.50000  Biso   1.000  In
  In54     1.0000 0.12796  0.37204  0.00000  Biso   1.000  In
  In55     1.0000 0.62796  0.87204  0.00000  Biso   1.000  In
  In56     1.0000 0.62796  0.37204  0.50000  Biso   1.000  In
  In57     1.0000 0.62796  0.37796  0.25000  Biso   1.000  In
  In58     1.0000 0.62796  0.87796  0.75000  Biso   1.000  In
  In59     1.0000 0.12796  0.37796  0.75000  Biso   1.000  In
  In60     1.0000 0.12796  0.87796  0.25000  Biso   1.000  In
  In61     1.0000 0.62204  0.37204  0.75000  Biso   1.000  In
  In62     1.0000 0.62204  0.87204  0.25000  Biso   1.000  In
  In63     1.0000 0.12204  0.37204  0.25000  Biso   1.000  In
  In64     1.0000 0.12204  0.87204  0.75000  Biso   1.000  In
  In65     1.0000 0.00000  0.12204  0.87796  Biso   1.000  In
  In66     1.0000 0.00000  0.62204  0.37796  Biso   1.000  In
  In67     1.0000 0.50000  0.12204  0.37796  Biso   1.000  In
  In68     1.0000 0.50000  0.62204  0.87796  Biso   1.000  In
  In69     1.0000 0.50000  0.12796  0.87204  Biso   1.000  In
  In70     1.0000 0.50000  0.62796  0.37204  Biso   1.000  In
  In71     1.0000 0.00000  0.12796  0.37204  Biso   1.000  In
  In72     1.0000 0.00000  0.62796  0.87204  Biso   1.000  In
  In73     1.0000 0.25000  0.62796  0.37796  Biso   1.000  In
  In74     1.0000 0.25000  0.12796  0.87796  Biso   1.000  In
  In75     1.0000 0.75000  0.62796  0.87796  Biso   1.000  In
  In76     1.0000 0.75000  0.12796  0.37796  Biso   1.000  In
  In77     1.0000 0.75000  0.62204  0.37204  Biso   1.000  In
  In78     1.0000 0.75000  0.12204  0.87204  Biso   1.000  In
  In79     1.0000 0.25000  0.62204  0.87204  Biso   1.000  In
  In80     1.0000 0.25000  0.12204  0.37204  Biso   1.000  In
  In81     1.0000 0.87796  0.00000  0.12204  Biso   1.000  In
  In82     1.0000 0.87796  0.50000  0.62204  Biso   1.000  In
  In83     1.0000 0.37796  0.00000  0.62204  Biso   1.000  In
  In84     1.0000 0.37796  0.50000  0.12204  Biso   1.000  In
  In85     1.0000 0.87204  0.50000  0.12796  Biso   1.000  In
  In86     1.0000 0.87204  0.00000  0.62796  Biso   1.000  In
  In87     1.0000 0.37204  0.50000  0.62796  Biso   1.000  In
  In88     1.0000 0.37204  0.00000  0.12796  Biso   1.000  In
  In89     1.0000 0.37796  0.25000  0.62796  Biso   1.000  In
  In90     1.0000 0.37796  0.75000  0.12796  Biso   1.000  In
  In91     1.0000 0.87796  0.25000  0.12796  Biso   1.000  In
  In92     1.0000 0.87796  0.75000  0.62796  Biso   1.000  In
  In93     1.0000 0.37204  0.75000  0.62204  Biso   1.000  In
  In94     1.0000 0.37204  0.25000  0.12204  Biso   1.000  In
  In95     1.0000 0.87204  0.75000  0.12204  Biso   1.000  In
  In96     1.0000 0.87204  0.25000  0.62204  Biso   1.000  In
  Mn1      1.0000 0.67698  0.07302  0.02280  Biso   1.000  Mn
  Mn2      1.0000 0.67698  0.57302  0.52280  Biso   1.000  Mn
  Mn3      1.0000 0.07302  0.17698  0.52280  Biso   1.000  Mn
  Mn4      1.0000 0.57302  0.17698  0.02280  Biso   1.000  Mn
  Mn5      1.0000 0.57302  0.67698  0.52280  Biso   1.000  Mn
  Mn6      1.0000 0.57302  0.57302  0.72720  Biso   1.000  Mn
  Mn7      1.0000 0.57302  0.07302  0.22720  Biso   1.000  Mn
  Mn8      1.0000 0.07302  0.57302  0.22720  Biso   1.000  Mn
  Mn9      1.0000 0.07302  0.07302  0.72720  Biso   1.000  Mn
  Mn10     1.0000 0.17698  0.67698  0.22720  Biso   1.000  Mn
  Mn11     1.0000 0.17698  0.17698  0.72720  Biso   1.000  Mn
  Mn12     1.0000 0.02280  0.67698  0.07302  Biso   1.000  Mn
  Mn13     1.0000 0.02280  0.17698  0.57302  Biso   1.000  Mn
  Mn14     1.0000 0.52280  0.67698  0.57302  Biso   1.000  Mn
  Mn15     1.0000 0.52280  0.07302  0.17698  Biso   1.000  Mn
  Mn16     1.0000 0.52280  0.57302  0.67698  Biso   1.000  Mn
  Mn17     1.0000 0.72720  0.57302  0.57302  Biso   1.000  Mn
  Mn18     1.0000 0.72720  0.07302  0.07302  Biso   1.000  Mn
  Mn19     1.0000 0.22720  0.57302  0.07302  Biso   1.000  Mn
  Mn20     1.0000 0.22720  0.07302  0.57302  Biso   1.000  Mn
  Mn21     1.0000 0.22720  0.17698  0.67698  Biso   1.000  Mn
  Mn22     1.0000 0.72720  0.17698  0.17698  Biso   1.000  Mn
  Mn23     1.0000 0.07302  0.02280  0.67698  Biso   1.000  Mn
  Mn24     1.0000 0.57302  0.02280  0.17698  Biso   1.000  Mn
  Mn25     1.0000 0.57302  0.52280  0.67698  Biso   1.000  Mn
  Mn26     1.0000 0.17698  0.52280  0.07302  Biso   1.000  Mn
  Mn27     1.0000 0.17698  0.02280  0.57302  Biso   1.000  Mn
  Mn28     1.0000 0.67698  0.52280  0.57302  Biso   1.000  Mn
  Mn29     1.0000 0.57302  0.72720  0.57302  Biso   1.000  Mn
  Mn30     1.0000 0.57302  0.22720  0.07302  Biso   1.000  Mn
  Mn31     1.0000 0.07302  0.72720  0.07302  Biso   1.000  Mn
  Mn32     1.0000 0.07302  0.22720  0.57302  Biso   1.000  Mn
  Mn33     1.0000 0.67698  0.22720  0.17698  Biso   1.000  Mn
  Mn34     1.0000 0.67698  0.72720  0.67698  Biso   1.000  Mn
  Mn35     1.0000 0.17698  0.72720  0.17698  Biso   1.000  Mn
  Mn36     1.0000 0.82302  0.92698  0.47720  Biso   1.000  Mn
  Mn37     1.0000 0.82302  0.42698  0.97720  Biso   1.000  Mn
  Mn38     1.0000 0.92698  0.32302  0.97720  Biso   1.000  Mn
  Mn39     1.0000 0.42698  0.32302  0.47720  Biso   1.000  Mn
  Mn40     1.0000 0.32302  0.82302  0.77280  Biso   1.000  Mn
  Mn41     1.0000 0.32302  0.32302  0.27280  Biso   1.000  Mn
  Mn42     1.0000 0.42698  0.42698  0.27280  Biso   1.000  Mn
  Mn43     1.0000 0.42698  0.92698  0.77280  Biso   1.000  Mn
  Mn44     1.0000 0.92698  0.42698  0.77280  Biso   1.000  Mn
  Mn45     1.0000 0.92698  0.92698  0.27280  Biso   1.000  Mn
  Mn46     1.0000 0.42698  0.27280  0.42698  Biso   1.000  Mn
  Mn47     1.0000 0.42698  0.77280  0.92698  Biso   1.000  Mn
  Mn48     1.0000 0.92698  0.27280  0.92698  Biso   1.000  Mn
  Mn49     1.0000 0.92698  0.77280  0.42698  Biso   1.000  Mn
  Mn50     1.0000 0.82302  0.77280  0.32302  Biso   1.000  Mn
  Mn51     1.0000 0.82302  0.27280  0.82302  Biso   1.000  Mn
  Mn52     1.0000 0.32302  0.27280  0.32302  Biso   1.000  Mn
  Mn53     1.0000 0.32302  0.97720  0.92698  Biso   1.000  Mn
  Mn54     1.0000 0.32302  0.47720  0.42698  Biso   1.000  Mn
  Mn55     1.0000 0.92698  0.47720  0.82302  Biso   1.000  Mn
  Mn56     1.0000 0.42698  0.47720  0.32302  Biso   1.000  Mn
  Mn57     1.0000 0.77280  0.32302  0.82302  Biso   1.000  Mn
  Mn58     1.0000 0.27280  0.32302  0.32302  Biso   1.000  Mn
  Mn59     1.0000 0.27280  0.42698  0.42698  Biso   1.000  Mn
  Mn60     1.0000 0.27280  0.92698  0.92698  Biso   1.000  Mn
  Mn61     1.0000 0.77280  0.42698  0.92698  Biso   1.000  Mn
  Mn62     1.0000 0.77280  0.92698  0.42698  Biso   1.000  Mn
  Mn63     1.0000 0.47720  0.82302  0.92698  Biso   1.000  Mn
  Mn64     1.0000 0.47720  0.32302  0.42698  Biso   1.000  Mn
  Mn65     1.0000 0.97720  0.92698  0.32302  Biso   1.000  Mn
  Mn66     1.0000 0.97720  0.42698  0.82302  Biso   1.000  Mn
  Mn67     1.0000 0.32302  0.92698  0.97720  Biso   1.000  Mn
  Mn68     1.0000 0.32302  0.42698  0.47720  Biso   1.000  Mn
  Mn69     1.0000 0.92698  0.82302  0.47720  Biso   1.000  Mn
  Mn70     1.0000 0.42698  0.82302  0.97720  Biso   1.000  Mn
  Mn71     1.0000 0.82302  0.32302  0.77280  Biso   1.000  Mn
  Mn72     1.0000 0.82302  0.82302  0.27280  Biso   1.000  Mn
  Mn73     1.0000 0.97720  0.32302  0.92698  Biso   1.000  Mn
  Mn74     1.0000 0.97720  0.82302  0.42698  Biso   1.000  Mn
  Mn75     1.0000 0.47720  0.92698  0.82302  Biso   1.000  Mn
  Mn76     1.0000 0.47720  0.42698  0.32302  Biso   1.000  Mn
  Mn77     1.0000 0.77280  0.82302  0.32302  Biso   1.000  Mn
  Mn78     1.0000 0.27280  0.82302  0.82302  Biso   1.000  Mn
  Mn79     1.0000 0.92698  0.97720  0.32302  Biso   1.000  Mn
  Mn80     1.0000 0.42698  0.97720  0.82302  Biso   1.000  Mn
  Mn81     1.0000 0.82302  0.47720  0.92698  Biso   1.000  Mn
  Mn82     1.0000 0.82302  0.97720  0.42698  Biso   1.000  Mn
  Mn83     1.0000 0.32302  0.77280  0.82302  Biso   1.000  Mn
  Mn84     1.0000 0.17698  0.07302  0.52280  Biso   1.000  Mn
  Mn85     1.0000 0.17698  0.57302  0.02280  Biso   1.000  Mn
  Mn86     1.0000 0.07302  0.67698  0.02280  Biso   1.000  Mn
  Mn87     1.0000 0.67698  0.17698  0.22720  Biso   1.000  Mn
  Mn88     1.0000 0.67698  0.67698  0.72720  Biso   1.000  Mn
  Mn89     1.0000 0.17698  0.22720  0.67698  Biso   1.000  Mn
  Mn90     1.0000 0.67698  0.02280  0.07302  Biso   1.000  Mn
  Mn91     1.0000 0.07302  0.52280  0.17698  Biso   1.000  Mn
  Mn92     1.0000 0.22720  0.67698  0.17698  Biso   1.000  Mn
  Mn93     1.0000 0.72720  0.67698  0.67698  Biso   1.000  Mn
  Mn94     1.0000 0.52280  0.17698  0.07302  Biso   1.000  Mn
  Mn95     1.0000 0.02280  0.07302  0.67698  Biso   1.000  Mn
  Mn96     1.0000 0.02280  0.57302  0.17698  Biso   1.000  Mn
  Mn97     1.0000 0.04022  0.04022  0.09323  Biso   1.000  Mn
  O1345    1.0000 0.03560  0.03560  0.12160  Biso   1.000  O
  O1346    1.0000 0.06870  0.06870  0.10610  Biso   1.000  O
  Mn98     1.0000 0.05354  0.05354  0.09490  Biso   1.000  Mn
  Mn99     1.0000 0.04022  0.54022  0.59323  Biso   1.000  Mn
  O1347    1.0000 0.03560  0.53560  0.62160  Biso   1.000  O
  O1348    1.0000 0.06870  0.56870  0.60610  Biso   1.000  O
  Mn100    1.0000 0.05354  0.55354  0.59490  Biso   1.000  Mn
  Mn101    1.0000 0.54022  0.04022  0.59323  Biso   1.000  Mn
  O1349    1.0000 0.53560  0.03560  0.62160  Biso   1.000  O
  O1350    1.0000 0.56870  0.06870  0.60610  Biso   1.000  O
  Mn102    1.0000 0.55354  0.05354  0.59490  Biso   1.000  Mn
  Mn103    1.0000 0.54022  0.54022  0.09323  Biso   1.000  Mn
  O1351    1.0000 0.53560  0.53560  0.12160  Biso   1.000  O
  O1352    1.0000 0.56870  0.56870  0.10610  Biso   1.000  O
  Mn104    1.0000 0.55354  0.55354  0.09490  Biso   1.000  Mn
  Mn105    1.0000 0.70978  0.20978  0.59323  Biso   1.000  Mn
  O1353    1.0000 0.71440  0.21440  0.62160  Biso   1.000  O
  O1354    1.0000 0.68130  0.18130  0.60610  Biso   1.000  O
  Mn106    1.0000 0.69646  0.19646  0.59490  Biso   1.000  Mn
  Mn107    1.0000 0.70978  0.70978  0.09323  Biso   1.000  Mn
  O1355    1.0000 0.71440  0.71440  0.12160  Biso   1.000  O
  O1356    1.0000 0.68130  0.68130  0.10610  Biso   1.000  O
  Mn108    1.0000 0.69646  0.69646  0.09490  Biso   1.000  Mn
  Mn109    1.0000 0.20978  0.54022  0.65677  Biso   1.000  Mn
  O1357    1.0000 0.21440  0.53560  0.62840  Biso   1.000  O
  O1358    1.0000 0.18130  0.56870  0.64390  Biso   1.000  O
  Mn110    1.0000 0.19646  0.55354  0.65510  Biso   1.000  Mn
  Mn111    1.0000 0.20978  0.04022  0.15677  Biso   1.000  Mn
  O1359    1.0000 0.21440  0.03560  0.12840  Biso   1.000  O
  O1360    1.0000 0.18130  0.06870  0.14390  Biso   1.000  O
  Mn112    1.0000 0.19646  0.05354  0.15510  Biso   1.000  Mn
  Mn113    1.0000 0.54022  0.70978  0.15677  Biso   1.000  Mn
  O1361    1.0000 0.53560  0.71440  0.12840  Biso   1.000  O
  O1362    1.0000 0.56870  0.68130  0.14390  Biso   1.000  O
  Mn114    1.0000 0.55354  0.69646  0.15510  Biso   1.000  Mn
  Mn115    1.0000 0.04022  0.70978  0.65677  Biso   1.000  Mn
  O1363    1.0000 0.03560  0.71440  0.62840  Biso   1.000  O
  O1364    1.0000 0.06870  0.68130  0.64390  Biso   1.000  O
  Mn116    1.0000 0.05354  0.69646  0.65510  Biso   1.000  Mn
  Mn117    1.0000 0.09323  0.04022  0.04022  Biso   1.000  Mn
  O1365    1.0000 0.12160  0.03560  0.03560  Biso   1.000  O
  O1366    1.0000 0.10610  0.06870  0.06870  Biso   1.000  O
  Mn118    1.0000 0.09490  0.05354  0.05354  Biso   1.000  Mn
  Mn119    1.0000 0.09323  0.54022  0.54022  Biso   1.000  Mn
  O1367    1.0000 0.12160  0.53560  0.53560  Biso   1.000  O
  O1368    1.0000 0.10610  0.56870  0.56870  Biso   1.000  O
  Mn120    1.0000 0.09490  0.55354  0.55354  Biso   1.000  Mn
  Mn121    1.0000 0.59323  0.04022  0.54022  Biso   1.000  Mn
  O1369    1.0000 0.62160  0.03560  0.53560  Biso   1.000  O
  O1370    1.0000 0.60610  0.06870  0.56870  Biso   1.000  O
  Mn122    1.0000 0.59490  0.05354  0.55354  Biso   1.000  Mn
  Mn123    1.0000 0.59323  0.54022  0.04022  Biso   1.000  Mn
  O1371    1.0000 0.62160  0.53560  0.03560  Biso   1.000  O
  O1372    1.0000 0.60610  0.56870  0.06870  Biso   1.000  O
  Mn124    1.0000 0.59490  0.55354  0.05354  Biso   1.000  Mn
  Mn125    1.0000 0.59323  0.70978  0.20978  Biso   1.000  Mn
  O1373    1.0000 0.62160  0.71440  0.21440  Biso   1.000  O
  O1374    1.0000 0.60610  0.68130  0.18130  Biso   1.000  O
  Mn126    1.0000 0.59490  0.69646  0.19646  Biso   1.000  Mn
  Mn127    1.0000 0.09323  0.70978  0.70978  Biso   1.000  Mn
  O1375    1.0000 0.12160  0.71440  0.71440  Biso   1.000  O
  O1376    1.0000 0.10610  0.68130  0.68130  Biso   1.000  O
  Mn128    1.0000 0.09490  0.69646  0.69646  Biso   1.000  Mn
  Mn129    1.0000 0.65677  0.20978  0.54022  Biso   1.000  Mn
  O1377    1.0000 0.62840  0.21440  0.53560  Biso   1.000  O
  O1378    1.0000 0.64390  0.18130  0.56870  Biso   1.000  O
  Mn130    1.0000 0.65510  0.19646  0.55354  Biso   1.000  Mn
  Mn131    1.0000 0.65677  0.70978  0.04022  Biso   1.000  Mn
  O1379    1.0000 0.62840  0.71440  0.03560  Biso   1.000  O
  O1380    1.0000 0.64390  0.68130  0.06870  Biso   1.000  O
  Mn132    1.0000 0.65510  0.69646  0.05354  Biso   1.000  Mn
  Mn133    1.0000 0.15677  0.54022  0.70978  Biso   1.000  Mn
  O1381    1.0000 0.12840  0.53560  0.71440  Biso   1.000  O
  O1382    1.0000 0.14390  0.56870  0.68130  Biso   1.000  O
  Mn134    1.0000 0.15510  0.55354  0.69646  Biso   1.000  Mn
  Mn135    1.0000 0.15677  0.04022  0.20978  Biso   1.000  Mn
  O1383    1.0000 0.12840  0.03560  0.21440  Biso   1.000  O
  O1384    1.0000 0.14390  0.06870  0.18130  Biso   1.000  O
  Mn136    1.0000 0.15510  0.05354  0.19646  Biso   1.000  Mn
  Mn137    1.0000 0.04022  0.09323  0.04022  Biso   1.000  Mn
  O1385    1.0000 0.03560  0.12160  0.03560  Biso   1.000  O
  O1386    1.0000 0.06870  0.10610  0.06870  Biso   1.000  O
  Mn138    1.0000 0.05354  0.09490  0.05354  Biso   1.000  Mn
  Mn139    1.0000 0.04022  0.59323  0.54022  Biso   1.000  Mn
  O1387    1.0000 0.03560  0.62160  0.53560  Biso   1.000  O
  O1388    1.0000 0.06870  0.60610  0.56870  Biso   1.000  O
  Mn140    1.0000 0.05354  0.59490  0.55354  Biso   1.000  Mn
  Mn141    1.0000 0.54022  0.09323  0.54022  Biso   1.000  Mn
  O1389    1.0000 0.53560  0.12160  0.53560  Biso   1.000  O
  O1390    1.0000 0.56870  0.10610  0.56870  Biso   1.000  O
  Mn142    1.0000 0.55354  0.09490  0.55354  Biso   1.000  Mn
  Mn143    1.0000 0.54022  0.59323  0.04022  Biso   1.000  Mn
  O1391    1.0000 0.53560  0.62160  0.03560  Biso   1.000  O
  O1392    1.0000 0.56870  0.60610  0.06870  Biso   1.000  O
  Mn144    1.0000 0.55354  0.59490  0.05354  Biso   1.000  Mn
  Mn145    1.0000 0.20978  0.59323  0.70978  Biso   1.000  Mn
  O1393    1.0000 0.21440  0.62160  0.71440  Biso   1.000  O
  O1394    1.0000 0.18130  0.60610  0.68130  Biso   1.000  O
  Mn146    1.0000 0.19646  0.59490  0.69646  Biso   1.000  Mn
  Mn147    1.0000 0.20978  0.09323  0.20978  Biso   1.000  Mn
  O1395    1.0000 0.21440  0.12160  0.21440  Biso   1.000  O
  O1396    1.0000 0.18130  0.10610  0.18130  Biso   1.000  O
  Mn148    1.0000 0.19646  0.09490  0.19646  Biso   1.000  Mn
  Mn149    1.0000 0.54022  0.65677  0.20978  Biso   1.000  Mn
  O1397    1.0000 0.53560  0.62840  0.21440  Biso   1.000  O
  O1398    1.0000 0.56870  0.64390  0.18130  Biso   1.000  O
  Mn150    1.0000 0.55354  0.65510  0.19646  Biso   1.000  Mn
  Mn151    1.0000 0.04022  0.65677  0.70978  Biso   1.000  Mn
  O1399    1.0000 0.03560  0.62840  0.71440  Biso   1.000  O
  O1400    1.0000 0.06870  0.64390  0.68130  Biso   1.000  O
  Mn152    1.0000 0.05354  0.65510  0.69646  Biso   1.000  Mn
  Mn153    1.0000 0.70978  0.15677  0.54022  Biso   1.000  Mn
  O1401    1.0000 0.71440  0.12840  0.53560  Biso   1.000  O
  O1402    1.0000 0.68130  0.14390  0.56870  Biso   1.000  O
  Mn154    1.0000 0.69646  0.15510  0.55354  Biso   1.000  Mn
  Mn155    1.0000 0.70978  0.65677  0.04022  Biso   1.000  Mn
  O1403    1.0000 0.71440  0.62840  0.03560  Biso   1.000  O
  O1404    1.0000 0.68130  0.64390  0.06870  Biso   1.000  O
  Mn156    1.0000 0.69646  0.65510  0.05354  Biso   1.000  Mn
  Mn157    1.0000 0.79022  0.29022  0.40677  Biso   1.000  Mn
  O1405    1.0000 0.78560  0.28560  0.37840  Biso   1.000  O
  O1406    1.0000 0.81870  0.31870  0.39390  Biso   1.000  O
  Mn158    1.0000 0.80354  0.30354  0.40510  Biso   1.000  Mn
  Mn159    1.0000 0.79022  0.79022  0.90677  Biso   1.000  Mn
  O1407    1.0000 0.78560  0.78560  0.87840  Biso   1.000  O
  O1408    1.0000 0.81870  0.81870  0.89390  Biso   1.000  O
  Mn160    1.0000 0.80354  0.80354  0.90510  Biso   1.000  Mn
  Mn161    1.0000 0.95978  0.95978  0.90677  Biso   1.000  Mn
  O1409    1.0000 0.96440  0.96440  0.87840  Biso   1.000  O
  O1410    1.0000 0.93130  0.93130  0.89390  Biso   1.000  O
  Mn162    1.0000 0.94646  0.94646  0.90510  Biso   1.000  Mn
  Mn163    1.0000 0.95978  0.45978  0.40677  Biso   1.000  Mn
  O1411    1.0000 0.96440  0.46440  0.37840  Biso   1.000  O
  O1412    1.0000 0.93130  0.43130  0.39390  Biso   1.000  O
  Mn164    1.0000 0.94646  0.44646  0.40510  Biso   1.000  Mn
  Mn165    1.0000 0.45978  0.95978  0.40677  Biso   1.000  Mn
  O1413    1.0000 0.46440  0.96440  0.37840  Biso   1.000  O
  O1414    1.0000 0.43130  0.93130  0.39390  Biso   1.000  O
  Mn166    1.0000 0.44646  0.94646  0.40510  Biso   1.000  Mn
  Mn167    1.0000 0.45978  0.45978  0.90677  Biso   1.000  Mn
  O1415    1.0000 0.46440  0.46440  0.87840  Biso   1.000  O
  O1416    1.0000 0.43130  0.43130  0.89390  Biso   1.000  O
  Mn168    1.0000 0.44646  0.44646  0.90510  Biso   1.000  Mn
  Mn169    1.0000 0.29022  0.45978  0.84323  Biso   1.000  Mn
  O1417    1.0000 0.28560  0.46440  0.87160  Biso   1.000  O
  O1418    1.0000 0.31870  0.43130  0.85610  Biso   1.000  O
  Mn170    1.0000 0.30354  0.44646  0.84490  Biso   1.000  Mn
  Mn171    1.0000 0.29022  0.95978  0.34323  Biso   1.000  Mn
  O1419    1.0000 0.28560  0.96440  0.37160  Biso   1.000  O
  O1420    1.0000 0.31870  0.93130  0.35610  Biso   1.000  O
  Mn172    1.0000 0.30354  0.94646  0.34490  Biso   1.000  Mn
  Mn173    1.0000 0.45978  0.79022  0.34323  Biso   1.000  Mn
  O1421    1.0000 0.46440  0.78560  0.37160  Biso   1.000  O
  O1422    1.0000 0.43130  0.81870  0.35610  Biso   1.000  O
  Mn174    1.0000 0.44646  0.80354  0.34490  Biso   1.000  Mn
  Mn175    1.0000 0.95978  0.79022  0.84323  Biso   1.000  Mn
  O1423    1.0000 0.96440  0.78560  0.87160  Biso   1.000  O
  O1424    1.0000 0.93130  0.81870  0.85610  Biso   1.000  O
  Mn176    1.0000 0.94646  0.80354  0.84490  Biso   1.000  Mn
  Mn177    1.0000 0.79022  0.34323  0.45978  Biso   1.000  Mn
  O1425    1.0000 0.78560  0.37160  0.46440  Biso   1.000  O
  O1426    1.0000 0.81870  0.35610  0.43130  Biso   1.000  O
  Mn178    1.0000 0.80354  0.34490  0.44646  Biso   1.000  Mn
  Mn179    1.0000 0.79022  0.84323  0.95978  Biso   1.000  Mn
  O1427    1.0000 0.78560  0.87160  0.96440  Biso   1.000  O
  O1428    1.0000 0.81870  0.85610  0.93130  Biso   1.000  O
  Mn180    1.0000 0.80354  0.84490  0.94646  Biso   1.000  Mn
  Mn181    1.0000 0.45978  0.84323  0.29022  Biso   1.000  Mn
  O1429    1.0000 0.46440  0.87160  0.28560  Biso   1.000  O
  O1430    1.0000 0.43130  0.85610  0.31870  Biso   1.000  O
  Mn182    1.0000 0.44646  0.84490  0.30354  Biso   1.000  Mn
  Mn183    1.0000 0.95978  0.84323  0.79022  Biso   1.000  Mn
  O1431    1.0000 0.96440  0.87160  0.78560  Biso   1.000  O
  O1432    1.0000 0.93130  0.85610  0.81870  Biso   1.000  O
  Mn184    1.0000 0.94646  0.84490  0.80354  Biso   1.000  Mn
  Mn185    1.0000 0.95978  0.90677  0.95978  Biso   1.000  Mn
  O1433    1.0000 0.96440  0.87840  0.96440  Biso   1.000  O
  O1434    1.0000 0.93130  0.89390  0.93130  Biso   1.000  O
  Mn186    1.0000 0.94646  0.90510  0.94646  Biso   1.000  Mn
  Mn187    1.0000 0.95978  0.40677  0.45978  Biso   1.000  Mn
  O1435    1.0000 0.96440  0.37840  0.46440  Biso   1.000  O
  O1436    1.0000 0.93130  0.39390  0.43130  Biso   1.000  O
  Mn188    1.0000 0.94646  0.40510  0.44646  Biso   1.000  Mn
  Mn189    1.0000 0.45978  0.90677  0.45978  Biso   1.000  Mn
  O1437    1.0000 0.46440  0.87840  0.46440  Biso   1.000  O
  O1438    1.0000 0.43130  0.89390  0.43130  Biso   1.000  O
  Mn190    1.0000 0.44646  0.90510  0.44646  Biso   1.000  Mn
  Mn191    1.0000 0.45978  0.40677  0.95978  Biso   1.000  Mn
  O1439    1.0000 0.46440  0.37840  0.96440  Biso   1.000  O
  O1440    1.0000 0.43130  0.39390  0.93130  Biso   1.000  O
  Mn192    1.0000 0.44646  0.40510  0.94646  Biso   1.000  Mn
  Mn193    1.0000 0.29022  0.40677  0.79022  Biso   1.000  Mn
  O1441    1.0000 0.28560  0.37840  0.78560  Biso   1.000  O
  O1442    1.0000 0.31870  0.39390  0.81870  Biso   1.000  O
  Mn194    1.0000 0.30354  0.40510  0.80354  Biso   1.000  Mn
  Mn195    1.0000 0.29022  0.90677  0.29022  Biso   1.000  Mn
  O1443    1.0000 0.28560  0.87840  0.28560  Biso   1.000  O
  O1444    1.0000 0.31870  0.89390  0.31870  Biso   1.000  O
  Mn196    1.0000 0.30354  0.90510  0.30354  Biso   1.000  Mn
  Mn197    1.0000 0.84323  0.29022  0.45978  Biso   1.000  Mn
  O1445    1.0000 0.87160  0.28560  0.46440  Biso   1.000  O
  O1446    1.0000 0.85610  0.31870  0.43130  Biso   1.000  O
  Mn198    1.0000 0.84490  0.30354  0.44646  Biso   1.000  Mn
  Mn199    1.0000 0.84323  0.79022  0.95978  Biso   1.000  Mn
  O1447    1.0000 0.87160  0.78560  0.96440  Biso   1.000  O
  O1448    1.0000 0.85610  0.81870  0.93130  Biso   1.000  O
  Mn200    1.0000 0.84490  0.80354  0.94646  Biso   1.000  Mn
  Mn201    1.0000 0.34323  0.45978  0.79022  Biso   1.000  Mn
  O1449    1.0000 0.37160  0.46440  0.78560  Biso   1.000  O
  O1450    1.0000 0.35610  0.43130  0.81870  Biso   1.000  O
  Mn202    1.0000 0.34490  0.44646  0.80354  Biso   1.000  Mn
  Mn203    1.0000 0.34323  0.95978  0.29022  Biso   1.000  Mn
  O1451    1.0000 0.37160  0.96440  0.28560  Biso   1.000  O
  O1452    1.0000 0.35610  0.93130  0.31870  Biso   1.000  O
  Mn204    1.0000 0.34490  0.94646  0.30354  Biso   1.000  Mn
  Mn205    1.0000 0.40677  0.79022  0.29022  Biso   1.000  Mn
  O1453    1.0000 0.37840  0.78560  0.28560  Biso   1.000  O
  O1454    1.0000 0.39390  0.81870  0.31870  Biso   1.000  O
  Mn206    1.0000 0.40510  0.80354  0.30354  Biso   1.000  Mn
  Mn207    1.0000 0.90677  0.79022  0.79022  Biso   1.000  Mn
  O1455    1.0000 0.87840  0.78560  0.78560  Biso   1.000  O
  O1456    1.0000 0.89390  0.81870  0.81870  Biso   1.000  O
  Mn208    1.0000 0.90510  0.80354  0.80354  Biso   1.000  Mn
  Mn209    1.0000 0.90677  0.95978  0.95978  Biso   1.000  Mn
  O1457    1.0000 0.87840  0.96440  0.96440  Biso   1.000  O
  O1458    1.0000 0.89390  0.93130  0.93130  Biso   1.000  O
  Mn210    1.0000 0.90510  0.94646  0.94646  Biso   1.000  Mn
  Mn211    1.0000 0.90677  0.45978  0.45978  Biso   1.000  Mn
  O1459    1.0000 0.87840  0.46440  0.46440  Biso   1.000  O
  O1460    1.0000 0.89390  0.43130  0.43130  Biso   1.000  O
  Mn212    1.0000 0.90510  0.44646  0.44646  Biso   1.000  Mn
  Mn213    1.0000 0.40677  0.95978  0.45978  Biso   1.000  Mn
  O1461    1.0000 0.37840  0.96440  0.46440  Biso   1.000  O
  O1462    1.0000 0.39390  0.93130  0.43130  Biso   1.000  O
  Mn214    1.0000 0.40510  0.94646  0.44646  Biso   1.000  Mn
  Mn215    1.0000 0.40677  0.45978  0.95978  Biso   1.000  Mn
  O1463    1.0000 0.37840  0.46440  0.96440  Biso   1.000  O
  O1464    1.0000 0.39390  0.43130  0.93130  Biso   1.000  O
  Mn216    1.0000 0.40510  0.44646  0.94646  Biso   1.000  Mn
  Mn217    1.0000 0.29022  0.79022  0.40677  Biso   1.000  Mn
  O1465    1.0000 0.28560  0.78560  0.37840  Biso   1.000  O
  O1466    1.0000 0.31870  0.81870  0.39390  Biso   1.000  O
  Mn218    1.0000 0.30354  0.80354  0.40510  Biso   1.000  Mn
  Mn219    1.0000 0.29022  0.29022  0.90677  Biso   1.000  Mn
  O1467    1.0000 0.28560  0.28560  0.87840  Biso   1.000  O
  O1468    1.0000 0.31870  0.31870  0.89390  Biso   1.000  O
  Mn220    1.0000 0.30354  0.30354  0.90510  Biso   1.000  Mn
  Mn221    1.0000 0.79022  0.45978  0.34323  Biso   1.000  Mn
  O1469    1.0000 0.78560  0.46440  0.37160  Biso   1.000  O
  O1470    1.0000 0.81870  0.43130  0.35610  Biso   1.000  O
  Mn222    1.0000 0.80354  0.44646  0.34490  Biso   1.000  Mn
  Mn223    1.0000 0.79022  0.95978  0.84323  Biso   1.000  Mn
  O1471    1.0000 0.78560  0.96440  0.87160  Biso   1.000  O
  O1472    1.0000 0.81870  0.93130  0.85610  Biso   1.000  O
  Mn224    1.0000 0.80354  0.94646  0.84490  Biso   1.000  Mn
  Mn225    1.0000 0.45978  0.29022  0.84323  Biso   1.000  Mn
  O1473    1.0000 0.46440  0.28560  0.87160  Biso   1.000  O
  O1474    1.0000 0.43130  0.31870  0.85610  Biso   1.000  O
  Mn226    1.0000 0.44646  0.30354  0.84490  Biso   1.000  Mn
  Mn227    1.0000 0.95978  0.29022  0.34323  Biso   1.000  Mn
  O1475    1.0000 0.96440  0.28560  0.37160  Biso   1.000  O
  O1476    1.0000 0.93130  0.31870  0.35610  Biso   1.000  O
  Mn228    1.0000 0.94646  0.30354  0.34490  Biso   1.000  Mn
  Mn229    1.0000 0.40677  0.29022  0.79022  Biso   1.000  Mn
  O1477    1.0000 0.37840  0.28560  0.78560  Biso   1.000  O
  O1478    1.0000 0.39390  0.31870  0.81870  Biso   1.000  O
  Mn230    1.0000 0.40510  0.30354  0.80354  Biso   1.000  Mn
  Mn231    1.0000 0.90677  0.29022  0.29022  Biso   1.000  Mn
  O1479    1.0000 0.87840  0.28560  0.28560  Biso   1.000  O
  O1480    1.0000 0.89390  0.31870  0.31870  Biso   1.000  O
  Mn232    1.0000 0.90510  0.30354  0.30354  Biso   1.000  Mn
  Mn233    1.0000 0.34323  0.79022  0.45978  Biso   1.000  Mn
  O1481    1.0000 0.37160  0.78560  0.46440  Biso   1.000  O
  O1482    1.0000 0.35610  0.81870  0.43130  Biso   1.000  O
  Mn234    1.0000 0.34490  0.80354  0.44646  Biso   1.000  Mn
  Mn235    1.0000 0.34323  0.29022  0.95978  Biso   1.000  Mn
  O1483    1.0000 0.37160  0.28560  0.96440  Biso   1.000  O
  O1484    1.0000 0.35610  0.31870  0.93130  Biso   1.000  O
  Mn236    1.0000 0.34490  0.30354  0.94646  Biso   1.000  Mn
  Mn237    1.0000 0.84323  0.45978  0.29022  Biso   1.000  Mn
  O1485    1.0000 0.87160  0.46440  0.28560  Biso   1.000  O
  O1486    1.0000 0.85610  0.43130  0.31870  Biso   1.000  O
  Mn238    1.0000 0.84490  0.44646  0.30354  Biso   1.000  Mn
  Mn239    1.0000 0.84323  0.95978  0.79022  Biso   1.000  Mn
  O1487    1.0000 0.87160  0.96440  0.78560  Biso   1.000  O
  O1488    1.0000 0.85610  0.93130  0.81870  Biso   1.000  O
  Mn240    1.0000 0.84490  0.94646  0.80354  Biso   1.000  Mn
  Mn241    1.0000 0.79022  0.40677  0.29022  Biso   1.000  Mn
  O1489    1.0000 0.78560  0.37840  0.28560  Biso   1.000  O
  O1490    1.0000 0.81870  0.39390  0.31870  Biso   1.000  O
  Mn242    1.0000 0.80354  0.40510  0.30354  Biso   1.000  Mn
  Mn243    1.0000 0.79022  0.90677  0.79022  Biso   1.000  Mn
  O1491    1.0000 0.78560  0.87840  0.78560  Biso   1.000  O
  O1492    1.0000 0.81870  0.89390  0.81870  Biso   1.000  O
  Mn244    1.0000 0.80354  0.90510  0.80354  Biso   1.000  Mn
  Mn245    1.0000 0.45978  0.34323  0.79022  Biso   1.000  Mn
  O1493    1.0000 0.46440  0.37160  0.78560  Biso   1.000  O
  O1494    1.0000 0.43130  0.35610  0.81870  Biso   1.000  O
  Mn246    1.0000 0.44646  0.34490  0.80354  Biso   1.000  Mn
  Mn247    1.0000 0.95978  0.34323  0.29022  Biso   1.000  Mn
  O1495    1.0000 0.96440  0.37160  0.28560  Biso   1.000  O
  O1496    1.0000 0.93130  0.35610  0.31870  Biso   1.000  O
  Mn248    1.0000 0.94646  0.34490  0.30354  Biso   1.000  Mn
  Mn249    1.0000 0.29022  0.84323  0.45978  Biso   1.000  Mn
  O1497    1.0000 0.28560  0.87160  0.46440  Biso   1.000  O
  O1498    1.0000 0.31870  0.85610  0.43130  Biso   1.000  O
  Mn250    1.0000 0.30354  0.84490  0.44646  Biso   1.000  Mn
  Mn251    1.0000 0.29022  0.34323  0.95978  Biso   1.000  Mn
  O1499    1.0000 0.28560  0.37160  0.96440  Biso   1.000  O
  O1500    1.0000 0.31870  0.35610  0.93130  Biso   1.000  O
  Mn252    1.0000 0.30354  0.34490  0.94646  Biso   1.000  Mn
  Mn253    1.0000 0.20978  0.70978  0.59323  Biso   1.000  Mn
  O1501    1.0000 0.21440  0.71440  0.62160  Biso   1.000  O
  O1502    1.0000 0.18130  0.68130  0.60610  Biso   1.000  O
  Mn254    1.0000 0.19646  0.69646  0.59490  Biso   1.000  Mn
  Mn255    1.0000 0.20978  0.20978  0.09323  Biso   1.000  Mn
  O1503    1.0000 0.21440  0.21440  0.12160  Biso   1.000  O
  O1504    1.0000 0.18130  0.18130  0.10610  Biso   1.000  O
  Mn256    1.0000 0.19646  0.19646  0.09490  Biso   1.000  Mn
  Mn257    1.0000 0.70978  0.54022  0.15677  Biso   1.000  Mn
  O1505    1.0000 0.71440  0.53560  0.12840  Biso   1.000  O
  O1506    1.0000 0.68130  0.56870  0.14390  Biso   1.000  O
  Mn258    1.0000 0.69646  0.55354  0.15510  Biso   1.000  Mn
  Mn259    1.0000 0.70978  0.04022  0.65677  Biso   1.000  Mn
  O1507    1.0000 0.71440  0.03560  0.62840  Biso   1.000  O
  O1508    1.0000 0.68130  0.06870  0.64390  Biso   1.000  O
  Mn260    1.0000 0.69646  0.05354  0.65510  Biso   1.000  Mn
  Mn261    1.0000 0.54022  0.20978  0.65677  Biso   1.000  Mn
  O1509    1.0000 0.53560  0.21440  0.62840  Biso   1.000  O
  O1510    1.0000 0.56870  0.18130  0.64390  Biso   1.000  O
  Mn262    1.0000 0.55354  0.19646  0.65510  Biso   1.000  Mn
  Mn263    1.0000 0.04022  0.20978  0.15677  Biso   1.000  Mn
  O1511    1.0000 0.03560  0.21440  0.12840  Biso   1.000  O
  O1512    1.0000 0.06870  0.18130  0.14390  Biso   1.000  O
  Mn264    1.0000 0.05354  0.19646  0.15510  Biso   1.000  Mn
  Mn265    1.0000 0.20978  0.65677  0.54022  Biso   1.000  Mn
  O1513    1.0000 0.21440  0.62840  0.53560  Biso   1.000  O
  O1514    1.0000 0.18130  0.64390  0.56870  Biso   1.000  O
  Mn266    1.0000 0.19646  0.65510  0.55354  Biso   1.000  Mn
  Mn267    1.0000 0.20978  0.15677  0.04022  Biso   1.000  Mn
  O1515    1.0000 0.21440  0.12840  0.03560  Biso   1.000  O
  O1516    1.0000 0.18130  0.14390  0.06870  Biso   1.000  O
  Mn268    1.0000 0.19646  0.15510  0.05354  Biso   1.000  Mn
  Mn269    1.0000 0.54022  0.15677  0.70978  Biso   1.000  Mn
  O1517    1.0000 0.53560  0.12840  0.71440  Biso   1.000  O
  O1518    1.0000 0.56870  0.14390  0.68130  Biso   1.000  O
  Mn270    1.0000 0.55354  0.15510  0.69646  Biso   1.000  Mn
  Mn271    1.0000 0.04022  0.15677  0.20978  Biso   1.000  Mn
  O1519    1.0000 0.03560  0.12840  0.21440  Biso   1.000  O
  O1520    1.0000 0.06870  0.14390  0.18130  Biso   1.000  O
  Mn272    1.0000 0.05354  0.15510  0.19646  Biso   1.000  Mn
  Mn273    1.0000 0.70978  0.59323  0.20978  Biso   1.000  Mn
  O1521    1.0000 0.71440  0.62160  0.21440  Biso   1.000  O
  O1522    1.0000 0.68130  0.60610  0.18130  Biso   1.000  O
  Mn274    1.0000 0.69646  0.59490  0.19646  Biso   1.000  Mn
  Mn275    1.0000 0.70978  0.09323  0.70978  Biso   1.000  Mn
  O1523    1.0000 0.71440  0.12160  0.71440  Biso   1.000  O
  O1524    1.0000 0.68130  0.10610  0.68130  Biso   1.000  O
  Mn276    1.0000 0.69646  0.09490  0.69646  Biso   1.000  Mn
  Mn277    1.0000 0.15677  0.70978  0.54022  Biso   1.000  Mn
  O1525    1.0000 0.12840  0.71440  0.53560  Biso   1.000  O
  O1526    1.0000 0.14390  0.68130  0.56870  Biso   1.000  O
  Mn278    1.0000 0.15510  0.69646  0.55354  Biso   1.000  Mn
  Mn279    1.0000 0.15677  0.20978  0.04022  Biso   1.000  Mn
  O1527    1.0000 0.12840  0.21440  0.03560  Biso   1.000  O
  O1528    1.0000 0.14390  0.18130  0.06870  Biso   1.000  O
  Mn280    1.0000 0.15510  0.19646  0.05354  Biso   1.000  Mn
  Mn281    1.0000 0.65677  0.54022  0.20978  Biso   1.000  Mn
  O1529    1.0000 0.62840  0.53560  0.21440  Biso   1.000  O
  O1530    1.0000 0.64390  0.56870  0.18130  Biso   1.000  O
  Mn282    1.0000 0.65510  0.55354  0.19646  Biso   1.000  Mn
  Mn283    1.0000 0.65677  0.04022  0.70978  Biso   1.000  Mn
  O1531    1.0000 0.62840  0.03560  0.71440  Biso   1.000  O
  O1532    1.0000 0.64390  0.06870  0.68130  Biso   1.000  O
  Mn284    1.0000 0.65510  0.05354  0.69646  Biso   1.000  Mn
  Mn285    1.0000 0.59323  0.20978  0.70978  Biso   1.000  Mn
  O1533    1.0000 0.62160  0.21440  0.71440  Biso   1.000  O
  O1534    1.0000 0.60610  0.18130  0.68130  Biso   1.000  O
  Mn286    1.0000 0.59490  0.19646  0.69646  Biso   1.000  Mn
  Mn287    1.0000 0.09323  0.20978  0.20978  Biso   1.000  Mn
  O1535    1.0000 0.12160  0.21440  0.21440  Biso   1.000  O
  O1536    1.0000 0.10610  0.18130  0.18130  Biso   1.000  O
  Mn288    1.0000 0.09490  0.19646  0.19646  Biso   1.000  Mn
  O1537    1.0000 0.69688  0.05312  0.05312  Biso   1.000  O
  O1538    1.0000 0.05312  0.19688  0.55312  Biso   1.000  O
  O1539    1.0000 0.55312  0.55312  0.69688  Biso   1.000  O
  O1540    1.0000 0.19688  0.69688  0.19688  Biso   1.000  O
  O1541    1.0000 0.05312  0.69688  0.05312  Biso   1.000  O
  O1542    1.0000 0.55312  0.05312  0.19688  Biso   1.000  O
  O1543    1.0000 0.69688  0.55312  0.55312  Biso   1.000  O
  O1544    1.0000 0.19688  0.19688  0.69688  Biso   1.000  O
  O1545    1.0000 0.05312  0.05312  0.69688  Biso   1.000  O
  O1546    1.0000 0.19688  0.55312  0.05312  Biso   1.000  O
  O1547    1.0000 0.55312  0.69688  0.55312  Biso   1.000  O
  O1548    1.0000 0.69688  0.19688  0.19688  Biso   1.000  O
  O1549    1.0000 0.69688  0.69688  0.69688  Biso   1.000  O
  O1550    1.0000 0.80312  0.94688  0.44688  Biso   1.000  O
  O1551    1.0000 0.94688  0.30312  0.94688  Biso   1.000  O
  O1552    1.0000 0.30312  0.80312  0.80312  Biso   1.000  O
  O1553    1.0000 0.30312  0.30312  0.30312  Biso   1.000  O
  O1554    1.0000 0.44688  0.44688  0.30312  Biso   1.000  O
  O1555    1.0000 0.44688  0.30312  0.44688  Biso   1.000  O
  O1556    1.0000 0.80312  0.80312  0.30312  Biso   1.000  O
  O1557    1.0000 0.30312  0.94688  0.94688  Biso   1.000  O
  O1558    1.0000 0.94688  0.44688  0.80312  Biso   1.000  O
  O1559    1.0000 0.80312  0.30312  0.80312  Biso   1.000  O
  O1560    1.0000 0.30312  0.44688  0.44688  Biso   1.000  O
  O1561    1.0000 0.44688  0.80312  0.94688  Biso   1.000  O
  O1562    1.0000 0.94688  0.94688  0.30312  Biso   1.000  O
  O1563    1.0000 0.94688  0.80312  0.44688  Biso   1.000  O
  O1564    1.0000 0.44688  0.94688  0.80312  Biso   1.000  O
  O1565    1.0000 0.80312  0.44688  0.94688  Biso   1.000  O
  O1566    1.0000 0.19688  0.05312  0.55312  Biso   1.000  O
  O1567    1.0000 0.05312  0.55312  0.19688  Biso   1.000  O
  O1568    1.0000 0.55312  0.19688  0.05312  Biso   1.000  O
  C1153    1.0000 0.91320  0.06980  0.06980  Biso   1.000  C
  C1154    1.0000 0.96870  0.07320  0.07320  Biso   1.000  C
  C1155    1.0000 0.99890  0.07780  0.07780  Biso   1.000  C
  C1156    1.0000 0.62740  0.06040  0.06040  Biso   1.000  C
  C1157    1.0000 0.60500  0.07042  0.07042  Biso   1.000  C
  C1158    1.0000 0.91320  0.56980  0.56980  Biso   1.000  C
  C1159    1.0000 0.96870  0.57320  0.57320  Biso   1.000  C
  C1160    1.0000 0.99890  0.57780  0.57780  Biso   1.000  C
  C1161    1.0000 0.62740  0.56040  0.56040  Biso   1.000  C
  C1162    1.0000 0.60500  0.57042  0.57042  Biso   1.000  C
  C1163    1.0000 0.41320  0.06980  0.56980  Biso   1.000  C
  C1164    1.0000 0.46870  0.07320  0.57320  Biso   1.000  C
  C1165    1.0000 0.49890  0.07780  0.57780  Biso   1.000  C
  C1166    1.0000 0.12740  0.06040  0.56040  Biso   1.000  C
  C1167    1.0000 0.10500  0.07042  0.57042  Biso   1.000  C
  C1168    1.0000 0.41320  0.56980  0.06980  Biso   1.000  C
  C1169    1.0000 0.46870  0.57320  0.07320  Biso   1.000  C
  C1170    1.0000 0.49890  0.57780  0.07780  Biso   1.000  C
  C1171    1.0000 0.12740  0.56040  0.06040  Biso   1.000  C
  C1172    1.0000 0.10500  0.57042  0.07042  Biso   1.000  C
  C1173    1.0000 0.83680  0.18020  0.56980  Biso   1.000  C
  C1174    1.0000 0.78130  0.17680  0.57320  Biso   1.000  C
  C1175    1.0000 0.75110  0.17220  0.57780  Biso   1.000  C
  C1176    1.0000 0.12260  0.18960  0.56040  Biso   1.000  C
  C1177    1.0000 0.14500  0.17958  0.57042  Biso   1.000  C
  C1178    1.0000 0.83680  0.68020  0.06980  Biso   1.000  C
  C1179    1.0000 0.78130  0.67680  0.07320  Biso   1.000  C
  C1180    1.0000 0.75110  0.67220  0.07780  Biso   1.000  C
  C1181    1.0000 0.12260  0.68960  0.06040  Biso   1.000  C
  C1182    1.0000 0.14500  0.67958  0.07042  Biso   1.000  C
  C1183    1.0000 0.33680  0.56980  0.68020  Biso   1.000  C
  C1184    1.0000 0.28130  0.57320  0.67680  Biso   1.000  C
  C1185    1.0000 0.25110  0.57780  0.67220  Biso   1.000  C
  C1186    1.0000 0.62260  0.56040  0.68960  Biso   1.000  C
  C1187    1.0000 0.64500  0.57042  0.67958  Biso   1.000  C
  C1188    1.0000 0.33680  0.06980  0.18020  Biso   1.000  C
  C1189    1.0000 0.28130  0.07320  0.17680  Biso   1.000  C
  C1190    1.0000 0.25110  0.07780  0.17220  Biso   1.000  C
  C1191    1.0000 0.62260  0.06040  0.18960  Biso   1.000  C
  C1192    1.0000 0.64500  0.07042  0.17958  Biso   1.000  C
  C1193    1.0000 0.41320  0.68020  0.18020  Biso   1.000  C
  C1194    1.0000 0.46870  0.67680  0.17680  Biso   1.000  C
  C1195    1.0000 0.49890  0.67220  0.17220  Biso   1.000  C
  C1196    1.0000 0.12740  0.68960  0.18960  Biso   1.000  C
  C1197    1.0000 0.10500  0.67958  0.17958  Biso   1.000  C
  C1198    1.0000 0.91320  0.68020  0.68020  Biso   1.000  C
  C1199    1.0000 0.96870  0.67680  0.67680  Biso   1.000  C
  C1200    1.0000 0.99890  0.67220  0.67220  Biso   1.000  C
  C1201    1.0000 0.62740  0.68960  0.68960  Biso   1.000  C
  C1202    1.0000 0.60500  0.67958  0.67958  Biso   1.000  C
  C1203    1.0000 0.91320  0.18020  0.18020  Biso   1.000  C
  C1204    1.0000 0.96870  0.17680  0.17680  Biso   1.000  C
  C1205    1.0000 0.99890  0.17220  0.17220  Biso   1.000  C
  C1206    1.0000 0.62740  0.18960  0.18960  Biso   1.000  C
  C1207    1.0000 0.60500  0.17958  0.17958  Biso   1.000  C
  C1208    1.0000 0.06980  0.91320  0.06980  Biso   1.000  C
  C1209    1.0000 0.07320  0.96870  0.07320  Biso   1.000  C
  C1210    1.0000 0.07780  0.99890  0.07780  Biso   1.000  C
  C1211    1.0000 0.06040  0.62740  0.06040  Biso   1.000  C
  C1212    1.0000 0.07042  0.60500  0.07042  Biso   1.000  C
  C1213    1.0000 0.06980  0.41320  0.56980  Biso   1.000  C
  C1214    1.0000 0.07320  0.46870  0.57320  Biso   1.000  C
  C1215    1.0000 0.07780  0.49890  0.57780  Biso   1.000  C
  C1216    1.0000 0.06040  0.12740  0.56040  Biso   1.000  C
  C1217    1.0000 0.07042  0.10500  0.57042  Biso   1.000  C
  C1218    1.0000 0.56980  0.91320  0.56980  Biso   1.000  C
  C1219    1.0000 0.57320  0.96870  0.57320  Biso   1.000  C
  C1220    1.0000 0.57780  0.99890  0.57780  Biso   1.000  C
  C1221    1.0000 0.56040  0.62740  0.56040  Biso   1.000  C
  C1222    1.0000 0.57042  0.60500  0.57042  Biso   1.000  C
  C1223    1.0000 0.56980  0.41320  0.06980  Biso   1.000  C
  C1224    1.0000 0.57320  0.46870  0.07320  Biso   1.000  C
  C1225    1.0000 0.57780  0.49890  0.07780  Biso   1.000  C
  C1226    1.0000 0.56040  0.12740  0.06040  Biso   1.000  C
  C1227    1.0000 0.57042  0.10500  0.07042  Biso   1.000  C
  C1228    1.0000 0.56980  0.83680  0.18020  Biso   1.000  C
  C1229    1.0000 0.57320  0.78130  0.17680  Biso   1.000  C
  C1230    1.0000 0.57780  0.75110  0.17220  Biso   1.000  C
  C1231    1.0000 0.56040  0.12260  0.18960  Biso   1.000  C
  C1232    1.0000 0.57042  0.14500  0.17958  Biso   1.000  C
  C1233    1.0000 0.06980  0.83680  0.68020  Biso   1.000  C
  C1234    1.0000 0.07320  0.78130  0.67680  Biso   1.000  C
  C1235    1.0000 0.07780  0.75110  0.67220  Biso   1.000  C
  C1236    1.0000 0.06040  0.12260  0.68960  Biso   1.000  C
  C1237    1.0000 0.07042  0.14500  0.67958  Biso   1.000  C
  C1238    1.0000 0.68020  0.33680  0.56980  Biso   1.000  C
  C1239    1.0000 0.67680  0.28130  0.57320  Biso   1.000  C
  C1240    1.0000 0.67220  0.25110  0.57780  Biso   1.000  C
  C1241    1.0000 0.68960  0.62260  0.56040  Biso   1.000  C
  C1242    1.0000 0.67958  0.64500  0.57042  Biso   1.000  C
  C1243    1.0000 0.68020  0.83680  0.06980  Biso   1.000  C
  C1244    1.0000 0.67680  0.78130  0.07320  Biso   1.000  C
  C1245    1.0000 0.67220  0.75110  0.07780  Biso   1.000  C
  C1246    1.0000 0.68960  0.12260  0.06040  Biso   1.000  C
  C1247    1.0000 0.67958  0.14500  0.07042  Biso   1.000  C
  C1248    1.0000 0.18020  0.41320  0.68020  Biso   1.000  C
  C1249    1.0000 0.17680  0.46870  0.67680  Biso   1.000  C
  C1250    1.0000 0.17220  0.49890  0.67220  Biso   1.000  C
  C1251    1.0000 0.18960  0.12740  0.68960  Biso   1.000  C
  C1252    1.0000 0.17958  0.10500  0.67958  Biso   1.000  C
  C1253    1.0000 0.18020  0.91320  0.18020  Biso   1.000  C
  C1254    1.0000 0.17680  0.96870  0.17680  Biso   1.000  C
  C1255    1.0000 0.17220  0.99890  0.17220  Biso   1.000  C
  C1256    1.0000 0.18960  0.62740  0.18960  Biso   1.000  C
  C1257    1.0000 0.17958  0.60500  0.17958  Biso   1.000  C
  C1258    1.0000 0.06980  0.06980  0.91320  Biso   1.000  C
  C1259    1.0000 0.07320  0.07320  0.96870  Biso   1.000  C
  C1260    1.0000 0.07780  0.07780  0.99890  Biso   1.000  C
  C1261    1.0000 0.06040  0.06040  0.62740  Biso   1.000  C
  C1262    1.0000 0.07042  0.07042  0.60500  Biso   1.000  C
  C1263    1.0000 0.06980  0.56980  0.41320  Biso   1.000  C
  C1264    1.0000 0.07320  0.57320  0.46870  Biso   1.000  C
  C1265    1.0000 0.07780  0.57780  0.49890  Biso   1.000  C
  C1266    1.0000 0.06040  0.56040  0.12740  Biso   1.000  C
  C1267    1.0000 0.07042  0.57042  0.10500  Biso   1.000  C
  C1268    1.0000 0.56980  0.06980  0.41320  Biso   1.000  C
  C1269    1.0000 0.57320  0.07320  0.46870  Biso   1.000  C
  C1270    1.0000 0.57780  0.07780  0.49890  Biso   1.000  C
  C1271    1.0000 0.56040  0.06040  0.12740  Biso   1.000  C
  C1272    1.0000 0.57042  0.07042  0.10500  Biso   1.000  C
  C1273    1.0000 0.56980  0.56980  0.91320  Biso   1.000  C
  C1274    1.0000 0.57320  0.57320  0.96870  Biso   1.000  C
  C1275    1.0000 0.57780  0.57780  0.99890  Biso   1.000  C
  C1276    1.0000 0.56040  0.56040  0.62740  Biso   1.000  C
  C1277    1.0000 0.57042  0.57042  0.60500  Biso   1.000  C
  C1278    1.0000 0.18020  0.56980  0.83680  Biso   1.000  C
  C1279    1.0000 0.17680  0.57320  0.78130  Biso   1.000  C
  C1280    1.0000 0.17220  0.57780  0.75110  Biso   1.000  C
  C1281    1.0000 0.18960  0.56040  0.12260  Biso   1.000  C
  C1282    1.0000 0.17958  0.57042  0.14500  Biso   1.000  C
  C1283    1.0000 0.18020  0.06980  0.33680  Biso   1.000  C
  C1284    1.0000 0.17680  0.07320  0.28130  Biso   1.000  C
  C1285    1.0000 0.17220  0.07780  0.25110  Biso   1.000  C
  C1286    1.0000 0.18960  0.06040  0.62260  Biso   1.000  C
  C1287    1.0000 0.17958  0.07042  0.64500  Biso   1.000  C
  C1288    1.0000 0.56980  0.68020  0.33680  Biso   1.000  C
  C1289    1.0000 0.57320  0.67680  0.28130  Biso   1.000  C
  C1290    1.0000 0.57780  0.67220  0.25110  Biso   1.000  C
  C1291    1.0000 0.56040  0.68960  0.62260  Biso   1.000  C
  C1292    1.0000 0.57042  0.67958  0.64500  Biso   1.000  C
  C1293    1.0000 0.06980  0.68020  0.83680  Biso   1.000  C
  C1294    1.0000 0.07320  0.67680  0.78130  Biso   1.000  C
  C1295    1.0000 0.07780  0.67220  0.75110  Biso   1.000  C
  C1296    1.0000 0.06040  0.68960  0.12260  Biso   1.000  C
  C1297    1.0000 0.07042  0.67958  0.14500  Biso   1.000  C
  C1298    1.0000 0.68020  0.18020  0.41320  Biso   1.000  C
  C1299    1.0000 0.67680  0.17680  0.46870  Biso   1.000  C
  C1300    1.0000 0.67220  0.17220  0.49890  Biso   1.000  C
  C1301    1.0000 0.68960  0.18960  0.12740  Biso   1.000  C
  C1302    1.0000 0.67958  0.17958  0.10500  Biso   1.000  C
  C1303    1.0000 0.68020  0.68020  0.91320  Biso   1.000  C
  C1304    1.0000 0.67680  0.67680  0.96870  Biso   1.000  C
  C1305    1.0000 0.67220  0.67220  0.99890  Biso   1.000  C
  C1306    1.0000 0.68960  0.68960  0.62740  Biso   1.000  C
  C1307    1.0000 0.67958  0.67958  0.60500  Biso   1.000  C
  C1308    1.0000 0.18020  0.18020  0.91320  Biso   1.000  C
  C1309    1.0000 0.17680  0.17680  0.96870  Biso   1.000  C
  C1310    1.0000 0.17220  0.17220  0.99890  Biso   1.000  C
  C1311    1.0000 0.18960  0.18960  0.62740  Biso   1.000  C
  C1312    1.0000 0.17958  0.17958  0.60500  Biso   1.000  C
  C1313    1.0000 0.81980  0.16320  0.43020  Biso   1.000  C
  C1314    1.0000 0.82320  0.21870  0.42680  Biso   1.000  C
  C1315    1.0000 0.82780  0.24890  0.42220  Biso   1.000  C
  C1316    1.0000 0.81040  0.87740  0.43960  Biso   1.000  C
  C1317    1.0000 0.82042  0.85500  0.42958  Biso   1.000  C
  C1318    1.0000 0.81980  0.66320  0.93020  Biso   1.000  C
  C1319    1.0000 0.82320  0.71870  0.92680  Biso   1.000  C
  C1320    1.0000 0.82780  0.74890  0.92220  Biso   1.000  C
  C1321    1.0000 0.81040  0.37740  0.93960  Biso   1.000  C
  C1322    1.0000 0.82042  0.35500  0.92958  Biso   1.000  C
  C1323    1.0000 0.93020  0.08680  0.93020  Biso   1.000  C
  C1324    1.0000 0.92680  0.03130  0.92680  Biso   1.000  C
  C1325    1.0000 0.92220  0.00110  0.92220  Biso   1.000  C
  C1326    1.0000 0.93960  0.37260  0.93960  Biso   1.000  C
  C1327    1.0000 0.92958  0.39500  0.92958  Biso   1.000  C
  C1328    1.0000 0.93020  0.58680  0.43020  Biso   1.000  C
  C1329    1.0000 0.92680  0.53130  0.42680  Biso   1.000  C
  C1330    1.0000 0.92220  0.50110  0.42220  Biso   1.000  C
  C1331    1.0000 0.93960  0.87260  0.43960  Biso   1.000  C
  C1332    1.0000 0.92958  0.89500  0.42958  Biso   1.000  C
  C1333    1.0000 0.43020  0.08680  0.43020  Biso   1.000  C
  C1334    1.0000 0.42680  0.03130  0.42680  Biso   1.000  C
  C1335    1.0000 0.42220  0.00110  0.42220  Biso   1.000  C
  C1336    1.0000 0.43960  0.37260  0.43960  Biso   1.000  C
  C1337    1.0000 0.42958  0.39500  0.42958  Biso   1.000  C
  C1338    1.0000 0.43020  0.58680  0.93020  Biso   1.000  C
  C1339    1.0000 0.42680  0.53130  0.92680  Biso   1.000  C
  C1340    1.0000 0.42220  0.50110  0.92220  Biso   1.000  C
  C1341    1.0000 0.43960  0.87260  0.93960  Biso   1.000  C
  C1342    1.0000 0.42958  0.89500  0.92958  Biso   1.000  C
  C1343    1.0000 0.31980  0.58680  0.81980  Biso   1.000  C
  C1344    1.0000 0.32320  0.53130  0.82320  Biso   1.000  C
  C1345    1.0000 0.32780  0.50110  0.82780  Biso   1.000  C
  C1346    1.0000 0.31040  0.87260  0.81040  Biso   1.000  C
  C1347    1.0000 0.32042  0.89500  0.82042  Biso   1.000  C
  C1348    1.0000 0.31980  0.08680  0.31980  Biso   1.000  C
  C1349    1.0000 0.32320  0.03130  0.32320  Biso   1.000  C
  C1350    1.0000 0.32780  0.00110  0.32780  Biso   1.000  C
  C1351    1.0000 0.31040  0.37260  0.31040  Biso   1.000  C
  C1352    1.0000 0.32042  0.39500  0.32042  Biso   1.000  C
  C1353    1.0000 0.43020  0.66320  0.31980  Biso   1.000  C
  C1354    1.0000 0.42680  0.71870  0.32320  Biso   1.000  C
  C1355    1.0000 0.42220  0.74890  0.32780  Biso   1.000  C
  C1356    1.0000 0.43960  0.37740  0.31040  Biso   1.000  C
  C1357    1.0000 0.42958  0.35500  0.32042  Biso   1.000  C
  C1358    1.0000 0.93020  0.66320  0.81980  Biso   1.000  C
  C1359    1.0000 0.92680  0.71870  0.82320  Biso   1.000  C
  C1360    1.0000 0.92220  0.74890  0.82780  Biso   1.000  C
  C1361    1.0000 0.93960  0.37740  0.81040  Biso   1.000  C
  C1362    1.0000 0.92958  0.35500  0.82042  Biso   1.000  C
  C1363    1.0000 0.66320  0.31980  0.43020  Biso   1.000  C
  C1364    1.0000 0.71870  0.32320  0.42680  Biso   1.000  C
  C1365    1.0000 0.74890  0.32780  0.42220  Biso   1.000  C
  C1366    1.0000 0.37740  0.31040  0.43960  Biso   1.000  C
  C1367    1.0000 0.35500  0.32042  0.42958  Biso   1.000  C
  C1368    1.0000 0.66320  0.81980  0.93020  Biso   1.000  C
  C1369    1.0000 0.71870  0.82320  0.92680  Biso   1.000  C
  C1370    1.0000 0.74890  0.82780  0.92220  Biso   1.000  C
  C1371    1.0000 0.37740  0.81040  0.93960  Biso   1.000  C
  C1372    1.0000 0.35500  0.82042  0.92958  Biso   1.000  C
  C1373    1.0000 0.58680  0.81980  0.31980  Biso   1.000  C
  C1374    1.0000 0.53130  0.82320  0.32320  Biso   1.000  C
  C1375    1.0000 0.50110  0.82780  0.32780  Biso   1.000  C
  C1376    1.0000 0.87260  0.81040  0.31040  Biso   1.000  C
  C1377    1.0000 0.89500  0.82042  0.32042  Biso   1.000  C
  C1378    1.0000 0.08680  0.81980  0.81980  Biso   1.000  C
  C1379    1.0000 0.03130  0.82320  0.82320  Biso   1.000  C
  C1380    1.0000 0.00110  0.82780  0.82780  Biso   1.000  C
  C1381    1.0000 0.37260  0.81040  0.81040  Biso   1.000  C
  C1382    1.0000 0.39500  0.82042  0.82042  Biso   1.000  C
  C1383    1.0000 0.08680  0.31980  0.31980  Biso   1.000  C
  C1384    1.0000 0.03130  0.32320  0.32320  Biso   1.000  C
  C1385    1.0000 0.00110  0.32780  0.32780  Biso   1.000  C
  C1386    1.0000 0.37260  0.31040  0.31040  Biso   1.000  C
  C1387    1.0000 0.39500  0.32042  0.32042  Biso   1.000  C
  C1388    1.0000 0.08680  0.93020  0.93020  Biso   1.000  C
  C1389    1.0000 0.03130  0.92680  0.92680  Biso   1.000  C
  C1390    1.0000 0.00110  0.92220  0.92220  Biso   1.000  C
  C1391    1.0000 0.37260  0.93960  0.93960  Biso   1.000  C
  C1392    1.0000 0.39500  0.92958  0.92958  Biso   1.000  C
  C1393    1.0000 0.08680  0.43020  0.43020  Biso   1.000  C
  C1394    1.0000 0.03130  0.42680  0.42680  Biso   1.000  C
  C1395    1.0000 0.00110  0.42220  0.42220  Biso   1.000  C
  C1396    1.0000 0.37260  0.43960  0.43960  Biso   1.000  C
  C1397    1.0000 0.39500  0.42958  0.42958  Biso   1.000  C
  C1398    1.0000 0.58680  0.93020  0.43020  Biso   1.000  C
  C1399    1.0000 0.53130  0.92680  0.42680  Biso   1.000  C
  C1400    1.0000 0.50110  0.92220  0.42220  Biso   1.000  C
  C1401    1.0000 0.87260  0.93960  0.43960  Biso   1.000  C
  C1402    1.0000 0.89500  0.92958  0.42958  Biso   1.000  C
  C1403    1.0000 0.58680  0.43020  0.93020  Biso   1.000  C
  C1404    1.0000 0.53130  0.42680  0.92680  Biso   1.000  C
  C1405    1.0000 0.50110  0.42220  0.92220  Biso   1.000  C
  C1406    1.0000 0.87260  0.43960  0.93960  Biso   1.000  C
  C1407    1.0000 0.89500  0.42958  0.92958  Biso   1.000  C
  C1408    1.0000 0.16320  0.43020  0.81980  Biso   1.000  C
  C1409    1.0000 0.21870  0.42680  0.82320  Biso   1.000  C
  C1410    1.0000 0.24890  0.42220  0.82780  Biso   1.000  C
  C1411    1.0000 0.87740  0.43960  0.81040  Biso   1.000  C
  C1412    1.0000 0.85500  0.42958  0.82042  Biso   1.000  C
  C1413    1.0000 0.16320  0.93020  0.31980  Biso   1.000  C
  C1414    1.0000 0.21870  0.92680  0.32320  Biso   1.000  C
  C1415    1.0000 0.24890  0.92220  0.32780  Biso   1.000  C
  C1416    1.0000 0.87740  0.93960  0.31040  Biso   1.000  C
  C1417    1.0000 0.85500  0.92958  0.32042  Biso   1.000  C
  C1418    1.0000 0.81980  0.31980  0.58680  Biso   1.000  C
  C1419    1.0000 0.82320  0.32320  0.53130  Biso   1.000  C
  C1420    1.0000 0.82780  0.32780  0.50110  Biso   1.000  C
  C1421    1.0000 0.81040  0.31040  0.87260  Biso   1.000  C
  C1422    1.0000 0.82042  0.32042  0.89500  Biso   1.000  C
  C1423    1.0000 0.81980  0.81980  0.08680  Biso   1.000  C
  C1424    1.0000 0.82320  0.82320  0.03130  Biso   1.000  C
  C1425    1.0000 0.82780  0.82780  0.00110  Biso   1.000  C
  C1426    1.0000 0.81040  0.81040  0.37260  Biso   1.000  C
  C1427    1.0000 0.82042  0.82042  0.39500  Biso   1.000  C
  C1428    1.0000 0.31980  0.31980  0.08680  Biso   1.000  C
  C1429    1.0000 0.32320  0.32320  0.03130  Biso   1.000  C
  C1430    1.0000 0.32780  0.32780  0.00110  Biso   1.000  C
  C1431    1.0000 0.31040  0.31040  0.37260  Biso   1.000  C
  C1432    1.0000 0.32042  0.32042  0.39500  Biso   1.000  C
  C1433    1.0000 0.31980  0.43020  0.66320  Biso   1.000  C
  C1434    1.0000 0.32320  0.42680  0.71870  Biso   1.000  C
  C1435    1.0000 0.32780  0.42220  0.74890  Biso   1.000  C
  C1436    1.0000 0.31040  0.43960  0.37740  Biso   1.000  C
  C1437    1.0000 0.32042  0.42958  0.35500  Biso   1.000  C
  C1438    1.0000 0.31980  0.93020  0.16320  Biso   1.000  C
  C1439    1.0000 0.32320  0.92680  0.21870  Biso   1.000  C
  C1440    1.0000 0.32780  0.92220  0.24890  Biso   1.000  C
  C1441    1.0000 0.31040  0.93960  0.87740  Biso   1.000  C
  C1442    1.0000 0.32042  0.92958  0.85500  Biso   1.000  C
  C1443    1.0000 0.43020  0.81980  0.16320  Biso   1.000  C
  C1444    1.0000 0.42680  0.82320  0.21870  Biso   1.000  C
  C1445    1.0000 0.42220  0.82780  0.24890  Biso   1.000  C
  C1446    1.0000 0.43960  0.81040  0.87740  Biso   1.000  C
  C1447    1.0000 0.42958  0.82042  0.85500  Biso   1.000  C
  C1448    1.0000 0.93020  0.81980  0.66320  Biso   1.000  C
  C1449    1.0000 0.92680  0.82320  0.71870  Biso   1.000  C
  C1450    1.0000 0.92220  0.82780  0.74890  Biso   1.000  C
  C1451    1.0000 0.93960  0.81040  0.37740  Biso   1.000  C
  C1452    1.0000 0.92958  0.82042  0.35500  Biso   1.000  C
  C1453    1.0000 0.93020  0.93020  0.08680  Biso   1.000  C
  C1454    1.0000 0.92680  0.92680  0.03130  Biso   1.000  C
  C1455    1.0000 0.92220  0.92220  0.00110  Biso   1.000  C
  C1456    1.0000 0.93960  0.93960  0.37260  Biso   1.000  C
  C1457    1.0000 0.92958  0.92958  0.39500  Biso   1.000  C
  C1458    1.0000 0.93020  0.43020  0.58680  Biso   1.000  C
  C1459    1.0000 0.92680  0.42680  0.53130  Biso   1.000  C
  C1460    1.0000 0.92220  0.42220  0.50110  Biso   1.000  C
  C1461    1.0000 0.93960  0.43960  0.87260  Biso   1.000  C
  C1462    1.0000 0.92958  0.42958  0.89500  Biso   1.000  C
  C1463    1.0000 0.43020  0.93020  0.58680  Biso   1.000  C
  C1464    1.0000 0.42680  0.92680  0.53130  Biso   1.000  C
  C1465    1.0000 0.42220  0.92220  0.50110  Biso   1.000  C
  C1466    1.0000 0.43960  0.93960  0.87260  Biso   1.000  C
  C1467    1.0000 0.42958  0.92958  0.89500  Biso   1.000  C
  C1468    1.0000 0.43020  0.43020  0.08680  Biso   1.000  C
  C1469    1.0000 0.42680  0.42680  0.03130  Biso   1.000  C
  C1470    1.0000 0.42220  0.42220  0.00110  Biso   1.000  C
  C1471    1.0000 0.43960  0.43960  0.37260  Biso   1.000  C
  C1472    1.0000 0.42958  0.42958  0.39500  Biso   1.000  C
  C1473    1.0000 0.16320  0.81980  0.43020  Biso   1.000  C
  C1474    1.0000 0.21870  0.82320  0.42680  Biso   1.000  C
  C1475    1.0000 0.24890  0.82780  0.42220  Biso   1.000  C
  C1476    1.0000 0.87740  0.81040  0.43960  Biso   1.000  C
  C1477    1.0000 0.85500  0.82042  0.42958  Biso   1.000  C
  C1478    1.0000 0.16320  0.31980  0.93020  Biso   1.000  C
  C1479    1.0000 0.21870  0.32320  0.92680  Biso   1.000  C
  C1480    1.0000 0.24890  0.32780  0.92220  Biso   1.000  C
  C1481    1.0000 0.87740  0.31040  0.93960  Biso   1.000  C
  C1482    1.0000 0.85500  0.32042  0.92958  Biso   1.000  C
  C1483    1.0000 0.66320  0.43020  0.31980  Biso   1.000  C
  C1484    1.0000 0.71870  0.42680  0.32320  Biso   1.000  C
  C1485    1.0000 0.74890  0.42220  0.32780  Biso   1.000  C
  C1486    1.0000 0.37740  0.43960  0.31040  Biso   1.000  C
  C1487    1.0000 0.35500  0.42958  0.32042  Biso   1.000  C
  C1488    1.0000 0.66320  0.93020  0.81980  Biso   1.000  C
  C1489    1.0000 0.71870  0.92680  0.82320  Biso   1.000  C
  C1490    1.0000 0.74890  0.92220  0.82780  Biso   1.000  C
  C1491    1.0000 0.37740  0.93960  0.81040  Biso   1.000  C
  C1492    1.0000 0.35500  0.92958  0.82042  Biso   1.000  C
  C1493    1.0000 0.58680  0.31980  0.81980  Biso   1.000  C
  C1494    1.0000 0.53130  0.32320  0.82320  Biso   1.000  C
  C1495    1.0000 0.50110  0.32780  0.82780  Biso   1.000  C
  C1496    1.0000 0.87260  0.31040  0.81040  Biso   1.000  C
  C1497    1.0000 0.89500  0.32042  0.82042  Biso   1.000  C
  C1498    1.0000 0.43020  0.16320  0.81980  Biso   1.000  C
  C1499    1.0000 0.42680  0.21870  0.82320  Biso   1.000  C
  C1500    1.0000 0.42220  0.24890  0.82780  Biso   1.000  C
  C1501    1.0000 0.43960  0.87740  0.81040  Biso   1.000  C
  C1502    1.0000 0.42958  0.85500  0.82042  Biso   1.000  C
  C1503    1.0000 0.93020  0.16320  0.31980  Biso   1.000  C
  C1504    1.0000 0.92680  0.21870  0.32320  Biso   1.000  C
  C1505    1.0000 0.92220  0.24890  0.32780  Biso   1.000  C
  C1506    1.0000 0.93960  0.87740  0.31040  Biso   1.000  C
  C1507    1.0000 0.92958  0.85500  0.32042  Biso   1.000  C
  C1508    1.0000 0.31980  0.66320  0.43020  Biso   1.000  C
  C1509    1.0000 0.32320  0.71870  0.42680  Biso   1.000  C
  C1510    1.0000 0.32780  0.74890  0.42220  Biso   1.000  C
  C1511    1.0000 0.31040  0.37740  0.43960  Biso   1.000  C
  C1512    1.0000 0.32042  0.35500  0.42958  Biso   1.000  C
  C1513    1.0000 0.31980  0.16320  0.93020  Biso   1.000  C
  C1514    1.0000 0.32320  0.21870  0.92680  Biso   1.000  C
  C1515    1.0000 0.32780  0.24890  0.92220  Biso   1.000  C
  C1516    1.0000 0.31040  0.87740  0.93960  Biso   1.000  C
  C1517    1.0000 0.32042  0.85500  0.92958  Biso   1.000  C
  C1518    1.0000 0.81980  0.58680  0.31980  Biso   1.000  C
  C1519    1.0000 0.82320  0.53130  0.32320  Biso   1.000  C
  C1520    1.0000 0.82780  0.50110  0.32780  Biso   1.000  C
  C1521    1.0000 0.81040  0.87260  0.31040  Biso   1.000  C
  C1522    1.0000 0.82042  0.89500  0.32042  Biso   1.000  C
  C1523    1.0000 0.81980  0.08680  0.81980  Biso   1.000  C
  C1524    1.0000 0.82320  0.03130  0.82320  Biso   1.000  C
  C1525    1.0000 0.82780  0.00110  0.82780  Biso   1.000  C
  C1526    1.0000 0.81040  0.37260  0.81040  Biso   1.000  C
  C1527    1.0000 0.82042  0.39500  0.82042  Biso   1.000  C
  C1528    1.0000 0.81980  0.43020  0.16320  Biso   1.000  C
  C1529    1.0000 0.82320  0.42680  0.21870  Biso   1.000  C
  C1530    1.0000 0.82780  0.42220  0.24890  Biso   1.000  C
  C1531    1.0000 0.81040  0.43960  0.87740  Biso   1.000  C
  C1532    1.0000 0.82042  0.42958  0.85500  Biso   1.000  C
  C1533    1.0000 0.81980  0.93020  0.66320  Biso   1.000  C
  C1534    1.0000 0.82320  0.92680  0.71870  Biso   1.000  C
  C1535    1.0000 0.82780  0.92220  0.74890  Biso   1.000  C
  C1536    1.0000 0.81040  0.93960  0.37740  Biso   1.000  C
  C1537    1.0000 0.82042  0.92958  0.35500  Biso   1.000  C
  C1538    1.0000 0.43020  0.31980  0.66320  Biso   1.000  C
  C1539    1.0000 0.42680  0.32320  0.71870  Biso   1.000  C
  C1540    1.0000 0.42220  0.32780  0.74890  Biso   1.000  C
  C1541    1.0000 0.43960  0.31040  0.37740  Biso   1.000  C
  C1542    1.0000 0.42958  0.32042  0.35500  Biso   1.000  C
  C1543    1.0000 0.93020  0.31980  0.16320  Biso   1.000  C
  C1544    1.0000 0.92680  0.32320  0.21870  Biso   1.000  C
  C1545    1.0000 0.92220  0.32780  0.24890  Biso   1.000  C
  C1546    1.0000 0.93960  0.31040  0.87740  Biso   1.000  C
  C1547    1.0000 0.92958  0.32042  0.85500  Biso   1.000  C
  C1548    1.0000 0.31980  0.81980  0.58680  Biso   1.000  C
  C1549    1.0000 0.32320  0.82320  0.53130  Biso   1.000  C
  C1550    1.0000 0.32780  0.82780  0.50110  Biso   1.000  C
  C1551    1.0000 0.31040  0.81040  0.87260  Biso   1.000  C
  C1552    1.0000 0.32042  0.82042  0.89500  Biso   1.000  C
  C1553    1.0000 0.18020  0.83680  0.56980  Biso   1.000  C
  C1554    1.0000 0.17680  0.78130  0.57320  Biso   1.000  C
  C1555    1.0000 0.17220  0.75110  0.57780  Biso   1.000  C
  C1556    1.0000 0.18960  0.12260  0.56040  Biso   1.000  C
  C1557    1.0000 0.17958  0.14500  0.57042  Biso   1.000  C
  C1558    1.0000 0.18020  0.33680  0.06980  Biso   1.000  C
  C1559    1.0000 0.17680  0.28130  0.07320  Biso   1.000  C
  C1560    1.0000 0.17220  0.25110  0.07780  Biso   1.000  C
  C1561    1.0000 0.18960  0.62260  0.06040  Biso   1.000  C
  C1562    1.0000 0.17958  0.64500  0.07042  Biso   1.000  C
  C1563    1.0000 0.68020  0.41320  0.18020  Biso   1.000  C
  C1564    1.0000 0.67680  0.46870  0.17680  Biso   1.000  C
  C1565    1.0000 0.67220  0.49890  0.17220  Biso   1.000  C
  C1566    1.0000 0.68960  0.12740  0.18960  Biso   1.000  C
  C1567    1.0000 0.67958  0.10500  0.17958  Biso   1.000  C
  C1568    1.0000 0.68020  0.91320  0.68020  Biso   1.000  C
  C1569    1.0000 0.67680  0.96870  0.67680  Biso   1.000  C
  C1570    1.0000 0.67220  0.99890  0.67220  Biso   1.000  C
  C1571    1.0000 0.68960  0.62740  0.68960  Biso   1.000  C
  C1572    1.0000 0.67958  0.60500  0.67958  Biso   1.000  C
  C1573    1.0000 0.56980  0.33680  0.68020  Biso   1.000  C
  C1574    1.0000 0.57320  0.28130  0.67680  Biso   1.000  C
  C1575    1.0000 0.57780  0.25110  0.67220  Biso   1.000  C
  C1576    1.0000 0.56040  0.62260  0.68960  Biso   1.000  C
  C1577    1.0000 0.57042  0.64500  0.67958  Biso   1.000  C
  C1578    1.0000 0.06980  0.33680  0.18020  Biso   1.000  C
  C1579    1.0000 0.07320  0.28130  0.17680  Biso   1.000  C
  C1580    1.0000 0.07780  0.25110  0.17220  Biso   1.000  C
  C1581    1.0000 0.06040  0.62260  0.18960  Biso   1.000  C
  C1582    1.0000 0.07042  0.64500  0.17958  Biso   1.000  C
  C1583    1.0000 0.33680  0.68020  0.56980  Biso   1.000  C
  C1584    1.0000 0.28130  0.67680  0.57320  Biso   1.000  C
  C1585    1.0000 0.25110  0.67220  0.57780  Biso   1.000  C
  C1586    1.0000 0.62260  0.68960  0.56040  Biso   1.000  C
  C1587    1.0000 0.64500  0.67958  0.57042  Biso   1.000  C
  C1588    1.0000 0.33680  0.18020  0.06980  Biso   1.000  C
  C1589    1.0000 0.28130  0.17680  0.07320  Biso   1.000  C
  C1590    1.0000 0.25110  0.17220  0.07780  Biso   1.000  C
  C1591    1.0000 0.62260  0.18960  0.06040  Biso   1.000  C
  C1592    1.0000 0.64500  0.17958  0.07042  Biso   1.000  C
  C1593    1.0000 0.41320  0.18020  0.68020  Biso   1.000  C
  C1594    1.0000 0.46870  0.17680  0.67680  Biso   1.000  C
  C1595    1.0000 0.49890  0.17220  0.67220  Biso   1.000  C
  C1596    1.0000 0.12740  0.18960  0.68960  Biso   1.000  C
  C1597    1.0000 0.10500  0.17958  0.67958  Biso   1.000  C
  C1598    1.0000 0.83680  0.56980  0.18020  Biso   1.000  C
  C1599    1.0000 0.78130  0.57320  0.17680  Biso   1.000  C
  C1600    1.0000 0.75110  0.57780  0.17220  Biso   1.000  C
  C1601    1.0000 0.12260  0.56040  0.18960  Biso   1.000  C
  C1602    1.0000 0.14500  0.57042  0.17958  Biso   1.000  C
  C1603    1.0000 0.83680  0.06980  0.68020  Biso   1.000  C
  C1604    1.0000 0.78130  0.07320  0.67680  Biso   1.000  C
  C1605    1.0000 0.75110  0.07780  0.67220  Biso   1.000  C
  C1606    1.0000 0.12260  0.06040  0.68960  Biso   1.000  C
  C1607    1.0000 0.14500  0.07042  0.67958  Biso   1.000  C
  C1608    1.0000 0.18020  0.68020  0.41320  Biso   1.000  C
  C1609    1.0000 0.17680  0.67680  0.46870  Biso   1.000  C
  C1610    1.0000 0.17220  0.67220  0.49890  Biso   1.000  C
  C1611    1.0000 0.18960  0.68960  0.12740  Biso   1.000  C
  C1612    1.0000 0.17958  0.67958  0.10500  Biso   1.000  C
  C1613    1.0000 0.68020  0.56980  0.33680  Biso   1.000  C
  C1614    1.0000 0.67680  0.57320  0.28130  Biso   1.000  C
  C1615    1.0000 0.67220  0.57780  0.25110  Biso   1.000  C
  C1616    1.0000 0.68960  0.56040  0.62260  Biso   1.000  C
  C1617    1.0000 0.67958  0.57042  0.64500  Biso   1.000  C
  C1618    1.0000 0.68020  0.06980  0.83680  Biso   1.000  C
  C1619    1.0000 0.67680  0.07320  0.78130  Biso   1.000  C
  C1620    1.0000 0.67220  0.07780  0.75110  Biso   1.000  C
  C1621    1.0000 0.68960  0.06040  0.12260  Biso   1.000  C
  C1622    1.0000 0.67958  0.07042  0.14500  Biso   1.000  C
  C1623    1.0000 0.56980  0.18020  0.83680  Biso   1.000  C
  C1624    1.0000 0.57320  0.17680  0.78130  Biso   1.000  C
  C1625    1.0000 0.57780  0.17220  0.75110  Biso   1.000  C
  C1626    1.0000 0.56040  0.18960  0.12260  Biso   1.000  C
  C1627    1.0000 0.57042  0.17958  0.14500  Biso   1.000  C
  C1628    1.0000 0.06980  0.18020  0.33680  Biso   1.000  C
  C1629    1.0000 0.07320  0.17680  0.28130  Biso   1.000  C
  C1630    1.0000 0.07780  0.17220  0.25110  Biso   1.000  C
  C1631    1.0000 0.06040  0.18960  0.62260  Biso   1.000  C
  C1632    1.0000 0.07042  0.17958  0.64500  Biso   1.000  C
  C1633    1.0000 0.79270  0.11760  0.95730  Biso   1.000  C
  C1634    1.0000 0.75720  0.09340  0.99280  Biso   1.000  C
  C1635    1.0000 0.73810  0.08240  0.01190  Biso   1.000  C
  C1636    1.0000 0.29270  0.11760  0.45730  Biso   1.000  C
  C1637    1.0000 0.25720  0.09340  0.49280  Biso   1.000  C
  C1638    1.0000 0.23810  0.08240  0.51190  Biso   1.000  C
  C1639    1.0000 0.95730  0.13240  0.45730  Biso   1.000  C
  C1640    1.0000 0.99280  0.15660  0.49280  Biso   1.000  C
  C1641    1.0000 0.01190  0.16760  0.51190  Biso   1.000  C
  C1642    1.0000 0.95730  0.63240  0.95730  Biso   1.000  C
  C1643    1.0000 0.99280  0.65660  0.99280  Biso   1.000  C
  C1644    1.0000 0.01190  0.66760  0.01190  Biso   1.000  C
  C1645    1.0000 0.45730  0.61760  0.79270  Biso   1.000  C
  C1646    1.0000 0.49280  0.59340  0.75720  Biso   1.000  C
  C1647    1.0000 0.51190  0.58240  0.73810  Biso   1.000  C
  C1648    1.0000 0.45730  0.11760  0.29270  Biso   1.000  C
  C1649    1.0000 0.49280  0.09340  0.25720  Biso   1.000  C
  C1650    1.0000 0.51190  0.08240  0.23810  Biso   1.000  C
  C1651    1.0000 0.29270  0.63240  0.29270  Biso   1.000  C
  C1652    1.0000 0.25720  0.65660  0.25720  Biso   1.000  C
  C1653    1.0000 0.23810  0.66760  0.23810  Biso   1.000  C
  C1654    1.0000 0.29270  0.13240  0.79270  Biso   1.000  C
  C1655    1.0000 0.25720  0.15660  0.75720  Biso   1.000  C
  C1656    1.0000 0.23810  0.16760  0.73810  Biso   1.000  C
  C1657    1.0000 0.79270  0.63240  0.79270  Biso   1.000  C
  C1658    1.0000 0.75720  0.65660  0.75720  Biso   1.000  C
  C1659    1.0000 0.73810  0.66760  0.73810  Biso   1.000  C
  C1660    1.0000 0.79270  0.13240  0.29270  Biso   1.000  C
  C1661    1.0000 0.75720  0.15660  0.25720  Biso   1.000  C
  C1662    1.0000 0.73810  0.16760  0.23810  Biso   1.000  C
  C1663    1.0000 0.95730  0.79270  0.11760  Biso   1.000  C
  C1664    1.0000 0.99280  0.75720  0.09340  Biso   1.000  C
  C1665    1.0000 0.01190  0.73810  0.08240  Biso   1.000  C
  C1666    1.0000 0.95730  0.29270  0.61760  Biso   1.000  C
  C1667    1.0000 0.99280  0.25720  0.59340  Biso   1.000  C
  C1668    1.0000 0.01190  0.23810  0.58240  Biso   1.000  C
  C1669    1.0000 0.45730  0.95730  0.13240  Biso   1.000  C
  C1670    1.0000 0.49280  0.99280  0.15660  Biso   1.000  C
  C1671    1.0000 0.51190  0.01190  0.16760  Biso   1.000  C
  C1672    1.0000 0.45730  0.45730  0.63240  Biso   1.000  C
  C1673    1.0000 0.49280  0.49280  0.65660  Biso   1.000  C
  C1674    1.0000 0.51190  0.51190  0.66760  Biso   1.000  C
  C1675    1.0000 0.95730  0.95730  0.63240  Biso   1.000  C
  C1676    1.0000 0.99280  0.99280  0.65660  Biso   1.000  C
  C1677    1.0000 0.01190  0.01190  0.66760  Biso   1.000  C
  C1678    1.0000 0.79270  0.45730  0.61760  Biso   1.000  C
  C1679    1.0000 0.75720  0.49280  0.59340  Biso   1.000  C
  C1680    1.0000 0.73810  0.51190  0.58240  Biso   1.000  C
  C1681    1.0000 0.29270  0.45730  0.11760  Biso   1.000  C
  C1682    1.0000 0.25720  0.49280  0.09340  Biso   1.000  C
  C1683    1.0000 0.23810  0.51190  0.08240  Biso   1.000  C
  C1684    1.0000 0.29270  0.29270  0.63240  Biso   1.000  C
  C1685    1.0000 0.25720  0.25720  0.65660  Biso   1.000  C
  C1686    1.0000 0.23810  0.23810  0.66760  Biso   1.000  C
  C1687    1.0000 0.29270  0.79270  0.13240  Biso   1.000  C
  C1688    1.0000 0.25720  0.75720  0.15660  Biso   1.000  C
  C1689    1.0000 0.23810  0.73810  0.16760  Biso   1.000  C
  C1690    1.0000 0.79270  0.29270  0.13240  Biso   1.000  C
  C1691    1.0000 0.75720  0.25720  0.15660  Biso   1.000  C
  C1692    1.0000 0.73810  0.23810  0.16760  Biso   1.000  C
  C1693    1.0000 0.79270  0.79270  0.63240  Biso   1.000  C
  C1694    1.0000 0.75720  0.75720  0.65660  Biso   1.000  C
  C1695    1.0000 0.73810  0.73810  0.66760  Biso   1.000  C
  C1696    1.0000 0.11760  0.95730  0.79270  Biso   1.000  C
  C1697    1.0000 0.09340  0.99280  0.75720  Biso   1.000  C
  C1698    1.0000 0.08240  0.01190  0.73810  Biso   1.000  C
  C1699    1.0000 0.11760  0.45730  0.29270  Biso   1.000  C
  C1700    1.0000 0.09340  0.49280  0.25720  Biso   1.000  C
  C1701    1.0000 0.08240  0.51190  0.23810  Biso   1.000  C
  C1702    1.0000 0.13240  0.45730  0.95730  Biso   1.000  C
  C1703    1.0000 0.15660  0.49280  0.99280  Biso   1.000  C
  C1704    1.0000 0.16760  0.51190  0.01190  Biso   1.000  C
  C1705    1.0000 0.63240  0.45730  0.45730  Biso   1.000  C
  C1706    1.0000 0.65660  0.49280  0.49280  Biso   1.000  C
  C1707    1.0000 0.66760  0.51190  0.51190  Biso   1.000  C
  C1708    1.0000 0.63240  0.95730  0.95730  Biso   1.000  C
  C1709    1.0000 0.65660  0.99280  0.99280  Biso   1.000  C
  C1710    1.0000 0.66760  0.01190  0.01190  Biso   1.000  C
  C1711    1.0000 0.61760  0.79270  0.45730  Biso   1.000  C
  C1712    1.0000 0.59340  0.75720  0.49280  Biso   1.000  C
  C1713    1.0000 0.58240  0.73810  0.51190  Biso   1.000  C
  C1714    1.0000 0.61760  0.29270  0.95730  Biso   1.000  C
  C1715    1.0000 0.59340  0.25720  0.99280  Biso   1.000  C
  C1716    1.0000 0.58240  0.23810  0.01190  Biso   1.000  C
  C1717    1.0000 0.63240  0.29270  0.29270  Biso   1.000  C
  C1718    1.0000 0.65660  0.25720  0.25720  Biso   1.000  C
  C1719    1.0000 0.66760  0.23810  0.23810  Biso   1.000  C
  C1720    1.0000 0.63240  0.79270  0.79270  Biso   1.000  C
  C1721    1.0000 0.65660  0.75720  0.75720  Biso   1.000  C
  C1722    1.0000 0.66760  0.73810  0.73810  Biso   1.000  C
  C1723    1.0000 0.13240  0.29270  0.79270  Biso   1.000  C
  C1724    1.0000 0.15660  0.25720  0.75720  Biso   1.000  C
  C1725    1.0000 0.16760  0.23810  0.73810  Biso   1.000  C
  C1726    1.0000 0.13240  0.79270  0.29270  Biso   1.000  C
  C1727    1.0000 0.15660  0.75720  0.25720  Biso   1.000  C
  C1728    1.0000 0.16760  0.73810  0.23810  Biso   1.000  C
  C1729    1.0000 0.86760  0.04270  0.54270  Biso   1.000  C
  C1730    1.0000 0.84340  0.00720  0.50720  Biso   1.000  C
  C1731    1.0000 0.83240  0.98810  0.48810  Biso   1.000  C
  C1732    1.0000 0.36760  0.04270  0.04270  Biso   1.000  C
  C1733    1.0000 0.34340  0.00720  0.00720  Biso   1.000  C
  C1734    1.0000 0.33240  0.98810  0.98810  Biso   1.000  C
  C1735    1.0000 0.36760  0.54270  0.54270  Biso   1.000  C
  C1736    1.0000 0.34340  0.50720  0.50720  Biso   1.000  C
  C1737    1.0000 0.33240  0.48810  0.48810  Biso   1.000  C
  C1738    1.0000 0.88240  0.20730  0.04270  Biso   1.000  C
  C1739    1.0000 0.90660  0.24280  0.00720  Biso   1.000  C
  C1740    1.0000 0.91760  0.26190  0.98810  Biso   1.000  C
  C1741    1.0000 0.88240  0.70730  0.54270  Biso   1.000  C
  C1742    1.0000 0.90660  0.74280  0.50720  Biso   1.000  C
  C1743    1.0000 0.91760  0.76190  0.48810  Biso   1.000  C
  C1744    1.0000 0.38240  0.20730  0.54270  Biso   1.000  C
  C1745    1.0000 0.40660  0.24280  0.50720  Biso   1.000  C
  C1746    1.0000 0.41760  0.26190  0.48810  Biso   1.000  C
  C1747    1.0000 0.36760  0.70730  0.70730  Biso   1.000  C
  C1748    1.0000 0.34340  0.74280  0.74280  Biso   1.000  C
  C1749    1.0000 0.33240  0.76190  0.76190  Biso   1.000  C
  C1750    1.0000 0.36760  0.20730  0.20730  Biso   1.000  C
  C1751    1.0000 0.34340  0.24280  0.24280  Biso   1.000  C
  C1752    1.0000 0.33240  0.26190  0.26190  Biso   1.000  C
  C1753    1.0000 0.86760  0.70730  0.20730  Biso   1.000  C
  C1754    1.0000 0.84340  0.74280  0.24280  Biso   1.000  C
  C1755    1.0000 0.83240  0.76190  0.26190  Biso   1.000  C
  C1756    1.0000 0.86760  0.20730  0.70730  Biso   1.000  C
  C1757    1.0000 0.84340  0.24280  0.74280  Biso   1.000  C
  C1758    1.0000 0.83240  0.26190  0.76190  Biso   1.000  C
  C1759    1.0000 0.38240  0.54270  0.20730  Biso   1.000  C
  C1760    1.0000 0.40660  0.50720  0.24280  Biso   1.000  C
  C1761    1.0000 0.41760  0.48810  0.26190  Biso   1.000  C
  C1762    1.0000 0.38240  0.04270  0.70730  Biso   1.000  C
  C1763    1.0000 0.40660  0.00720  0.74280  Biso   1.000  C
  C1764    1.0000 0.41760  0.98810  0.76190  Biso   1.000  C
  C1765    1.0000 0.54270  0.20730  0.38240  Biso   1.000  C
  C1766    1.0000 0.50720  0.24280  0.40660  Biso   1.000  C
  C1767    1.0000 0.48810  0.26190  0.41760  Biso   1.000  C
  C1768    1.0000 0.54270  0.70730  0.88240  Biso   1.000  C
  C1769    1.0000 0.50720  0.74280  0.90660  Biso   1.000  C
  C1770    1.0000 0.48810  0.76190  0.91760  Biso   1.000  C
  C1771    1.0000 0.70730  0.70730  0.36760  Biso   1.000  C
  C1772    1.0000 0.74280  0.74280  0.34340  Biso   1.000  C
  C1773    1.0000 0.76190  0.76190  0.33240  Biso   1.000  C
  C1774    1.0000 0.70730  0.20730  0.86760  Biso   1.000  C
  C1775    1.0000 0.74280  0.24280  0.84340  Biso   1.000  C
  C1776    1.0000 0.76190  0.26190  0.83240  Biso   1.000  C
  C1777    1.0000 0.20730  0.70730  0.86760  Biso   1.000  C
  C1778    1.0000 0.24280  0.74280  0.84340  Biso   1.000  C
  C1779    1.0000 0.26190  0.76190  0.83240  Biso   1.000  C
  C1780    1.0000 0.20730  0.20730  0.36760  Biso   1.000  C
  C1781    1.0000 0.24280  0.24280  0.34340  Biso   1.000  C
  C1782    1.0000 0.26190  0.26190  0.33240  Biso   1.000  C
  C1783    1.0000 0.20730  0.04270  0.88240  Biso   1.000  C
  C1784    1.0000 0.24280  0.00720  0.90660  Biso   1.000  C
  C1785    1.0000 0.26190  0.98810  0.91760  Biso   1.000  C
  C1786    1.0000 0.20730  0.54270  0.38240  Biso   1.000  C
  C1787    1.0000 0.24280  0.50720  0.40660  Biso   1.000  C
  C1788    1.0000 0.26190  0.48810  0.41760  Biso   1.000  C
  C1789    1.0000 0.70730  0.04270  0.38240  Biso   1.000  C
  C1790    1.0000 0.74280  0.00720  0.40660  Biso   1.000  C
  C1791    1.0000 0.76190  0.98810  0.41760  Biso   1.000  C
  C1792    1.0000 0.04270  0.54270  0.86760  Biso   1.000  C
  C1793    1.0000 0.00720  0.50720  0.84340  Biso   1.000  C
  C1794    1.0000 0.98810  0.48810  0.83240  Biso   1.000  C
  C1795    1.0000 0.04270  0.04270  0.36760  Biso   1.000  C
  C1796    1.0000 0.00720  0.00720  0.34340  Biso   1.000  C
  C1797    1.0000 0.98810  0.98810  0.33240  Biso   1.000  C
  C1798    1.0000 0.54270  0.54270  0.36760  Biso   1.000  C
  C1799    1.0000 0.50720  0.50720  0.34340  Biso   1.000  C
  C1800    1.0000 0.48810  0.48810  0.33240  Biso   1.000  C
  C1801    1.0000 0.70730  0.36760  0.70730  Biso   1.000  C
  C1802    1.0000 0.74280  0.34340  0.74280  Biso   1.000  C
  C1803    1.0000 0.76190  0.33240  0.76190  Biso   1.000  C
  C1804    1.0000 0.70730  0.86760  0.20730  Biso   1.000  C
  C1805    1.0000 0.74280  0.84340  0.24280  Biso   1.000  C
  C1806    1.0000 0.76190  0.83240  0.26190  Biso   1.000  C
  C1807    1.0000 0.20730  0.36760  0.20730  Biso   1.000  C
  C1808    1.0000 0.24280  0.34340  0.24280  Biso   1.000  C
  C1809    1.0000 0.26190  0.33240  0.26190  Biso   1.000  C
  C1810    1.0000 0.20730  0.86760  0.70730  Biso   1.000  C
  C1811    1.0000 0.24280  0.84340  0.74280  Biso   1.000  C
  C1812    1.0000 0.26190  0.83240  0.76190  Biso   1.000  C
  C1813    1.0000 0.20730  0.38240  0.54270  Biso   1.000  C
  C1814    1.0000 0.24280  0.40660  0.50720  Biso   1.000  C
  C1815    1.0000 0.26190  0.41760  0.48810  Biso   1.000  C
  C1816    1.0000 0.70730  0.38240  0.04270  Biso   1.000  C
  C1817    1.0000 0.74280  0.40660  0.00720  Biso   1.000  C
  C1818    1.0000 0.76190  0.41760  0.98810  Biso   1.000  C
  C1819    1.0000 0.54270  0.86760  0.04270  Biso   1.000  C
  C1820    1.0000 0.50720  0.84340  0.00720  Biso   1.000  C
  C1821    1.0000 0.48810  0.83240  0.98810  Biso   1.000  C
  C1822    1.0000 0.54270  0.36760  0.54270  Biso   1.000  C
  C1823    1.0000 0.50720  0.34340  0.50720  Biso   1.000  C
  C1824    1.0000 0.48810  0.33240  0.48810  Biso   1.000  C
  C1825    1.0000 0.04270  0.88240  0.20730  Biso   1.000  C
  C1826    1.0000 0.00720  0.90660  0.24280  Biso   1.000  C
  C1827    1.0000 0.98810  0.91760  0.26190  Biso   1.000  C
  C1828    1.0000 0.04270  0.38240  0.70730  Biso   1.000  C
  C1829    1.0000 0.00720  0.40660  0.74280  Biso   1.000  C
  C1830    1.0000 0.98810  0.41760  0.76190  Biso   1.000  C
  C1831    1.0000 0.54270  0.38240  0.20730  Biso   1.000  C
  C1832    1.0000 0.50720  0.40660  0.24280  Biso   1.000  C
  C1833    1.0000 0.48810  0.41760  0.26190  Biso   1.000  C
  C1834    1.0000 0.20730  0.88240  0.04270  Biso   1.000  C
  C1835    1.0000 0.24280  0.90660  0.00720  Biso   1.000  C
  C1836    1.0000 0.26190  0.91760  0.98810  Biso   1.000  C
  C1837    1.0000 0.70730  0.88240  0.54270  Biso   1.000  C
  C1838    1.0000 0.74280  0.90660  0.50720  Biso   1.000  C
  C1839    1.0000 0.76190  0.91760  0.48810  Biso   1.000  C
  C1840    1.0000 0.04270  0.86760  0.54270  Biso   1.000  C
  C1841    1.0000 0.00720  0.84340  0.50720  Biso   1.000  C
  C1842    1.0000 0.98810  0.83240  0.48810  Biso   1.000  C
  C1843    1.0000 0.04270  0.36760  0.04270  Biso   1.000  C
  C1844    1.0000 0.00720  0.34340  0.00720  Biso   1.000  C
  C1845    1.0000 0.98810  0.33240  0.98810  Biso   1.000  C
  C1846    1.0000 0.54270  0.88240  0.70730  Biso   1.000  C
  C1847    1.0000 0.50720  0.90660  0.74280  Biso   1.000  C
  C1848    1.0000 0.48810  0.91760  0.76190  Biso   1.000  C
  C1849    1.0000 0.04270  0.20730  0.88240  Biso   1.000  C
  C1850    1.0000 0.00720  0.24280  0.90660  Biso   1.000  C
  C1851    1.0000 0.98810  0.26190  0.91760  Biso   1.000  C
  C1852    1.0000 0.04270  0.70730  0.38240  Biso   1.000  C
  C1853    1.0000 0.00720  0.74280  0.40660  Biso   1.000  C
  C1854    1.0000 0.98810  0.76190  0.41760  Biso   1.000  C
  C1855    1.0000 0.54270  0.04270  0.86760  Biso   1.000  C
  C1856    1.0000 0.50720  0.00720  0.84340  Biso   1.000  C
  C1857    1.0000 0.48810  0.98810  0.83240  Biso   1.000  C
  C1858    1.0000 0.70730  0.54270  0.88240  Biso   1.000  C
  C1859    1.0000 0.74280  0.50720  0.90660  Biso   1.000  C
  C1860    1.0000 0.76190  0.48810  0.91760  Biso   1.000  C
  C1861    1.0000 0.88240  0.04270  0.20730  Biso   1.000  C
  C1862    1.0000 0.90660  0.00720  0.24280  Biso   1.000  C
  C1863    1.0000 0.91760  0.98810  0.26190  Biso   1.000  C
  C1864    1.0000 0.88240  0.54270  0.70730  Biso   1.000  C
  C1865    1.0000 0.90660  0.50720  0.74280  Biso   1.000  C
  C1866    1.0000 0.91760  0.48810  0.76190  Biso   1.000  C
  C1867    1.0000 0.86760  0.54270  0.04270  Biso   1.000  C
  C1868    1.0000 0.84340  0.50720  0.00720  Biso   1.000  C
  C1869    1.0000 0.83240  0.48810  0.98810  Biso   1.000  C
  C1870    1.0000 0.38240  0.70730  0.04270  Biso   1.000  C
  C1871    1.0000 0.40660  0.74280  0.00720  Biso   1.000  C
  C1872    1.0000 0.41760  0.76190  0.98810  Biso   1.000  C
  C1873    1.0000 0.13240  0.95730  0.45730  Biso   1.000  C
  C1874    1.0000 0.15660  0.99280  0.49280  Biso   1.000  C
  C1875    1.0000 0.16760  0.01190  0.51190  Biso   1.000  C
  C1876    1.0000 0.11760  0.79270  0.95730  Biso   1.000  C
  C1877    1.0000 0.09340  0.75720  0.99280  Biso   1.000  C
  C1878    1.0000 0.08240  0.73810  0.01190  Biso   1.000  C
  C1879    1.0000 0.11760  0.29270  0.45730  Biso   1.000  C
  C1880    1.0000 0.09340  0.25720  0.49280  Biso   1.000  C
  C1881    1.0000 0.08240  0.23810  0.51190  Biso   1.000  C
  C1882    1.0000 0.61760  0.45730  0.79270  Biso   1.000  C
  C1883    1.0000 0.59340  0.49280  0.75720  Biso   1.000  C
  C1884    1.0000 0.58240  0.51190  0.73810  Biso   1.000  C
  C1885    1.0000 0.61760  0.95730  0.29270  Biso   1.000  C
  C1886    1.0000 0.59340  0.99280  0.25720  Biso   1.000  C
  C1887    1.0000 0.58240  0.01190  0.23810  Biso   1.000  C
  C1888    1.0000 0.45730  0.79270  0.61760  Biso   1.000  C
  C1889    1.0000 0.49280  0.75720  0.59340  Biso   1.000  C
  C1890    1.0000 0.51190  0.73810  0.58240  Biso   1.000  C
  C1891    1.0000 0.45730  0.29270  0.11760  Biso   1.000  C
  C1892    1.0000 0.49280  0.25720  0.09340  Biso   1.000  C
  C1893    1.0000 0.51190  0.23810  0.08240  Biso   1.000  C
  C1894    1.0000 0.79270  0.95730  0.11760  Biso   1.000  C
  C1895    1.0000 0.75720  0.99280  0.09340  Biso   1.000  C
  C1896    1.0000 0.73810  0.01190  0.08240  Biso   1.000  C
  C1897    1.0000 0.29270  0.95730  0.61760  Biso   1.000  C
  C1898    1.0000 0.25720  0.99280  0.59340  Biso   1.000  C
  C1899    1.0000 0.23810  0.01190  0.58240  Biso   1.000  C
  C1900    1.0000 0.95730  0.45730  0.13240  Biso   1.000  C
  C1901    1.0000 0.99280  0.49280  0.15660  Biso   1.000  C
  C1902    1.0000 0.01190  0.51190  0.16760  Biso   1.000  C
  C1903    1.0000 0.79270  0.61760  0.45730  Biso   1.000  C
  C1904    1.0000 0.75720  0.59340  0.49280  Biso   1.000  C
  C1905    1.0000 0.73810  0.58240  0.51190  Biso   1.000  C
  C1906    1.0000 0.29270  0.61760  0.95730  Biso   1.000  C
  C1907    1.0000 0.25720  0.59340  0.99280  Biso   1.000  C
  C1908    1.0000 0.23810  0.58240  0.01190  Biso   1.000  C
  C1909    1.0000 0.45730  0.13240  0.95730  Biso   1.000  C
  C1910    1.0000 0.49280  0.15660  0.99280  Biso   1.000  C
  C1911    1.0000 0.51190  0.16760  0.01190  Biso   1.000  C
  C1912    1.0000 0.45730  0.63240  0.45730  Biso   1.000  C
  C1913    1.0000 0.49280  0.65660  0.49280  Biso   1.000  C
  C1914    1.0000 0.51190  0.66760  0.51190  Biso   1.000  C
  C1915    1.0000 0.95730  0.11760  0.79270  Biso   1.000  C
  C1916    1.0000 0.99280  0.09340  0.75720  Biso   1.000  C
  C1917    1.0000 0.01190  0.08240  0.73810  Biso   1.000  C
  C1918    1.0000 0.95730  0.61760  0.29270  Biso   1.000  C
  C1919    1.0000 0.99280  0.59340  0.25720  Biso   1.000  C
  C1920    1.0000 0.01190  0.58240  0.23810  Biso   1.000  C
  C1921    1.0000 0.59329  0.09329  0.05990  Biso   1.000  C
  C1922    1.0000 0.59329  0.59329  0.55990  Biso   1.000  C
  C1923    1.0000 0.15671  0.15671  0.55990  Biso   1.000  C
  C1924    1.0000 0.15671  0.65671  0.05990  Biso   1.000  C
  C1925    1.0000 0.65671  0.15671  0.05990  Biso   1.000  C
  C1926    1.0000 0.65671  0.65671  0.55990  Biso   1.000  C
  C1927    1.0000 0.65671  0.59329  0.69010  Biso   1.000  C
  C1928    1.0000 0.15671  0.59329  0.19010  Biso   1.000  C
  C1929    1.0000 0.09329  0.65671  0.19010  Biso   1.000  C
  C1930    1.0000 0.09329  0.15671  0.69010  Biso   1.000  C
  C1931    1.0000 0.05990  0.59329  0.09329  Biso   1.000  C
  C1932    1.0000 0.55990  0.59329  0.59329  Biso   1.000  C
  C1933    1.0000 0.55990  0.15671  0.15671  Biso   1.000  C
  C1934    1.0000 0.55990  0.65671  0.65671  Biso   1.000  C
  C1935    1.0000 0.05990  0.15671  0.65671  Biso   1.000  C
  C1936    1.0000 0.05990  0.65671  0.15671  Biso   1.000  C
  C1937    1.0000 0.69010  0.65671  0.59329  Biso   1.000  C
  C1938    1.0000 0.69010  0.15671  0.09329  Biso   1.000  C
  C1939    1.0000 0.19010  0.09329  0.65671  Biso   1.000  C
  C1940    1.0000 0.19010  0.59329  0.15671  Biso   1.000  C
  C1941    1.0000 0.09329  0.05990  0.59329  Biso   1.000  C
  C1942    1.0000 0.09329  0.55990  0.09329  Biso   1.000  C
  C1943    1.0000 0.15671  0.55990  0.15671  Biso   1.000  C
  C1944    1.0000 0.15671  0.05990  0.65671  Biso   1.000  C
  C1945    1.0000 0.65671  0.55990  0.65671  Biso   1.000  C
  C1946    1.0000 0.65671  0.05990  0.15671  Biso   1.000  C
  C1947    1.0000 0.59329  0.69010  0.65671  Biso   1.000  C
  C1948    1.0000 0.59329  0.19010  0.15671  Biso   1.000  C
  C1949    1.0000 0.65671  0.19010  0.09329  Biso   1.000  C
  C1950    1.0000 0.15671  0.19010  0.59329  Biso   1.000  C
  C1951    1.0000 0.84329  0.84329  0.44010  Biso   1.000  C
  C1952    1.0000 0.84329  0.34329  0.94010  Biso   1.000  C
  C1953    1.0000 0.34329  0.84329  0.94010  Biso   1.000  C
  C1954    1.0000 0.34329  0.34329  0.44010  Biso   1.000  C
  C1955    1.0000 0.90671  0.40671  0.94010  Biso   1.000  C
  C1956    1.0000 0.90671  0.90671  0.44010  Biso   1.000  C
  C1957    1.0000 0.34329  0.90671  0.80990  Biso   1.000  C
  C1958    1.0000 0.84329  0.90671  0.30990  Biso   1.000  C
  C1959    1.0000 0.40671  0.34329  0.30990  Biso   1.000  C
  C1960    1.0000 0.40671  0.84329  0.80990  Biso   1.000  C
  C1961    1.0000 0.34329  0.30990  0.40671  Biso   1.000  C
  C1962    1.0000 0.84329  0.30990  0.90671  Biso   1.000  C
  C1963    1.0000 0.90671  0.80990  0.34329  Biso   1.000  C
  C1964    1.0000 0.90671  0.30990  0.84329  Biso   1.000  C
  C1965    1.0000 0.40671  0.94010  0.90671  Biso   1.000  C
  C1966    1.0000 0.40671  0.44010  0.40671  Biso   1.000  C
  C1967    1.0000 0.84329  0.44010  0.84329  Biso   1.000  C
  C1968    1.0000 0.84329  0.94010  0.34329  Biso   1.000  C
  C1969    1.0000 0.34329  0.44010  0.34329  Biso   1.000  C
  C1970    1.0000 0.34329  0.94010  0.84329  Biso   1.000  C
  C1971    1.0000 0.80990  0.34329  0.90671  Biso   1.000  C
  C1972    1.0000 0.80990  0.84329  0.40671  Biso   1.000  C
  C1973    1.0000 0.30990  0.40671  0.34329  Biso   1.000  C
  C1974    1.0000 0.30990  0.90671  0.84329  Biso   1.000  C
  C1975    1.0000 0.44010  0.84329  0.84329  Biso   1.000  C
  C1976    1.0000 0.44010  0.34329  0.34329  Biso   1.000  C
  C1977    1.0000 0.94010  0.84329  0.34329  Biso   1.000  C
  C1978    1.0000 0.94010  0.34329  0.84329  Biso   1.000  C
  C1979    1.0000 0.94010  0.90671  0.40671  Biso   1.000  C
  C1980    1.0000 0.44010  0.90671  0.90671  Biso   1.000  C
  C1981    1.0000 0.40671  0.90671  0.94010  Biso   1.000  C
  C1982    1.0000 0.40671  0.40671  0.44010  Biso   1.000  C
  C1983    1.0000 0.34329  0.40671  0.30990  Biso   1.000  C
  C1984    1.0000 0.84329  0.40671  0.80990  Biso   1.000  C
  C1985    1.0000 0.90671  0.34329  0.80990  Biso   1.000  C
  C1986    1.0000 0.90671  0.84329  0.30990  Biso   1.000  C
  C1987    1.0000 0.94010  0.40671  0.90671  Biso   1.000  C
  C1988    1.0000 0.44010  0.40671  0.40671  Biso   1.000  C
  C1989    1.0000 0.30990  0.34329  0.40671  Biso   1.000  C
  C1990    1.0000 0.30990  0.84329  0.90671  Biso   1.000  C
  C1991    1.0000 0.80990  0.90671  0.34329  Biso   1.000  C
  C1992    1.0000 0.80990  0.40671  0.84329  Biso   1.000  C
  C1993    1.0000 0.90671  0.94010  0.40671  Biso   1.000  C
  C1994    1.0000 0.90671  0.44010  0.90671  Biso   1.000  C
  C1995    1.0000 0.40671  0.30990  0.34329  Biso   1.000  C
  C1996    1.0000 0.40671  0.80990  0.84329  Biso   1.000  C
  C1997    1.0000 0.34329  0.80990  0.90671  Biso   1.000  C
  C1998    1.0000 0.84329  0.80990  0.40671  Biso   1.000  C
  C1999    1.0000 0.09329  0.59329  0.05990  Biso   1.000  C
  C2000    1.0000 0.09329  0.09329  0.55990  Biso   1.000  C
  C2001    1.0000 0.65671  0.09329  0.19010  Biso   1.000  C
  C2002    1.0000 0.15671  0.09329  0.69010  Biso   1.000  C
  C2003    1.0000 0.59329  0.65671  0.69010  Biso   1.000  C
  C2004    1.0000 0.59329  0.15671  0.19010  Biso   1.000  C
  C2005    1.0000 0.65671  0.69010  0.59329  Biso   1.000  C
  C2006    1.0000 0.15671  0.69010  0.09329  Biso   1.000  C
  C2007    1.0000 0.09329  0.19010  0.65671  Biso   1.000  C
  C2008    1.0000 0.09329  0.69010  0.15671  Biso   1.000  C
  C2009    1.0000 0.59329  0.05990  0.09329  Biso   1.000  C
  C2010    1.0000 0.59329  0.55990  0.59329  Biso   1.000  C
  C2011    1.0000 0.19010  0.65671  0.09329  Biso   1.000  C
  C2012    1.0000 0.19010  0.15671  0.59329  Biso   1.000  C
  C2013    1.0000 0.69010  0.59329  0.65671  Biso   1.000  C
  C2014    1.0000 0.69010  0.09329  0.15671  Biso   1.000  C
  C2015    1.0000 0.05990  0.09329  0.59329  Biso   1.000  C
  C2016    1.0000 0.55990  0.09329  0.09329  Biso   1.000  C
